# generated using pymatgen
data_Na14Mg4Sc4Si5S7O48
_symmetry_space_group_name_H-M   'P 1'
_cell_length_a   18.28682666
_cell_length_b   9.10554318
_cell_length_c   22.38579539
_cell_angle_alpha   89.97758998
_cell_angle_beta   90.56708611
_cell_angle_gamma   119.86716553
_symmetry_Int_Tables_number   1
_chemical_formula_structural   Na14Mg4Sc4Si5S7O48
_chemical_formula_sum   'Na42 Mg12 Sc12 Si15 S21 O144'
_cell_volume   3232.21253247
_cell_formula_units_Z   3
loop_
 _symmetry_equiv_pos_site_id
 _symmetry_equiv_pos_as_xyz
  1  'x, y, z'
loop_
 _atom_site_type_symbol
 _atom_site_label
 _atom_site_symmetry_multiplicity
 _atom_site_fract_x
 _atom_site_fract_y
 _atom_site_fract_z
 _atom_site_occupancy
  Na  Na0  1  0.80724623  0.99394599  0.24969765  1
  Na  Na1  1  0.18409242  0.35147684  0.25259184  1
  Na  Na2  1  0.68158552  0.35090750  0.25138173  1
  Na  Na3  1  0.00396253  0.65102373  0.24651664  1
  Na  Na4  1  0.50897036  0.64981719  0.24058120  1
  Na  Na5  1  0.31816208  0.62007405  0.75248110  1
  Na  Na6  1  0.00807105  0.36684516  0.74068609  1
  Na  Na7  1  0.50309546  0.37160509  0.74549952  1
  Na  Na8  1  0.18479618  0.01730618  0.75067736  1
  Na  Na9  1  0.67196375  0.00033927  0.75129429  1
  Na  Na10  1  0.14855696  0.32454942  0.58275883  1
  Na  Na11  1  0.65222602  0.32110900  0.58294144  1
  Na  Na12  1  0.32841390  0.97686397  0.59083038  1
  Na  Na13  1  0.83319362  0.99014105  0.58514564  1
  Na  Na14  1  0.15708263  0.98933534  0.07556490  1
  Na  Na15  1  0.64702145  0.97011632  0.07758504  1
  Na  Na16  1  0.33520346  0.67879667  0.08088315  1
  Na  Na17  1  0.82614645  0.67890825  0.08462711  1
  Na  Na18  1  0.48645214  0.67967237  0.91719014  1
  Na  Na19  1  0.99122408  0.68061867  0.91449366  1
  Na  Na20  1  0.34236424  0.03436658  0.91112403  1
  Na  Na21  1  0.83986654  0.02569136  0.91216386  1
  Na  Na22  1  0.16860398  0.27943386  0.91357623  1
  Na  Na23  1  0.66447847  0.27965830  0.91493994  1
  Na  Na24  1  0.49267335  0.30424253  0.41892006  1
  Na  Na25  1  0.98735417  0.29873687  0.43185142  1
  Na  Na26  1  0.16751071  0.05438667  0.42164886  1
  Na  Na27  1  0.66804139  0.05709321  0.41904199  1
  Na  Na28  1  0.34382066  0.65437027  0.41777970  1
  Na  Na29  1  0.83950802  0.64954958  0.41657734  1
  Na  Na30  1  0.01214308  0.01645793  0.50616742  1
  Na  Na31  1  0.51428538  0.00746265  0.50233657  1
  Na  Na32  1  0.01296568  0.02135121  0.99661361  1
  Na  Na33  1  0.51244857  0.00756222  0.00092621  1
  Na  Na34  1  0.32769840  0.33339674  0.82772759  1
  Na  Na35  1  0.81804620  0.32759066  0.83062613  1
  Na  Na36  1  0.32182802  0.31130444  0.33228780  1
  Na  Na37  1  0.81594759  0.31989390  0.33542493  1
  Na  Na38  1  0.17024395  0.67061850  0.16462494  1
  Na  Na39  1  0.65255277  0.64564625  0.16277103  1
  Na  Na40  1  0.15516852  0.65919366  0.66617085  1
  Na  Na41  1  0.66073838  0.66750369  0.67097368  1
  Mg  Mg42  1  0.01087705  0.01593847  0.34995783  1
  Mg  Mg43  1  0.51334369  0.02226837  0.34836263  1
  Mg  Mg44  1  0.01127272  0.00224797  0.84798740  1
  Mg  Mg45  1  0.51285890  0.99280416  0.84514415  1
  Mg  Mg46  1  0.32750882  0.32948300  0.68591313  1
  Mg  Mg47  1  0.82143649  0.32103493  0.18140218  1
  Mg  Mg48  1  0.32613905  0.33073852  0.98627528  1
  Mg  Mg49  1  0.82293608  0.31651070  0.98424678  1
  Mg  Mg50  1  0.32301286  0.33264492  0.48645371  1
  Mg  Mg51  1  0.82649919  0.32432431  0.48810715  1
  Mg  Mg52  1  0.66535157  0.66255696  0.31739419  1
  Mg  Mg53  1  0.16795669  0.67145488  0.81613369  1
  Sc  Sc54  1  0.01035008  0.01735265  0.64748860  1
  Sc  Sc55  1  0.51167777  0.00028294  0.65286022  1
  Sc  Sc56  1  0.01005821  0.00818758  0.14880322  1
  Sc  Sc57  1  0.51108468  0.00428072  0.14643372  1
  Sc  Sc58  1  0.82802939  0.32191803  0.68111609  1
  Sc  Sc59  1  0.32968913  0.33279672  0.18070364  1
  Sc  Sc60  1  0.16319597  0.66151395  0.01592615  1
  Sc  Sc61  1  0.65337421  0.65702870  0.02146813  1
  Sc  Sc62  1  0.15492571  0.65110129  0.52359997  1
  Sc  Sc63  1  0.66208239  0.66198757  0.51766482  1
  Sc  Sc64  1  0.17167001  0.67481896  0.31636160  1
  Sc  Sc65  1  0.66631777  0.67008978  0.81313344  1
  Si  Si66  1  0.15170594  0.99817527  0.25159493  1
  Si  Si67  1  0.65278019  0.99605491  0.25309286  1
  Si  Si68  1  0.15063321  0.30874409  0.75351967  1
  Si  Si69  1  0.65283450  0.30460395  0.75140607  1
  Si  Si70  1  0.49532716  0.69159216  0.75322033  1
  Si  Si71  1  0.97761203  0.33013442  0.58285756  1
  Si  Si72  1  0.18804716  0.03688073  0.58307913  1
  Si  Si73  1  0.68200094  0.02835679  0.58000325  1
  Si  Si74  1  0.47744648  0.62443910  0.08312852  1
  Si  Si75  1  0.18268516  0.33752207  0.08217727  1
  Si  Si76  1  0.68651457  0.34089722  0.08332814  1
  Si  Si77  1  0.16795508  0.96478055  0.91593695  1
  Si  Si78  1  0.66870704  0.96717014  0.91712479  1
  Si  Si79  1  0.16725690  0.37078121  0.41545835  1
  Si  Si80  1  0.66819773  0.37132889  0.41500057  1
  S  S81  1  0.35409867  0.71102869  0.25178588  1
  S  S82  1  0.85569068  0.71014074  0.25093973  1
  S  S83  1  0.99789264  0.29362802  0.25111824  1
  S  S84  1  0.49777273  0.29291389  0.25255064  1
  S  S85  1  0.99820981  0.70266654  0.75241184  1
  S  S86  1  0.35386508  0.99749746  0.75091206  1
  S  S87  1  0.85578444  0.99934018  0.75170364  1
  S  S88  1  0.47740475  0.33309318  0.58196069  1
  S  S89  1  0.33604543  0.63314085  0.58225953  1
  S  S90  1  0.83336817  0.62847370  0.58078186  1
  S  S91  1  0.97805002  0.62095519  0.08451601  1
  S  S92  1  0.33336595  0.03776042  0.08121804  1
  S  S93  1  0.83719979  0.04175738  0.08367224  1
  S  S94  1  0.31344085  0.66951301  0.91593371  1
  S  S95  1  0.81686207  0.67024236  0.91813987  1
  S  S96  1  0.01659622  0.37047361  0.91556883  1
  S  S97  1  0.51601226  0.36588882  0.91517204  1
  S  S98  1  0.31745838  0.96408436  0.41775767  1
  S  S99  1  0.81511514  0.95945304  0.41381163  1
  S  S100  1  0.01751202  0.66702590  0.41407280  1
  S  S101  1  0.51679652  0.66382898  0.41483332  1
  O  O102  1  0.10713118  0.02807508  0.30897324  1
  O  O103  1  0.61061587  0.03065671  0.31121246  1
  O  O104  1  0.40347058  0.79779443  0.30613877  1
  O  O105  1  0.90707526  0.79857178  0.30468708  1
  O  O106  1  0.48712727  0.19559815  0.30814141  1
  O  O107  1  0.98297719  0.19014127  0.30545919  1
  O  O108  1  0.10699529  0.19110955  0.81182937  1
  O  O109  1  0.61058164  0.18802387  0.81006667  1
  O  O110  1  0.47371648  0.76437202  0.81290294  1
  O  O111  1  0.98715265  0.77791762  0.80825094  1
  O  O112  1  0.40578542  0.01652269  0.80494956  1
  O  O113  1  0.90588809  0.01294353  0.80594817  1
  O  O114  1  0.39387526  0.97517770  0.69629149  1
  O  O115  1  0.89500547  0.98055277  0.69701061  1
  O  O116  1  0.08891154  0.21706687  0.69384146  1
  O  O117  1  0.59274121  0.22023088  0.69070966  1
  O  O118  1  0.00633105  0.81006676  0.70051028  1
  O  O119  1  0.51521054  0.82645389  0.69818839  1
  O  O120  1  0.39246932  0.80762637  0.19725121  1
  O  O121  1  0.89532016  0.81475923  0.19670214  1
  O  O122  1  0.01026279  0.20715745  0.19908389  1
  O  O123  1  0.50607061  0.20310526  0.20051562  1
  O  O124  1  0.09037404  0.96462400  0.19146491  1
  O  O125  1  0.59235214  0.96733568  0.19352654  1
  O  O126  1  0.43888676  0.35266272  0.63577285  1
  O  O127  1  0.93348523  0.35181765  0.64286838  1
  O  O128  1  0.24822096  0.12234941  0.64140392  1
  O  O129  1  0.74179254  0.11661292  0.63985129  1
  O  O130  1  0.32636197  0.52947661  0.63477541  1
  O  O131  1  0.81936457  0.51666453  0.63238765  1
  O  O132  1  0.43457909  0.51615745  0.14451971  1
  O  O133  1  0.93957372  0.52415854  0.13929509  1
  O  O134  1  0.31872687  0.12034851  0.13361627  1
  O  O135  1  0.82895864  0.12655389  0.13779750  1
  O  O136  1  0.24087174  0.36670604  0.14301198  1
  O  O137  1  0.74420740  0.37999993  0.14404612  1
  O  O138  1  0.22166289  0.29634005  0.02447229  1
  O  O139  1  0.72722984  0.30307262  0.02497237  1
  O  O140  1  0.42117957  0.53587294  0.02406862  1
  O  O141  1  0.92875100  0.53611132  0.03013528  1
  O  O142  1  0.34437274  0.13347414  0.02656066  1
  O  O143  1  0.85043607  0.14426178  0.02942366  1
  O  O144  1  0.22438603  0.14879079  0.52207050  1
  O  O145  1  0.72232309  0.14318992  0.52115186  1
  O  O146  1  0.34890467  0.55876288  0.52659577  1
  O  O147  1  0.84532486  0.55639850  0.52528685  1
  O  O148  1  0.42905440  0.32303843  0.52662971  1
  O  O149  1  0.92395369  0.31054196  0.52216332  1
  O  O150  1  0.27044114  0.68458092  0.97076448  1
  O  O151  1  0.77891838  0.69454217  0.97293332  1
  O  O152  1  0.07405104  0.45022694  0.96836276  1
  O  O153  1  0.57271520  0.44660997  0.96801552  1
  O  O154  1  0.15408414  0.84449872  0.97638229  1
  O  O155  1  0.65910068  0.84935762  0.97559923  1
  O  O156  1  0.27847767  0.86242506  0.47119548  1
  O  O157  1  0.77461223  0.85730928  0.46817542  1
  O  O158  1  0.15679649  0.47146752  0.47233271  1
  O  O159  1  0.65544257  0.46839044  0.47364967  1
  O  O160  1  0.07369005  0.69873558  0.46628766  1
  O  O161  1  0.57408466  0.69801186  0.46720567  1
  O  O162  1  0.05850035  0.64519121  0.35968159  1
  O  O163  1  0.55567787  0.64053833  0.36062543  1
  O  O164  1  0.25963523  0.88444422  0.36489421  1
  O  O165  1  0.76097436  0.87722314  0.36045797  1
  O  O166  1  0.17858743  0.48794343  0.35559079  1
  O  O167  1  0.68084625  0.48775447  0.35640175  1
  O  O168  1  0.05555640  0.47123560  0.86175223  1
  O  O169  1  0.55706414  0.46998668  0.86151263  1
  O  O170  1  0.17925125  0.86910302  0.85862351  1
  O  O171  1  0.68225591  0.87257099  0.85921599  1
  O  O172  1  0.25999473  0.64414722  0.86287832  1
  O  O173  1  0.75967971  0.63572069  0.86628732  1
  O  O174  1  0.00483972  0.81567451  0.40873577  1
  O  O175  1  0.50230107  0.81075553  0.41053252  1
  O  O176  1  0.39970642  0.97093671  0.40851095  1
  O  O177  1  0.89878587  0.96954608  0.40864707  1
  O  O178  1  0.08070454  0.18393077  0.41413803  1
  O  O179  1  0.58076912  0.18345882  0.41509223  1
  O  O180  1  0.00188356  0.19406896  0.91188634  1
  O  O181  1  0.50347833  0.19225036  0.91017648  1
  O  O182  1  0.08033065  0.97773995  0.91533441  1
  O  O183  1  0.58261806  0.98166999  0.91590376  1
  O  O184  1  0.39581872  0.82894716  0.91365552  1
  O  O185  1  0.89992281  0.82886150  0.90990136  1
  O  O186  1  0.48200498  0.17214110  0.58380682  1
  O  O187  1  0.98244503  0.15169216  0.58671264  1
  O  O188  1  0.09346803  0.01811534  0.59031663  1
  O  O189  1  0.59014986  0.01936542  0.58651892  1
  O  O190  1  0.40726297  0.81050492  0.58779118  1
  O  O191  1  0.90515232  0.80145052  0.58964540  1
  O  O192  1  0.48339272  0.81374344  0.08790028  1
  O  O193  1  0.98171471  0.79158230  0.08726510  1
  O  O194  1  0.40491164  0.00834225  0.09076761  1
  O  O195  1  0.90879681  0.00796782  0.09005922  1
  O  O196  1  0.08897937  0.16345251  0.08971661  1
  O  O197  1  0.59240267  0.16945092  0.08959083  1
  O  O198  1  0.34657069  0.15265412  0.74646168  1
  O  O199  1  0.85048240  0.15929369  0.74934205  1
  O  O200  1  0.24293843  0.32250164  0.74644196  1
  O  O201  1  0.74414077  0.31055084  0.74356007  1
  O  O202  1  0.41746708  0.50053837  0.74168209  1
  O  O203  1  0.92531516  0.52812237  0.74694421  1
  O  O204  1  0.34794850  0.53946248  0.24988576  1
  O  O205  1  0.85255021  0.54319826  0.24690026  1
  O  O206  1  0.42458988  0.32156278  0.24744046  1
  O  O207  1  0.92562048  0.32156025  0.24224516  1
  O  O208  1  0.24386241  0.17060410  0.24445513  1
  O  O209  1  0.74788029  0.16565289  0.24663063  1
  O  O210  1  0.32516225  0.51961145  0.92032787  1
  O  O211  1  0.83252871  0.52441917  0.92321085  1
  O  O212  1  0.43352809  0.35749549  0.92168648  1
  O  O213  1  0.93471180  0.36478766  0.92484742  1
  O  O214  1  0.25347850  0.15298183  0.92088251  1
  O  O215  1  0.75540838  0.15511050  0.91848254  1
  O  O216  1  0.33167724  0.14006481  0.42180534  1
  O  O217  1  0.82688271  0.13291689  0.41785268  1
  O  O218  1  0.25423821  0.35748585  0.41750978  1
  O  O219  1  0.75398216  0.35441359  0.42045727  1
  O  O220  1  0.43444540  0.50585969  0.42333891  1
  O  O221  1  0.93459416  0.51079373  0.41951069  1
  O  O222  1  0.17929523  0.51509050  0.07824479  1
  O  O223  1  0.68161348  0.51645473  0.07588561  1
  O  O224  1  0.06686474  0.65572853  0.08115794  1
  O  O225  1  0.57627222  0.66545836  0.08227696  1
  O  O226  1  0.25421554  0.86459206  0.07777017  1
  O  O227  1  0.75843767  0.87356735  0.07913822  1
  O  O228  1  0.18312012  0.85074809  0.57597395  1
  O  O229  1  0.67914294  0.84403286  0.57599893  1
  O  O230  1  0.25681359  0.64331086  0.57672484  1
  O  O231  1  0.75451904  0.64328929  0.57653249  1
  O  O232  1  0.07672720  0.48694808  0.58242150  1
  O  O233  1  0.56662889  0.47835435  0.57845622  1
  O  O234  1  0.15385106  0.81815431  0.25487175  1
  O  O235  1  0.66028011  0.82207963  0.25621711  1
  O  O236  1  0.26547327  0.68014567  0.25433678  1
  O  O237  1  0.76923175  0.68549874  0.25402632  1
  O  O238  1  0.07689991  0.46292838  0.25580978  1
  O  O239  1  0.57657213  0.46275576  0.25553292  1
  O  O240  1  0.15918506  0.49801505  0.75618234  1
  O  O241  1  0.65956310  0.49068389  0.75607798  1
  O  O242  1  0.07723123  0.69211576  0.75535602  1
  O  O243  1  0.58498942  0.68617072  0.75663547  1
  O  O244  1  0.26802813  0.84614478  0.75425142  1
  O  O245  1  0.76843255  0.85384949  0.75423365  1
