# generated using pymatgen
data_Na4Mg2Ta2Si3(SO8)3
_symmetry_space_group_name_H-M   'P 1'
_cell_length_a   8.95470980
_cell_length_b   8.94811867
_cell_length_c   22.63667494
_cell_angle_alpha   89.66599746
_cell_angle_beta   90.26886023
_cell_angle_gamma   120.46819612
_symmetry_Int_Tables_number   1
_chemical_formula_structural   Na4Mg2Ta2Si3(SO8)3
_chemical_formula_sum   'Na12 Mg6 Ta6 Si9 S9 O72'
_cell_volume   1563.32734342
_cell_formula_units_Z   3
loop_
 _symmetry_equiv_pos_site_id
 _symmetry_equiv_pos_as_xyz
  1  'x, y, z'
loop_
 _atom_site_type_symbol
 _atom_site_label
 _atom_site_symmetry_multiplicity
 _atom_site_fract_x
 _atom_site_fract_y
 _atom_site_fract_z
 _atom_site_occupancy
  Na  Na0  1  0.36947384  0.34841904  0.24484316  1
  Na  Na1  1  0.64734221  0.63232953  0.74527245  1
  Na  Na2  1  0.02115170  0.67698575  0.59223146  1
  Na  Na3  1  0.32349214  0.97116811  0.07792670  1
  Na  Na4  1  0.69817008  0.02428531  0.90682849  1
  Na  Na5  1  0.98836443  0.30449605  0.42449478  1
  Na  Na6  1  0.01068019  0.01662590  0.50069630  1
  Na  Na7  1  0.01255142  0.00325737  0.98955999  1
  Na  Na8  1  0.67968561  0.33320359  0.81991111  1
  Na  Na9  1  0.64448889  0.31722907  0.32929699  1
  Na  Na10  1  0.35007069  0.67096258  0.15344288  1
  Na  Na11  1  0.33276463  0.65100966  0.65673255  1
  Mg  Mg12  1  0.01501551  0.00292561  0.35232115  1
  Mg  Mg13  1  0.00524756  0.99613877  0.84978235  1
  Mg  Mg14  1  0.68252952  0.33674785  0.68698306  1
  Mg  Mg15  1  0.65067155  0.31705691  0.18323096  1
  Mg  Mg16  1  0.34051203  0.66946483  0.01901023  1
  Mg  Mg17  1  0.33890286  0.64681304  0.52227383  1
  Ta  Ta18  1  0.98386994  0.99585074  0.64819380  1
  Ta  Ta19  1  0.00932465  0.00036066  0.14190722  1
  Ta  Ta20  1  0.65316587  0.31654390  0.98066844  1
  Ta  Ta21  1  0.66215087  0.34130880  0.48536848  1
  Ta  Ta22  1  0.33964115  0.66962263  0.31308090  1
  Ta  Ta23  1  0.32855927  0.68013397  0.80979969  1
  Si  Si24  1  0.29636291  0.00180308  0.25202665  1
  Si  Si25  1  0.99329194  0.70932921  0.75113853  1
  Si  Si26  1  0.71154476  0.01165082  0.75674960  1
  Si  Si27  1  0.96134618  0.33521277  0.58362771  1
  Si  Si28  1  0.65862439  0.62802873  0.59043513  1
  Si  Si29  1  0.66572661  0.03705462  0.08634313  1
  Si  Si30  1  0.38210132  0.35057703  0.08728333  1
  Si  Si31  1  0.31621866  0.95204568  0.92059342  1
  Si  Si32  1  0.33124538  0.36695242  0.41740969  1
  S  S33  1  0.71490906  0.71522170  0.25247778  1
  S  S34  1  0.99667504  0.28879521  0.25094697  1
  S  S35  1  0.28684710  0.28898155  0.75155808  1
  S  S36  1  0.37531318  0.04385459  0.58475050  1
  S  S37  1  0.95009142  0.61731594  0.08563127  1
  S  S38  1  0.62303933  0.66181967  0.91778213  1
  S  S39  1  0.04488897  0.38143067  0.91859705  1
  S  S40  1  0.62325629  0.95692874  0.41698925  1
  S  S41  1  0.04407391  0.66817589  0.41705085  1
  O  O42  1  0.19700925  0.02763616  0.30480675  1
  O  O43  1  0.80887056  0.80125928  0.30576660  1
  O  O44  1  0.97088507  0.18936058  0.30543398  1
  O  O45  1  0.20544160  0.18936276  0.80461564  1
  O  O46  1  0.97245806  0.80337559  0.80610145  1
  O  O47  1  0.81490354  0.02845785  0.81581682  1
  O  O48  1  0.80671231  0.96971531  0.69779398  1
  O  O49  1  0.17695170  0.20985220  0.69725561  1
  O  O50  1  0.03577608  0.83458368  0.68952724  1
  O  O51  1  0.79150696  0.82135766  0.19816254  1
  O  O52  1  0.02969303  0.20338864  0.19924741  1
  O  O53  1  0.16975429  0.97006511  0.19128802  1
  O  O54  1  0.86112187  0.35833352  0.63586970  1
  O  O55  1  0.47801980  0.12347615  0.63645215  1
  O  O56  1  0.63688249  0.51393346  0.64666700  1
  O  O57  1  0.86812086  0.52052250  0.13894151  1
  O  O58  1  0.64046331  0.13390712  0.13969293  1
  O  O59  1  0.48098380  0.36943491  0.14775033  1
  O  O60  1  0.47838551  0.30469908  0.03020071  1
  O  O61  1  0.84490418  0.54077394  0.03123386  1
  O  O62  1  0.70134035  0.16505430  0.02424210  1
  O  O63  1  0.46504463  0.16016440  0.52904805  1
  O  O64  1  0.69611047  0.52666196  0.53009852  1
  O  O65  1  0.83544665  0.29926720  0.51939357  1
  O  O66  1  0.53460506  0.68048293  0.96872843  1
  O  O67  1  0.14709942  0.46393101  0.97094127  1
  O  O68  1  0.30998657  0.85031381  0.97904494  1
  O  O69  1  0.53650496  0.85632576  0.46885921  1
  O  O70  1  0.30057326  0.46941047  0.46795525  1
  O  O71  1  0.14530387  0.69486965  0.47036885  1
  O  O72  1  0.13690754  0.64166464  0.36415618  1
  O  O73  1  0.50969106  0.86687531  0.36158252  1
  O  O74  1  0.36055584  0.49478171  0.35540972  1
  O  O75  1  0.13113278  0.48495375  0.86384049  1
  O  O76  1  0.35933250  0.85613673  0.86257073  1
  O  O77  1  0.51802289  0.63000996  0.86240767  1
  O  O78  1  0.00960770  0.80823810  0.40640158  1
  O  O79  1  0.79464834  0.97618954  0.40777969  1
  O  O80  1  0.15624386  0.18080868  0.41082307  1
  O  O81  1  0.00977918  0.20270498  0.91326416  1
  O  O82  1  0.16643818  0.99520446  0.91233704  1
  O  O83  1  0.79465776  0.82072347  0.91319929  1
  O  O84  1  0.98600536  0.16265120  0.59008997  1
  O  O85  1  0.20270260  0.03241048  0.58550565  1
  O  O86  1  0.85449509  0.81481452  0.58968207  1
  O  O87  1  0.96539229  0.79900714  0.08954785  1
  O  O88  1  0.84263248  0.02089263  0.09410651  1
  O  O89  1  0.18939058  0.15234277  0.09075121  1
  O  O90  1  0.66162096  0.15460673  0.74454553  1
  O  O91  1  0.46026361  0.31527588  0.74387996  1
  O  O92  1  0.82680416  0.52137092  0.74522735  1
  O  O93  1  0.68873069  0.54051220  0.24722560  1
  O  O94  1  0.85803281  0.32503536  0.24126122  1
  O  O95  1  0.48636108  0.17086513  0.24728827  1
  O  O96  1  0.64688813  0.50705129  0.92519792  1
  O  O97  1  0.86853968  0.37099138  0.92180219  1
  O  O98  1  0.51370506  0.14869397  0.92308746  1
  O  O99  1  0.64247760  0.13346187  0.41678523  1
  O  O100  1  0.51102624  0.35274783  0.42303868  1
  O  O101  1  0.87254922  0.49661952  0.41870887  1
  O  O102  1  0.33356709  0.49383535  0.07452280  1
  O  O103  1  0.12715255  0.65238355  0.07944921  1
  O  O104  1  0.49705910  0.85183225  0.07671718  1
  O  O105  1  0.34911642  0.87180988  0.57237558  1
  O  O106  1  0.51341735  0.67422393  0.57855081  1
  O  O107  1  0.14160044  0.51272809  0.57435205  1
  O  O108  1  0.30870195  0.81996075  0.25953676  1
  O  O109  1  0.53024172  0.69301766  0.25609331  1
  O  O110  1  0.16913953  0.46458350  0.25579067  1
  O  O111  1  0.30640783  0.46880185  0.75681967  1
  O  O112  1  0.17224744  0.68903077  0.75783358  1
  O  O113  1  0.52247074  0.81205531  0.75990220  1
