# generated using pymatgen
data_MgMoP2O7
_symmetry_space_group_name_H-M   'P 1'
_cell_length_a   5.04067370
_cell_length_b   6.68219429
_cell_length_c   6.01793026
_cell_angle_alpha   62.68328037
_cell_angle_beta   107.72639011
_cell_angle_gamma   79.55033916
_symmetry_Int_Tables_number   1
_chemical_formula_structural   MgMoP2O7
_chemical_formula_sum   'Mg1 Mo1 P2 O7'
_cell_volume   158.71847203
_cell_formula_units_Z   1
loop_
 _symmetry_equiv_pos_site_id
 _symmetry_equiv_pos_as_xyz
  1  'x, y, z'
loop_
 _atom_site_type_symbol
 _atom_site_label
 _atom_site_symmetry_multiplicity
 _atom_site_fract_x
 _atom_site_fract_y
 _atom_site_fract_z
 _atom_site_occupancy
  Mg  Mg0  1  0.24997931  0.69821182  0.92391837  1
  Mo  Mo1  1  0.17224373  0.13486388  0.01198104  1
  P  P2  1  0.31876286  0.59484124  0.56094787  1
  P  P3  1  0.65179733  0.26169344  0.45882911  1
  O  O4  1  0.54976212  0.33460217  0.65752678  1
  O  O5  1  0.11706719  0.51600948  0.71233310  1
  O  O6  1  0.16528241  0.75210470  0.23658823  1
  O  O7  1  0.47264769  0.72070916  0.67952844  1
  O  O8  1  0.96155770  0.05394417  0.68602541  1
  O  O9  1  0.67131292  0.48330790  0.24004358  1
  O  O10  1  0.40917275  0.18930504  0.33227506  1
