# generated using pymatgen
data_Na2CaAlP(SO6)2
_symmetry_space_group_name_H-M   'P 1'
_cell_length_a   8.96307150
_cell_length_b   8.96193419
_cell_length_c   22.20710210
_cell_angle_alpha   91.06486289
_cell_angle_beta   90.00000000
_cell_angle_gamma   120.00419807
_symmetry_Int_Tables_number   1
_chemical_formula_structural   Na2CaAlP(SO6)2
_chemical_formula_sum   'Na12 Ca6 Al6 P6 S12 O72'
_cell_volume   1544.41044674
_cell_formula_units_Z   6
loop_
 _symmetry_equiv_pos_site_id
 _symmetry_equiv_pos_as_xyz
  1  'x, y, z'
loop_
 _atom_site_type_symbol
 _atom_site_label
 _atom_site_symmetry_multiplicity
 _atom_site_fract_x
 _atom_site_fract_y
 _atom_site_fract_z
 _atom_site_occupancy
  Na  Na0  1  0.99649657  0.63987158  0.24371152  1
  Na  Na1  1  0.64337501  0.63987158  0.74371152  1
  Na  Na2  1  0.65568752  0.96566139  0.57952726  1
  Na  Na3  1  0.30997488  0.96566139  0.07952726  1
  Na  Na4  1  0.69251554  0.01990908  0.91157778  1
  Na  Na5  1  0.32739254  0.01990908  0.41157778  1
  Na  Na6  1  0.98281430  0.99136070  0.50082630  1
  Na  Na7  1  0.00854640  0.99136070  0.00082630  1
  Na  Na8  1  0.65794283  0.31227156  0.83351887  1
  Na  Na9  1  0.65432973  0.31227156  0.33351887  1
  Na  Na10  1  0.33328067  0.65264010  0.16606913  1
  Na  Na11  1  0.31935842  0.65264010  0.66606913  1
  Ca  Ca12  1  0.99345650  0.00758303  0.35389265  1
  Ca  Ca13  1  0.01412653  0.00758303  0.85389265  1
  Ca  Ca14  1  0.66393591  0.32558518  0.68619793  1
  Ca  Ca15  1  0.66165027  0.32558518  0.18619793  1
  Ca  Ca16  1  0.32533349  0.66081975  0.01941557  1
  Ca  Ca17  1  0.33548526  0.66081975  0.51941557  1
  Al  Al18  1  0.98780335  0.98257365  0.65101070  1
  Al  Al19  1  0.99477030  0.98257365  0.15101070  1
  Al  Al20  1  0.67068086  0.35054653  0.98129386  1
  Al  Al21  1  0.67986667  0.35054653  0.48129386  1
  Al  Al22  1  0.35514071  0.69577539  0.31494505  1
  Al  Al23  1  0.34063368  0.69577539  0.81494505  1
  P  P24  1  0.28828971  0.98235651  0.25298373  1
  P  P25  1  0.69406680  0.98235651  0.75298373  1
  P  P26  1  0.68697409  0.63518208  0.58647942  1
  P  P27  1  0.94820899  0.63518208  0.08647942  1
  P  P28  1  0.35668966  0.98062749  0.92225742  1
  P  P29  1  0.62393682  0.98062749  0.42225742  1
  S  S30  1  0.69402766  0.71572426  0.24956126  1
  S  S31  1  0.02361974  0.30406713  0.24771835  1
  S  S32  1  0.28044740  0.30406713  0.74771835  1
  S  S33  1  0.02169660  0.71572426  0.74956126  1
  S  S34  1  0.95286165  0.31666346  0.58264304  1
  S  S35  1  0.35206638  0.04402316  0.58085313  1
  S  S36  1  0.69195778  0.04402316  0.08085313  1
  S  S37  1  0.36380281  0.31666346  0.08264304  1
  S  S38  1  0.61970933  0.64823818  0.91479036  1
  S  S39  1  0.02736948  0.38567087  0.91405753  1
  S  S40  1  0.35830039  0.38567087  0.41405753  1
  S  S41  1  0.02852786  0.64823818  0.41479036  1
  O  O42  1  0.20931209  0.99780790  0.31125835  1
  O  O43  1  0.79584552  0.78841036  0.30427028  1
  O  O44  1  0.99624816  0.21102927  0.30318649  1
  O  O45  1  0.21478111  0.21102927  0.80318649  1
  O  O46  1  0.99256484  0.78841036  0.80427028  1
  O  O47  1  0.78849581  0.99780790  0.81125835  1
  O  O48  1  0.79200004  0.95572299  0.69699795  1
  O  O49  1  0.17071329  0.20182807  0.69437257  1
  O  O50  1  0.04200883  0.82514602  0.69614291  1
  O  O51  1  0.78313719  0.82514602  0.19614291  1
  O  O52  1  0.03111478  0.20182807  0.19437257  1
  O  O53  1  0.16372295  0.95572299  0.19699795  1
  O  O54  1  0.88154308  0.33975425  0.63837081  1
  O  O55  1  0.46465289  0.12063127  0.63351668  1
  O  O56  1  0.66609858  0.54685060  0.64578077  1
  O  O57  1  0.88075302  0.54685060  0.14578077  1
  O  O58  1  0.65597938  0.12063127  0.13351668  1
  O  O59  1  0.45821217  0.33975425  0.13837081  1
  O  O60  1  0.45817734  0.29540813  0.02935863  1
  O  O61  1  0.82672754  0.52823810  0.03171980  1
  O  O62  1  0.70878267  0.14551132  0.02563252  1
  O  O63  1  0.43672966  0.14551132  0.52563252  1
  O  O64  1  0.70151156  0.52823810  0.53171980  1
  O  O65  1  0.83723178  0.29540813  0.52935863  1
  O  O66  1  0.54037939  0.67589030  0.96765053  1
  O  O67  1  0.12231317  0.45167177  0.97016235  1
  O  O68  1  0.33809495  0.88678907  0.98014278  1
  O  O69  1  0.54869312  0.88678907  0.48014278  1
  O  O70  1  0.32935760  0.45167177  0.47016235  1
  O  O71  1  0.13550991  0.67589030  0.46765053  1
  O  O72  1  0.11165009  0.62699346  0.35855431  1
  O  O73  1  0.49515946  0.87621445  0.36708500  1
  O  O74  1  0.36782787  0.49175976  0.36129748  1
  O  O75  1  0.12393088  0.49175976  0.86129748  1
  O  O76  1  0.38105399  0.87621445  0.86708500  1
  O  O77  1  0.51534236  0.62699346  0.85855431  1
  O  O78  1  0.00515088  0.79981436  0.41089779  1
  O  O79  1  0.80457523  0.01091045  0.41480604  1
  O  O80  1  0.21744857  0.20466740  0.40808426  1
  O  O81  1  0.98721883  0.20466740  0.90808426  1
  O  O82  1  0.20633521  0.01091045  0.91480604  1
  O  O83  1  0.79466349  0.79981436  0.91089779  1
  O  O84  1  0.95465429  0.14873827  0.58544347  1
  O  O85  1  0.18378179  0.03892743  0.58935948  1
  O  O86  1  0.85711087  0.82007822  0.59045805  1
  O  O87  1  0.96296734  0.82007822  0.09045805  1
  O  O88  1  0.85514565  0.03892743  0.08935948  1
  O  O89  1  0.19408398  0.14873827  0.08544347  1
  O  O90  1  0.66184124  0.13204752  0.74695625  1
  O  O91  1  0.46059063  0.34060073  0.74218547  1
  O  O92  1  0.87342586  0.54131709  0.74235282  1
  O  O93  1  0.66789223  0.54131709  0.24235282  1
  O  O94  1  0.88001110  0.34060073  0.24218547  1
  O  O95  1  0.47020728  0.13204752  0.24695625  1
  O  O96  1  0.63138548  0.48752695  0.92098435  1
  O  O97  1  0.85577213  0.37970091  0.91841037  1
  O  O98  1  0.53333776  0.15947739  0.92605141  1
  O  O99  1  0.62614063  0.15947739  0.42605141  1
  O  O100  1  0.52392978  0.37970091  0.41841037  1
  O  O101  1  0.85614248  0.48752695  0.42098435  1
  O  O102  1  0.33347354  0.46095122  0.07667072  1
  O  O103  1  0.13439235  0.67193726  0.07956698  1
  O  O104  1  0.54376772  0.86655795  0.07586294  1
  O  O105  1  0.32278923  0.86655795  0.57586294  1
  O  O106  1  0.53754391  0.67193726  0.57956698  1
  O  O107  1  0.12747668  0.46095122  0.57667072  1
  O  O108  1  0.29356330  0.80616853  0.25631425  1
  O  O109  1  0.52249787  0.70719595  0.25555373  1
  O  O110  1  0.18780938  0.47527420  0.25121055  1
  O  O111  1  0.28746382  0.47527420  0.75121055  1
  O  O112  1  0.18469708  0.70719595  0.75555373  1
  O  O113  1  0.51260423  0.80616853  0.75631425  1
