# generated using pymatgen
data_Na5Ga2SiSn2P5O24
_symmetry_space_group_name_H-M   'P 1'
_cell_length_a   8.80322793
_cell_length_b   8.78845742
_cell_length_c   22.30580876
_cell_angle_alpha   90.13318389
_cell_angle_beta   89.70750474
_cell_angle_gamma   119.92973439
_symmetry_Int_Tables_number   1
_chemical_formula_structural   Na5Ga2SiSn2P5O24
_chemical_formula_sum   'Na15 Ga6 Si3 Sn6 P15 O72'
_cell_volume   1495.56259955
_cell_formula_units_Z   3
loop_
 _symmetry_equiv_pos_site_id
 _symmetry_equiv_pos_as_xyz
  1  'x, y, z'
loop_
 _atom_site_type_symbol
 _atom_site_label
 _atom_site_symmetry_multiplicity
 _atom_site_fract_x
 _atom_site_fract_y
 _atom_site_fract_z
 _atom_site_occupancy
  Na  Na0  1  0.00310409  0.63644535  0.25119220  1
  Na  Na1  1  0.63177833  0.63958015  0.75172306  1
  Na  Na2  1  0.36796642  0.99717295  0.75111805  1
  Na  Na3  1  0.66401499  0.96924662  0.58419143  1
  Na  Na4  1  0.29687306  0.96774914  0.08330354  1
  Na  Na5  1  0.67319866  0.70007255  0.08292563  1
  Na  Na6  1  0.02960909  0.33190707  0.08392199  1
  Na  Na7  1  0.96720334  0.29946134  0.41593665  1
  Na  Na8  1  0.33505551  0.03475054  0.41742679  1
  Na  Na9  1  0.00273806  0.99443458  0.49954564  1
  Na  Na10  1  0.99962395  0.99781673  0.99798569  1
  Na  Na11  1  0.67361813  0.33135371  0.83767589  1
  Na  Na12  1  0.66123601  0.33468386  0.33486239  1
  Na  Na13  1  0.33752498  0.66667467  0.17104104  1
  Na  Na14  1  0.32412763  0.66009357  0.66798094  1
  Ga  Ga15  1  0.99440169  0.99524873  0.34959826  1
  Ga  Ga16  1  0.99837433  0.99457041  0.15219917  1
  Ga  Ga17  1  0.67239558  0.34056335  0.97813819  1
  Ga  Ga18  1  0.66187701  0.33756365  0.48288146  1
  Ga  Ga19  1  0.34103889  0.66623766  0.31505822  1
  Ga  Ga20  1  0.33407065  0.66701112  0.81684925  1
  Si  Si21  1  0.70582838  0.99934763  0.75098047  1
  Si  Si22  1  0.37273935  0.04365629  0.58063539  1
  Si  Si23  1  0.95543033  0.62624616  0.08226361  1
  Sn  Sn24  1  0.99834537  0.00180776  0.85436707  1
  Sn  Sn25  1  0.00398163  0.00052920  0.64749947  1
  Sn  Sn26  1  0.67000555  0.33013896  0.68425665  1
  Sn  Sn27  1  0.66506006  0.33077304  0.18653963  1
  Sn  Sn28  1  0.33002799  0.66621388  0.01398770  1
  Sn  Sn29  1  0.33085086  0.66540467  0.51784084  1
  P  P30  1  0.28952413  0.99885344  0.25141283  1
  P  P31  1  0.70624974  0.71385058  0.25075071  1
  P  P32  1  0.00426705  0.28872421  0.25067323  1
  P  P33  1  0.28953919  0.29667246  0.75102779  1
  P  P34  1  0.00315986  0.70570530  0.75126452  1
  P  P35  1  0.95860553  0.33619015  0.58061432  1
  P  P36  1  0.66716003  0.62121675  0.58189371  1
  P  P37  1  0.66923052  0.04481788  0.08173546  1
  P  P38  1  0.37570942  0.33043598  0.08199504  1
  P  P39  1  0.62442571  0.66161851  0.91548594  1
  P  P40  1  0.03914723  0.37639888  0.91502685  1
  P  P41  1  0.33860850  0.96545418  0.91518020  1
  P  P42  1  0.62765821  0.95710564  0.41457482  1
  P  P43  1  0.33635155  0.37664629  0.41428218  1
  P  P44  1  0.03707891  0.66599702  0.41430722  1
  O  O45  1  0.20757481  0.03103263  0.30769179  1
  O  O46  1  0.83039965  0.79350187  0.30456282  1
  O  O47  1  0.97050046  0.17621904  0.30722708  1
  O  O48  1  0.21643184  0.17143118  0.80522302  1
  O  O49  1  0.96009048  0.78521146  0.80598171  1
  O  O50  1  0.83094789  0.03742321  0.80772941  1
  O  O51  1  0.78192574  0.95459191  0.68959983  1
  O  O52  1  0.18052429  0.21714722  0.69418916  1
  O  O53  1  0.04280921  0.82281474  0.69492175  1
  O  O54  1  0.78560314  0.81910938  0.19204624  1
  O  O55  1  0.03019762  0.20754866  0.19239016  1
  O  O56  1  0.17778326  0.96512905  0.19368085  1
  O  O57  1  0.88505788  0.37279465  0.63831557  1
  O  O58  1  0.49131422  0.11543974  0.64199952  1
  O  O59  1  0.63456456  0.51731944  0.64149646  1
  O  O60  1  0.88462216  0.50569873  0.14360518  1
  O  O61  1  0.62097383  0.11350730  0.13884923  1
  O  O62  1  0.49055439  0.37372697  0.13903851  1
  O  O63  1  0.45703195  0.29212035  0.02760760  1
  O  O64  1  0.82612178  0.53559914  0.02656332  1
  O  O65  1  0.70256283  0.16238165  0.02738500  1
  O  O66  1  0.46211633  0.15990608  0.52129445  1
  O  O67  1  0.70095706  0.53950859  0.52736930  1
  O  O68  1  0.84291455  0.29985895  0.52483908  1
  O  O69  1  0.55117270  0.70092575  0.97456654  1
  O  O70  1  0.14746805  0.44534143  0.97485492  1
  O  O71  1  0.29850243  0.85363432  0.97415263  1
  O  O72  1  0.55354284  0.84889886  0.47353039  1
  O  O73  1  0.29118780  0.44972057  0.47157169  1
  O  O74  1  0.15711852  0.70747626  0.47034830  1
  O  O75  1  0.12017402  0.62863142  0.35882656  1
  O  O76  1  0.50176840  0.87237698  0.36191456  1
  O  O77  1  0.36530485  0.49324643  0.36021303  1
  O  O78  1  0.13000839  0.49448628  0.86139503  1
  O  O79  1  0.36453037  0.87790376  0.85967466  1
  O  O80  1  0.51175601  0.63554154  0.86008908  1
  O  O81  1  0.02635366  0.83637002  0.40829652  1
  O  O82  1  0.81483884  0.98225253  0.40843250  1
  O  O83  1  0.16794244  0.19024281  0.40903510  1
  O  O84  1  0.02667339  0.19342853  0.91252486  1
  O  O85  1  0.16841441  0.97787638  0.91103197  1
  O  O86  1  0.80828776  0.82951252  0.91265117  1
  O  O87  1  0.96696407  0.16419125  0.58696860  1
  O  O88  1  0.17936190  0.02278636  0.58634295  1
  O  O89  1  0.82799892  0.80958831  0.58677590  1
  O  O90  1  0.97978386  0.82330310  0.09080396  1
  O  O91  1  0.83349592  0.02572737  0.09008529  1
  O  O92  1  0.18947162  0.16978528  0.09044071  1
  O  O93  1  0.68111062  0.17173065  0.74685842  1
  O  O94  1  0.47658805  0.31643835  0.74465962  1
  O  O95  1  0.82952354  0.52785720  0.74418118  1
  O  O96  1  0.69520532  0.52888180  0.24575502  1
  O  O97  1  0.83722120  0.31149042  0.24651572  1
  O  O98  1  0.47413088  0.16566962  0.24553966  1
  O  O99  1  0.63815192  0.49494451  0.92200577  1
  O  O100  1  0.85665511  0.35757529  0.92220515  1
  O  O101  1  0.50339302  0.14614854  0.92354757  1
  O  O102  1  0.64633911  0.14306543  0.42133736  1
  O  O103  1  0.49886603  0.35386776  0.42124989  1
  O  O104  1  0.85770272  0.49593259  0.42339743  1
  O  O105  1  0.35882609  0.49984971  0.07702172  1
  O  O106  1  0.15355867  0.64677147  0.07790444  1
  O  O107  1  0.50392465  0.85598690  0.07685420  1
  O  O108  1  0.36331888  0.85101258  0.57761997  1
  O  O109  1  0.50284959  0.64381669  0.57739573  1
  O  O110  1  0.14380218  0.49738016  0.57694100  1
  O  O111  1  0.30352932  0.82980620  0.25703065  1
  O  O112  1  0.52298505  0.69236019  0.25711612  1
  O  O113  1  0.16397481  0.47772006  0.25615475  1
  O  O114  1  0.31341363  0.48062020  0.75801113  1
  O  O115  1  0.16747854  0.68998860  0.75791852  1
  O  O116  1  0.51096848  0.82313849  0.75715993  1
