# generated using pymatgen
data_Na6Ca4Ta8Si9(SO8)9
_symmetry_space_group_name_H-M   'P 1'
_cell_length_a   8.97915791
_cell_length_b   8.97480375
_cell_length_c   23.19973218
_cell_angle_alpha   89.85760104
_cell_angle_beta   90.05938623
_cell_angle_gamma   119.95232986
_symmetry_Int_Tables_number   1
_chemical_formula_structural   Na6Ca4Ta8Si9(SO8)9
_chemical_formula_sum   'Na6 Ca4 Ta8 Si9 S9 O72'
_cell_volume   1619.87400110
_cell_formula_units_Z   1
loop_
 _symmetry_equiv_pos_site_id
 _symmetry_equiv_pos_as_xyz
  1  'x, y, z'
loop_
 _atom_site_type_symbol
 _atom_site_label
 _atom_site_symmetry_multiplicity
 _atom_site_fract_x
 _atom_site_fract_y
 _atom_site_fract_z
 _atom_site_occupancy
  Na  Na0  1  0.99992728  0.00067730  0.49216503  1
  Na  Na1  1  0.98728578  0.00706482  0.99946792  1
  Na  Na2  1  0.68461219  0.33659554  0.82341641  1
  Na  Na3  1  0.66468422  0.31538009  0.32413277  1
  Na  Na4  1  0.32883156  0.66614135  0.17418453  1
  Na  Na5  1  0.33171190  0.67422115  0.66042159  1
  Ca  Ca6  1  0.67434226  0.33519602  0.69160769  1
  Ca  Ca7  1  0.66630586  0.32671805  0.19285393  1
  Ca  Ca8  1  0.33621551  0.66147978  0.01583059  1
  Ca  Ca9  1  0.33205085  0.67003381  0.51329816  1
  Ta  Ta10  1  0.01138820  0.01147177  0.35536680  1
  Ta  Ta11  1  0.98327369  0.98861544  0.85307252  1
  Ta  Ta12  1  0.98810565  0.98519443  0.64647025  1
  Ta  Ta13  1  0.01135848  0.00997978  0.15186482  1
  Ta  Ta14  1  0.67647945  0.33921709  0.97663361  1
  Ta  Ta15  1  0.66448110  0.32565577  0.47146804  1
  Ta  Ta16  1  0.31951680  0.66378028  0.31827935  1
  Ta  Ta17  1  0.33059840  0.65839340  0.81219822  1
  Si  Si18  1  0.28830121  0.98937764  0.25358006  1
  Si  Si19  1  0.01527636  0.30232658  0.25340406  1
  Si  Si20  1  0.01029329  0.71686261  0.75223877  1
  Si  Si21  1  0.70168653  0.98867534  0.75082205  1
  Si  Si22  1  0.62279612  0.66528860  0.91781723  1
  Si  Si23  1  0.04533239  0.37093640  0.91677333  1
  Si  Si24  1  0.62562692  0.94954367  0.41616034  1
  Si  Si25  1  0.33258275  0.37847713  0.41805283  1
  Si  Si26  1  0.03897103  0.67297497  0.41880042  1
  S  S27  1  0.71154504  0.72528595  0.25014868  1
  S  S28  1  0.27502790  0.28639507  0.75125542  1
  S  S29  1  0.95700468  0.32430001  0.58431362  1
  S  S30  1  0.36943034  0.04751839  0.58523122  1
  S  S31  1  0.66999408  0.62633773  0.58438260  1
  S  S32  1  0.95123826  0.63164432  0.08237276  1
  S  S33  1  0.67614824  0.04590047  0.08300089  1
  S  S34  1  0.36961253  0.31959892  0.08349029  1
  S  S35  1  0.33609700  0.96492627  0.91484511  1
  O  O36  1  0.16641696  0.98777551  0.30448924  1
  O  O37  1  0.81309868  0.81137099  0.30071488  1
  O  O38  1  0.99837509  0.17297992  0.30431679  1
  O  O39  1  0.18993431  0.18865206  0.80370104  1
  O  O40  1  0.01748350  0.83781786  0.80550319  1
  O  O41  1  0.82481825  0.00124251  0.80548734  1
  O  O42  1  0.80856149  0.97204464  0.69312670  1
  O  O43  1  0.17125091  0.20545610  0.69811925  1
  O  O44  1  0.03238293  0.83783007  0.69271209  1
  O  O45  1  0.80498714  0.83356832  0.19479498  1
  O  O46  1  0.02944687  0.19421430  0.19219247  1
  O  O47  1  0.16576831  0.97005448  0.19182561  1
  O  O48  1  0.87345050  0.33711111  0.63636420  1
  O  O49  1  0.46564521  0.13153074  0.63715275  1
  O  O50  1  0.66091603  0.53471816  0.63724188  1
  O  O51  1  0.86908443  0.53096028  0.13306870  1
  O  O52  1  0.66421845  0.12940973  0.13441002  1
  O  O53  1  0.46596363  0.33347677  0.13497887  1
  O  O54  1  0.45645681  0.29916280  0.03034440  1
  O  O55  1  0.83954970  0.53201126  0.02850129  1
  O  O56  1  0.69159903  0.15594674  0.02960598  1
  O  O57  1  0.45639606  0.15238078  0.53228522  1
  O  O58  1  0.69567506  0.54627578  0.53227439  1
  O  O59  1  0.84936149  0.30151532  0.53191576  1
  O  O60  1  0.57402626  0.72123470  0.97520582  1
  O  O61  1  0.14162879  0.43328753  0.97550679  1
  O  O62  1  0.29592536  0.86401413  0.96736918  1
  O  O63  1  0.57375945  0.85470657  0.47563081  1
  O  O64  1  0.28571133  0.43095899  0.47642763  1
  O  O65  1  0.14420514  0.72448056  0.47606750  1
  O  O66  1  0.12957361  0.63068848  0.36210709  1
  O  O67  1  0.49478573  0.86010234  0.36011515  1
  O  O68  1  0.36637626  0.50342240  0.36114931  1
  O  O69  1  0.13706649  0.50180796  0.86048194  1
  O  O70  1  0.36767673  0.88188409  0.86412319  1
  O  O71  1  0.49482438  0.63480115  0.86195174  1
  O  O72  1  0.98745270  0.81618707  0.40064799  1
  O  O73  1  0.81976620  0.99572119  0.39914364  1
  O  O74  1  0.18258120  0.17872159  0.40363008  1
  O  O75  1  0.01192190  0.17814474  0.90185033  1
  O  O76  1  0.19579892  0.00326091  0.90349677  1
  O  O77  1  0.82411620  0.81324980  0.90231492  1
  O  O78  1  0.96910576  0.15867005  0.58962780  1
  O  O79  1  0.19352927  0.04027095  0.58965829  1
  O  O80  1  0.84209024  0.80743977  0.58940050  1
  O  O81  1  0.95321361  0.80072755  0.08277606  1
  O  O82  1  0.83937648  0.03482337  0.08430883  1
  O  O83  1  0.19191283  0.15215940  0.08658840  1
  O  O84  1  0.67822051  0.15084945  0.75279058  1
  O  O85  1  0.44706307  0.31126863  0.74809252  1
  O  O86  1  0.83932164  0.53773086  0.75356791  1
  O  O87  1  0.69626603  0.55726000  0.24408552  1
  O  O88  1  0.85286846  0.32582454  0.25125161  1
  O  O89  1  0.46515878  0.16308607  0.25250013  1
  O  O90  1  0.63692080  0.48541479  0.92822258  1
  O  O91  1  0.84536797  0.34825412  0.92649946  1
  O  O92  1  0.49846329  0.13806877  0.92300795  1
  O  O93  1  0.64034204  0.14539392  0.42557533  1
  O  O94  1  0.50879765  0.35809650  0.42751305  1
  O  O95  1  0.85063828  0.48898554  0.42864307  1
  O  O96  1  0.33969618  0.46437340  0.07888560  1
  O  O97  1  0.12434802  0.66015637  0.07490722  1
  O  O98  1  0.52555106  0.87522542  0.07762272  1
  O  O99  1  0.33825470  0.87221751  0.58217819  1
  O  O100  1  0.53091421  0.66366939  0.58158958  1
  O  O101  1  0.13080325  0.47000746  0.58104812  1
  O  O102  1  0.29989413  0.81313976  0.25642740  1
  O  O103  1  0.54380488  0.71769083  0.25049727  1
  O  O104  1  0.19896370  0.48222395  0.25663111  1
  O  O105  1  0.28562609  0.46077359  0.75553933  1
  O  O106  1  0.18730148  0.70399377  0.75972519  1
  O  O107  1  0.52001427  0.80583789  0.75906981  1
