# generated using pymatgen
data_Na4Ta3GaSi4(PO12)2
_symmetry_space_group_name_H-M   'P 1'
_cell_length_a   8.88779215
_cell_length_b   8.90065201
_cell_length_c   22.51755366
_cell_angle_alpha   89.88057778
_cell_angle_beta   89.80652095
_cell_angle_gamma   119.86750783
_symmetry_Int_Tables_number   1
_chemical_formula_structural   Na4Ta3GaSi4(PO12)2
_chemical_formula_sum   'Na12 Ta9 Ga3 Si12 P6 O72'
_cell_volume   1544.68257765
_cell_formula_units_Z   3
loop_
 _symmetry_equiv_pos_site_id
 _symmetry_equiv_pos_as_xyz
  1  'x, y, z'
loop_
 _atom_site_type_symbol
 _atom_site_label
 _atom_site_symmetry_multiplicity
 _atom_site_fract_x
 _atom_site_fract_y
 _atom_site_fract_z
 _atom_site_occupancy
  Na  Na0  1  0.63533428  0.62486037  0.74480957  1
  Na  Na1  1  0.99390426  0.36699881  0.74618125  1
  Na  Na2  1  0.30921844  0.97482708  0.08415896  1
  Na  Na3  1  0.02713634  0.33940498  0.08431607  1
  Na  Na4  1  0.96638795  0.29508196  0.41170449  1
  Na  Na5  1  0.70737725  0.67830451  0.41396063  1
  Na  Na6  1  0.00742830  0.99694715  0.49796562  1
  Na  Na7  1  0.98973369  0.98952365  0.99579998  1
  Na  Na8  1  0.65387414  0.31938158  0.83161459  1
  Na  Na9  1  0.65708137  0.32354771  0.32265065  1
  Na  Na10  1  0.34425018  0.66545054  0.16565380  1
  Na  Na11  1  0.33504084  0.67306943  0.66527604  1
  Ta  Ta12  1  0.00419652  0.00875409  0.85586783  1
  Ta  Ta13  1  0.99481401  0.00089825  0.64333660  1
  Ta  Ta14  1  0.99580444  0.99655255  0.14689163  1
  Ta  Ta15  1  0.66694923  0.33425982  0.97745908  1
  Ta  Ta16  1  0.66879514  0.33219704  0.48020172  1
  Ta  Ta17  1  0.33782124  0.66772984  0.02052636  1
  Ta  Ta18  1  0.33480380  0.66889626  0.52257155  1
  Ta  Ta19  1  0.33154783  0.67103174  0.30970307  1
  Ta  Ta20  1  0.33639512  0.66973473  0.81287530  1
  Ga  Ga21  1  0.99899930  0.99486155  0.35089046  1
  Ga  Ga22  1  0.65835194  0.32526591  0.68531782  1
  Ga  Ga23  1  0.66628548  0.33323082  0.18320027  1
  Si  Si24  1  0.29495415  0.28672088  0.74826364  1
  Si  Si25  1  0.70796197  0.00429876  0.74920631  1
  Si  Si26  1  0.95355568  0.33593775  0.58659151  1
  Si  Si27  1  0.66697932  0.61836960  0.58594424  1
  Si  Si28  1  0.94771484  0.61606922  0.08563949  1
  Si  Si29  1  0.66426608  0.04824712  0.08614275  1
  Si  Si30  1  0.38707207  0.33878468  0.08705899  1
  Si  Si31  1  0.62434796  0.66627945  0.91543195  1
  Si  Si32  1  0.04401900  0.37975774  0.91665870  1
  Si  Si33  1  0.33301157  0.95626311  0.91720369  1
  Si  Si34  1  0.62273054  0.95715745  0.41475535  1
  Si  Si35  1  0.04834499  0.67586953  0.41592238  1
  P  P36  1  0.29105701  0.00775875  0.25180424  1
  P  P37  1  0.71133576  0.70394988  0.25265331  1
  P  P38  1  0.99499818  0.28629887  0.25266704  1
  P  P39  1  0.00342916  0.71696468  0.74980450  1
  P  P40  1  0.38048263  0.04642782  0.58452747  1
  P  P41  1  0.33185735  0.37861491  0.41559219  1
  O  O42  1  0.19899329  0.02580605  0.30631094  1
  O  O43  1  0.81337952  0.78849061  0.30973898  1
  O  O44  1  0.97688141  0.18040111  0.30919033  1
  O  O45  1  0.19611983  0.16840431  0.80681678  1
  O  O46  1  0.97797594  0.80694984  0.80448569  1
  O  O47  1  0.83409089  0.02871415  0.80595062  1
  O  O48  1  0.80114616  0.96442526  0.69198531  1
  O  O49  1  0.16374101  0.19110420  0.69219535  1
  O  O50  1  0.02975270  0.82870892  0.69390352  1
  O  O51  1  0.80564766  0.82688700  0.19819189  1
  O  O52  1  0.02226907  0.19719390  0.19659514  1
  O  O53  1  0.17835512  0.97742695  0.19475841  1
  O  O54  1  0.87094879  0.36586481  0.64563039  1
  O  O55  1  0.49031768  0.12123915  0.63979463  1
  O  O56  1  0.63324841  0.50538340  0.64532904  1
  O  O57  1  0.87479044  0.49059801  0.14237895  1
  O  O58  1  0.61775097  0.12393937  0.14336129  1
  O  O59  1  0.49935227  0.37170681  0.14532646  1
  O  O60  1  0.46595549  0.29237428  0.02831498  1
  O  O61  1  0.82964993  0.53136404  0.02642798  1
  O  O62  1  0.70790680  0.17259147  0.02736288  1
  O  O63  1  0.46869866  0.16052448  0.52831976  1
  O  O64  1  0.68819885  0.52478305  0.52519970  1
  O  O65  1  0.83389252  0.30564720  0.52608768  1
  O  O66  1  0.52762056  0.69355944  0.97282261  1
  O  O67  1  0.16092753  0.46988396  0.97564197  1
  O  O68  1  0.30610509  0.84036409  0.97694354  1
  O  O69  1  0.52966028  0.82863323  0.47162598  1
  O  O70  1  0.30336011  0.46675249  0.47082602  1
  O  O71  1  0.16751004  0.69286167  0.47308663  1
  O  O72  1  0.13634629  0.62992572  0.35911971  1
  O  O73  1  0.49710809  0.85673787  0.35779402  1
  O  O74  1  0.36755913  0.49935345  0.36081901  1
  O  O75  1  0.13616227  0.49508365  0.85686097  1
  O  O76  1  0.35918787  0.85768861  0.85984996  1
  O  O77  1  0.50523966  0.63940609  0.85621422  1
  O  O78  1  0.01728266  0.83842496  0.40935906  1
  O  O79  1  0.81677551  0.98299964  0.40848835  1
  O  O80  1  0.16857361  0.20202918  0.40955162  1
  O  O81  1  0.02670556  0.18882968  0.91062739  1
  O  O82  1  0.15942535  0.97129815  0.90933520  1
  O  O83  1  0.81333482  0.83735843  0.90824973  1
  O  O84  1  0.97520409  0.16239245  0.58952136  1
  O  O85  1  0.19809308  0.02615282  0.58918453  1
  O  O86  1  0.84359022  0.80975436  0.58921147  1
  O  O87  1  0.98037759  0.81563939  0.09374504  1
  O  O88  1  0.84074592  0.03107970  0.09410297  1
  O  O89  1  0.18739716  0.16352214  0.09473228  1
  O  O90  1  0.69972891  0.18015404  0.74399412  1
  O  O91  1  0.49007093  0.31942759  0.74493636  1
  O  O92  1  0.84183819  0.53587357  0.74684847  1
  O  O93  1  0.69190740  0.52517162  0.24545545  1
  O  O94  1  0.83605560  0.30808714  0.24644469  1
  O  O95  1  0.47314706  0.16290752  0.24614571  1
  O  O96  1  0.63721666  0.49228166  0.92275423  1
  O  O97  1  0.85353184  0.36025640  0.92237226  1
  O  O98  1  0.50567663  0.14455165  0.92340060  1
  O  O99  1  0.64086835  0.14878659  0.42212129  1
  O  O100  1  0.49938485  0.36723123  0.42325309  1
  O  O101  1  0.85430246  0.49707677  0.42369145  1
  O  O102  1  0.34514921  0.49742649  0.07748217  1
  O  O103  1  0.14650536  0.64728465  0.07622761  1
  O  O104  1  0.49562467  0.85461121  0.07656928  1
  O  O105  1  0.35915641  0.86323337  0.57440138  1
  O  O106  1  0.49838179  0.64541190  0.57469320  1
  O  O107  1  0.14691189  0.50426996  0.57485598  1
  O  O108  1  0.30198704  0.83376891  0.25704980  1
  O  O109  1  0.52756707  0.69169245  0.25618875  1
  O  O110  1  0.16731333  0.46874510  0.25700887  1
  O  O111  1  0.30276306  0.47737183  0.75452590  1
  O  O112  1  0.16603608  0.69469847  0.75508761  1
  O  O113  1  0.52056997  0.82423979  0.75432026  1
