# generated using pymatgen
data_Na4Ta2Si5Ge2SO24
_symmetry_space_group_name_H-M   'P 1'
_cell_length_a   8.81756218
_cell_length_b   8.79659620
_cell_length_c   22.22332082
_cell_angle_alpha   90.55904534
_cell_angle_beta   89.52693872
_cell_angle_gamma   119.92212069
_symmetry_Int_Tables_number   1
_chemical_formula_structural   Na4Ta2Si5Ge2SO24
_chemical_formula_sum   'Na12 Ta6 Si15 Ge6 S3 O72'
_cell_volume   1493.89152906
_cell_formula_units_Z   3
loop_
 _symmetry_equiv_pos_site_id
 _symmetry_equiv_pos_as_xyz
  1  'x, y, z'
loop_
 _atom_site_type_symbol
 _atom_site_label
 _atom_site_symmetry_multiplicity
 _atom_site_fract_x
 _atom_site_fract_y
 _atom_site_fract_z
 _atom_site_occupancy
  Na  Na0  1  0.63589589  0.99948757  0.25048056  1
  Na  Na1  1  0.99673969  0.36362253  0.75044872  1
  Na  Na2  1  0.30088008  0.33547549  0.57944918  1
  Na  Na3  1  0.66868981  0.97110994  0.57923538  1
  Na  Na4  1  0.03079613  0.33155443  0.08467667  1
  Na  Na5  1  0.96653090  0.66786816  0.91470485  1
  Na  Na6  1  0.99934796  0.99573122  0.49256131  1
  Na  Na7  1  0.98967500  0.99578073  0.00126512  1
  Na  Na8  1  0.65041021  0.32573722  0.83650277  1
  Na  Na9  1  0.65935212  0.33882959  0.33310119  1
  Na  Na10  1  0.33268221  0.67547795  0.16394247  1
  Na  Na11  1  0.33061995  0.67734457  0.66441194  1
  Ta  Ta12  1  0.99905706  0.99551903  0.64514641  1
  Ta  Ta13  1  0.66377134  0.33503158  0.68885360  1
  Ta  Ta14  1  0.67203168  0.33202097  0.18918667  1
  Ta  Ta15  1  0.65874826  0.32540674  0.47564059  1
  Ta  Ta16  1  0.33715624  0.66507172  0.30870298  1
  Ta  Ta17  1  0.33758893  0.65875496  0.81280639  1
  Si  Si18  1  0.26974176  0.00073710  0.24994915  1
  Si  Si19  1  0.72720913  0.71964583  0.25253631  1
  Si  Si20  1  0.00657330  0.28013650  0.24669348  1
  Si  Si21  1  0.28162375  0.27269943  0.75425637  1
  Si  Si22  1  0.00035434  0.71954674  0.75515412  1
  Si  Si23  1  0.70852168  0.99715808  0.75115664  1
  Si  Si24  1  0.96380601  0.34707084  0.58146041  1
  Si  Si25  1  0.37498858  0.03369209  0.58125232  1
  Si  Si26  1  0.66707549  0.62269546  0.58069357  1
  Si  Si27  1  0.96656811  0.63714316  0.08189683  1
  Si  Si28  1  0.66299320  0.03731888  0.07969717  1
  Si  Si29  1  0.62460751  0.66349355  0.92143791  1
  Si  Si30  1  0.04638965  0.36900141  0.92034109  1
  Si  Si31  1  0.62878655  0.94712832  0.41658364  1
  Si  Si32  1  0.32220353  0.37076132  0.41681209  1
  Ge  Ge33  1  0.99751862  0.01541753  0.35105974  1
  Ge  Ge34  1  0.98153240  0.00345142  0.85317468  1
  Ge  Ge35  1  0.98157820  0.98093113  0.14913640  1
  Ge  Ge36  1  0.69723239  0.35333629  0.98217058  1
  Ge  Ge37  1  0.33970296  0.67091967  0.01998525  1
  Ge  Ge38  1  0.34196400  0.66207790  0.52010894  1
  S  S39  1  0.38299187  0.33433091  0.08071670  1
  S  S40  1  0.33737963  0.95990341  0.91904591  1
  S  S41  1  0.04981390  0.67050120  0.41832771  1
  O  O42  1  0.19129124  0.03719242  0.31119838  1
  O  O43  1  0.84368435  0.80504690  0.31182205  1
  O  O44  1  0.95043014  0.15820054  0.30626418  1
  O  O45  1  0.18676173  0.15306399  0.81185810  1
  O  O46  1  0.96817795  0.80499232  0.81558694  1
  O  O47  1  0.83641825  0.04494967  0.80872612  1
  O  O48  1  0.79412609  0.96816519  0.68946042  1
  O  O49  1  0.16635659  0.20201309  0.69194523  1
  O  O50  1  0.02976148  0.83670836  0.69468267  1
  O  O51  1  0.78992123  0.84162602  0.19222354  1
  O  O52  1  0.03543466  0.19809426  0.18420449  1
  O  O53  1  0.15421563  0.96510814  0.18937862  1
  O  O54  1  0.87359469  0.36985322  0.64360096  1
  O  O55  1  0.50407038  0.12889238  0.63937363  1
  O  O56  1  0.63008276  0.49705700  0.63962502  1
  O  O57  1  0.86372215  0.49709169  0.13691464  1
  O  O58  1  0.63233397  0.12748005  0.14090231  1
  O  O59  1  0.48807054  0.35870078  0.13564515  1
  O  O60  1  0.46915600  0.31140777  0.02608859  1
  O  O61  1  0.84802863  0.55434925  0.02061296  1
  O  O62  1  0.70396549  0.17892987  0.02431808  1
  O  O63  1  0.46458935  0.16773439  0.52474438  1
  O  O64  1  0.69977536  0.53090575  0.52308228  1
  O  O65  1  0.82780898  0.29899472  0.52618248  1
  O  O66  1  0.52979093  0.70145170  0.97757849  1
  O  O67  1  0.16880497  0.46863072  0.97909892  1
  O  O68  1  0.30131564  0.84281620  0.97237652  1
  O  O69  1  0.53386245  0.83269873  0.47775173  1
  O  O70  1  0.29807677  0.46008055  0.47928384  1
  O  O71  1  0.15574893  0.69131330  0.47294633  1
  O  O72  1  0.12944614  0.64280695  0.36295475  1
  O  O73  1  0.50341603  0.86424110  0.35753700  1
  O  O74  1  0.35039404  0.49866808  0.35999777  1
  O  O75  1  0.13105819  0.49891525  0.86102680  1
  O  O76  1  0.36271718  0.87491055  0.86387298  1
  O  O77  1  0.50224974  0.63603878  0.86141942  1
  O  O78  1  0.02922701  0.82387453  0.41455523  1
  O  O79  1  0.82102689  0.96572127  0.41014592  1
  O  O80  1  0.15124123  0.17673301  0.41002112  1
  O  O81  1  0.02808275  0.17624188  0.91192302  1
  O  O82  1  0.17725562  0.97210404  0.91407834  1
  O  O83  1  0.82265358  0.83505675  0.91171794  1
  O  O84  1  0.98090407  0.16905418  0.58901181  1
  O  O85  1  0.18867910  0.02743728  0.58869537  1
  O  O86  1  0.83522471  0.81841474  0.58713278  1
  O  O87  1  0.98249381  0.82839491  0.09014889  1
  O  O88  1  0.84643636  0.03179425  0.08765629  1
  O  O89  1  0.20602556  0.17992669  0.08402071  1
  O  O90  1  0.69607244  0.17481915  0.74426352  1
  O  O91  1  0.47674943  0.30252942  0.74585018  1
  O  O92  1  0.83036154  0.52271401  0.74576289  1
  O  O93  1  0.69499127  0.52229905  0.24226159  1
  O  O94  1  0.82856812  0.30004220  0.24093391  1
  O  O95  1  0.47301372  0.16908671  0.24153353  1
  O  O96  1  0.64213817  0.48417612  0.92649531  1
  O  O97  1  0.85327361  0.35997161  0.92368717  1
  O  O98  1  0.49583592  0.13338936  0.92429079  1
  O  O99  1  0.64897213  0.14440699  0.42225321  1
  O  O100  1  0.50431606  0.36040485  0.42107153  1
  O  O101  1  0.87389282  0.50610871  0.42186495  1
  O  O102  1  0.36478458  0.49582900  0.07871989  1
  O  O103  1  0.15378193  0.63685322  0.07469483  1
  O  O104  1  0.48565346  0.84563076  0.07374311  1
  O  O105  1  0.36191074  0.84551645  0.57324484  1
  O  O106  1  0.49170676  0.64091722  0.57749722  1
  O  O107  1  0.15860786  0.51513940  0.57524280  1
  O  O108  1  0.30613369  0.83354940  0.25701442  1
  O  O109  1  0.52842765  0.69723558  0.25758605  1
  O  O110  1  0.17079077  0.47799330  0.25426729  1
  O  O111  1  0.29876520  0.46891470  0.75894751  1
  O  O112  1  0.16884634  0.68908709  0.75952456  1
  O  O113  1  0.51610045  0.82724594  0.75775790  1
