# generated using pymatgen
data_Na2Sc3TaSi2(SO6)4
_symmetry_space_group_name_H-M   'P 1'
_cell_length_a   8.89361228
_cell_length_b   8.88146733
_cell_length_c   23.18181351
_cell_angle_alpha   90.21962432
_cell_angle_beta   89.68781991
_cell_angle_gamma   119.93951541
_symmetry_Int_Tables_number   1
_chemical_formula_structural   Na2Sc3TaSi2(SO6)4
_chemical_formula_sum   'Na6 Sc9 Ta3 Si6 S12 O72'
_cell_volume   1586.71351768
_cell_formula_units_Z   3
loop_
 _symmetry_equiv_pos_site_id
 _symmetry_equiv_pos_as_xyz
  1  'x, y, z'
loop_
 _atom_site_type_symbol
 _atom_site_label
 _atom_site_symmetry_multiplicity
 _atom_site_fract_x
 _atom_site_fract_y
 _atom_site_fract_z
 _atom_site_occupancy
  Na  Na0  1  0.00040799  0.99182894  0.49803775  1
  Na  Na1  1  0.99750365  0.98276214  0.99800274  1
  Na  Na2  1  0.65302971  0.32928670  0.83352251  1
  Na  Na3  1  0.68037068  0.33633570  0.33088280  1
  Na  Na4  1  0.32008594  0.65972605  0.15948318  1
  Na  Na5  1  0.33113584  0.65951967  0.66801030  1
  Sc  Sc6  1  0.99586885  0.00050078  0.35157079  1
  Sc  Sc7  1  0.01498952  0.00011415  0.85563097  1
  Sc  Sc8  1  0.01120447  0.01360015  0.65134538  1
  Sc  Sc9  1  0.00041498  0.00236139  0.14426751  1
  Sc  Sc10  1  0.65555133  0.33396808  0.68825088  1
  Sc  Sc11  1  0.68909515  0.34183284  0.18541615  1
  Sc  Sc12  1  0.67897957  0.34358550  0.47831757  1
  Sc  Sc13  1  0.33254994  0.67876801  0.01881656  1
  Sc  Sc14  1  0.32420112  0.67039440  0.51776555  1
  Ta  Ta15  1  0.66495981  0.34476317  0.97832947  1
  Ta  Ta16  1  0.31619133  0.65721163  0.31188084  1
  Ta  Ta17  1  0.34414537  0.66625476  0.81716540  1
  Si  Si18  1  0.99151094  0.28016238  0.24992721  1
  Si  Si19  1  0.29081468  0.29403303  0.75086547  1
  Si  Si20  1  0.96461013  0.62971450  0.08378603  1
  Si  Si21  1  0.62872235  0.67575372  0.91996020  1
  Si  Si22  1  0.33579586  0.95925226  0.91798588  1
  Si  Si23  1  0.03858254  0.67148662  0.41820756  1
  S  S24  1  0.29239750  0.00121760  0.25078771  1
  S  S25  1  0.70583451  0.70816905  0.25101149  1
  S  S26  1  0.00188404  0.70733168  0.74977246  1
  S  S27  1  0.70844358  -0.00031507  0.75058154  1
  S  S28  1  0.95710230  0.33170071  0.58354309  1
  S  S29  1  0.37608324  0.04279767  0.58287074  1
  S  S30  1  0.66721937  0.62703658  0.58311787  1
  S  S31  1  0.66693649  0.04573126  0.08294729  1
  S  S32  1  0.37917887  0.33425098  0.08403023  1
  S  S33  1  0.04329306  0.37815194  0.91735687  1
  S  S34  1  0.62062891  0.95434620  0.41669474  1
  S  S35  1  0.33365676  0.37853150  0.41657348  1
  O  O36  1  0.21068860  0.02082122  0.30323472  1
  O  O37  1  0.81253946  0.78551369  0.30283915  1
  O  O38  1  0.97669458  0.17487647  0.30834791  1
  O  O39  1  0.20188609  0.17669571  0.80620455  1
  O  O40  1  0.96943681  0.78225213  0.80128859  1
  O  O41  1  0.81009373  0.02354439  0.80191620  1
  O  O42  1  0.78097446  0.96547579  0.69756937  1
  O  O43  1  0.17475721  0.21036071  0.69224582  1
  O  O44  1  0.02909351  0.81356339  0.69735432  1
  O  O45  1  0.77987245  0.81398343  0.19918622  1
  O  O46  1  0.03552428  0.20386857  0.19323313  1
  O  O47  1  0.18473975  0.96034793  0.19925749  1
  O  O48  1  0.87670585  0.35767566  0.63530580  1
  O  O49  1  0.48172668  0.12439840  0.63484824  1
  O  O50  1  0.64196361  0.51917916  0.63479543  1
  O  O51  1  0.86654860  0.50908123  0.13946394  1
  O  O52  1  0.63884321  0.12334560  0.13540857  1
  O  O53  1  0.48256399  0.35370763  0.13527385  1
  O  O54  1  0.46585927  0.30831090  0.03005410  1
  O  O55  1  0.83285879  0.52011873  0.02655027  1
  O  O56  1  0.68790732  0.15367904  0.03078837  1
  O  O57  1  0.45724008  0.14817960  0.53079625  1
  O  O58  1  0.69126888  0.54267654  0.53088148  1
  O  O59  1  0.85157108  0.30874480  0.53118380  1
  O  O60  1  0.53094239  0.68783594  0.97514612  1
  O  O61  1  0.14688725  0.45475607  0.96855507  1
  O  O62  1  0.30211284  0.83955036  0.97292000  1
  O  O63  1  0.54197926  0.84824006  0.46883141  1
  O  O64  1  0.31056114  0.46089306  0.46835067  1
  O  O65  1  0.16110739  0.69417705  0.47294493  1
  O  O66  1  0.14436407  0.64411942  0.36071862  1
  O  O67  1  0.51333211  0.86812614  0.36440595  1
  O  O68  1  0.36104526  0.49120890  0.36394209  1
  O  O69  1  0.12508515  0.49020049  0.86411051  1
  O  O70  1  0.36157963  0.86014164  0.85913361  1
  O  O71  1  0.49908807  0.63291926  0.86046957  1
  O  O72  1  0.02204061  0.84179247  0.40968736  1
  O  O73  1  0.79477984  0.97438241  0.41090532  1
  O  O74  1  0.17839366  0.20701873  0.40968774  1
  O  O75  1  0.01763080  0.20449507  0.90828998  1
  O  O76  1  0.17227086  0.98745178  0.91046222  1
  O  O77  1  0.81446866  0.83791177  0.90698307  1
  O  O78  1  0.97228403  0.17239181  0.58786753  1
  O  O79  1  0.19910036  0.02031572  0.58881004  1
  O  O80  1  0.82384535  0.80055585  0.58909817  1
  O  O81  1  0.97378212  0.81764895  0.08834347  1
  O  O82  1  0.82653008  0.03324708  0.08720894  1
  O  O83  1  0.20756055  0.17419378  0.08611183  1
  O  O84  1  0.68538784  0.15245227  0.74232522  1
  O  O85  1  0.48671403  0.32166588  0.74211246  1
  O  O86  1  0.85008469  0.53027309  0.74186512  1
  O  O87  1  0.67536006  0.53022208  0.24510574  1
  O  O88  1  0.82995248  0.31542860  0.24717174  1
  O  O89  1  0.46545556  0.15206269  0.24449378  1
  O  O90  1  0.64118743  0.49231846  0.92484922  1
  O  O91  1  0.86807311  0.36432790  0.92246301  1
  O  O92  1  0.51732050  0.14944571  0.92633608  1
  O  O93  1  0.63306377  0.12654515  0.42222874  1
  O  O94  1  0.49033418  0.36179744  0.42092384  1
  O  O95  1  0.85144535  0.49131008  0.42194532  1
  O  O96  1  0.36256707  0.48831298  0.07666426  1
  O  O97  1  0.15021467  0.63966504  0.07863036  1
  O  O98  1  0.51425159  0.87063743  0.07827207  1
  O  O99  1  0.36031494  0.86755366  0.57819395  1
  O  O100  1  0.50988127  0.64336719  0.57686354  1
  O  O101  1  0.13417785  0.48674953  0.57733101  1
  O  O102  1  0.31646502  0.84081937  0.26018486  1
  O  O103  1  0.52988828  0.69442042  0.26115075  1
  O  O104  1  0.17527970  0.48334605  0.26107547  1
  O  O105  1  0.30897546  0.49116766  0.75864757  1
  O  O106  1  0.16044008  0.69042946  0.75668028  1
  O  O107  1  0.52765489  0.83954063  0.75675763  1
