# generated using pymatgen
data_Rb2In2Sb3
_symmetry_space_group_name_H-M   'P 1'
_cell_length_a   7.67359710
_cell_length_b   15.72694842
_cell_length_c   17.52237288
_cell_angle_alpha   89.44877186
_cell_angle_beta   90.00000000
_cell_angle_gamma   90.00000000
_symmetry_Int_Tables_number   1
_chemical_formula_structural   Rb2In2Sb3
_chemical_formula_sum   'Rb16 In16 Sb24'
_cell_volume   2114.54179712
_cell_formula_units_Z   8
loop_
 _symmetry_equiv_pos_site_id
 _symmetry_equiv_pos_as_xyz
  1  'x, y, z'
loop_
 _atom_site_type_symbol
 _atom_site_label
 _atom_site_symmetry_multiplicity
 _atom_site_fract_x
 _atom_site_fract_y
 _atom_site_fract_z
 _atom_site_occupancy
  Rb  Rb0  1  0.97065393  0.85754730  0.99291801  1
  Rb  Rb1  1  0.47065393  0.14245270  0.50708199  1
  Rb  Rb2  1  0.02934607  0.14245270  0.00708199  1
  Rb  Rb3  1  0.52934607  0.85754730  0.49291801  1
  Rb  Rb4  1  0.54664991  0.34648683  0.02099422  1
  Rb  Rb5  1  0.04664991  0.65351317  0.47900578  1
  Rb  Rb6  1  0.45335009  0.65351317  0.97900578  1
  Rb  Rb7  1  0.95335009  0.34648683  0.52099422  1
  Rb  Rb8  1  0.53216646  0.07695657  0.11107915  1
  Rb  Rb9  1  0.03216646  0.92304343  0.38892085  1
  Rb  Rb10  1  0.46783354  0.92304343  0.88892085  1
  Rb  Rb11  1  0.96783354  0.07695657  0.61107915  1
  Rb  Rb12  1  0.94515523  0.55674089  0.89752291  1
  Rb  Rb13  1  0.44515523  0.44325911  0.60247709  1
  Rb  Rb14  1  0.05484477  0.44325911  0.10247709  1
  Rb  Rb15  1  0.55484477  0.55674089  0.39752291  1
  In  In16  1  0.27843244  0.31573113  0.83059389  1
  In  In17  1  0.77843244  0.68426887  0.66940611  1
  In  In18  1  0.72156756  0.68426887  0.16940611  1
  In  In19  1  0.22156756  0.31573113  0.33059389  1
  In  In20  1  0.78821314  0.90752577  0.72957503  1
  In  In21  1  0.28821314  0.09247423  0.77042497  1
  In  In22  1  0.21178686  0.09247423  0.27042497  1
  In  In23  1  0.71178686  0.90752577  0.22957503  1
  In  In24  1  0.76326442  0.18168080  0.82288748  1
  In  In25  1  0.26326442  0.81831920  0.67711252  1
  In  In26  1  0.23673558  0.81831920  0.17711252  1
  In  In27  1  0.73673558  0.18168080  0.32288748  1
  In  In28  1  0.76062809  0.40667415  0.75947333  1
  In  In29  1  0.26062809  0.59332585  0.74052667  1
  In  In30  1  0.23937191  0.59332585  0.24052667  1
  In  In31  1  0.73937191  0.40667415  0.25947333  1
  Sb  Sb32  1  0.46266481  0.97342314  0.67246497  1
  Sb  Sb33  1  0.96266481  0.02657686  0.82753503  1
  Sb  Sb34  1  0.53733519  0.02657686  0.32753503  1
  Sb  Sb35  1  0.03733519  0.97342314  0.17246497  1
  Sb  Sb36  1  0.44559316  0.16401508  0.90446014  1
  Sb  Sb37  1  0.94559316  0.83598492  0.59553986  1
  Sb  Sb38  1  0.55440684  0.83598492  0.09553986  1
  Sb  Sb39  1  0.05440684  0.16401508  0.40446014  1
  Sb  Sb40  1  0.93527161  0.32908586  0.88915952  1
  Sb  Sb41  1  0.43527161  0.67091414  0.61084048  1
  Sb  Sb42  1  0.06472839  0.67091414  0.11084048  1
  Sb  Sb43  1  0.56472839  0.32908586  0.38915952  1
  Sb  Sb44  1  0.83488384  0.25195056  0.17529562  1
  Sb  Sb45  1  0.33488384  0.74804944  0.32470438  1
  Sb  Sb46  1  0.16511616  0.74804944  0.82470438  1
  Sb  Sb47  1  0.66511616  0.25195056  0.67529562  1
  Sb  Sb48  1  0.45999804  0.47648442  0.83695412  1
  Sb  Sb49  1  0.95999804  0.52351558  0.66304588  1
  Sb  Sb50  1  0.54000196  0.52351558  0.16304588  1
  Sb  Sb51  1  0.04000196  0.47648442  0.33695412  1
  Sb  Sb52  1  0.20924799  0.24720652  0.17939873  1
  Sb  Sb53  1  0.70924799  0.75279348  0.32060127  1
  Sb  Sb54  1  0.79075201  0.75279348  0.82060127  1
  Sb  Sb55  1  0.29075201  0.24720652  0.67939873  1
