# generated using pymatgen
data_Ca2NF
_symmetry_space_group_name_H-M   'P 1'
_cell_length_a   6.17053719
_cell_length_b   6.17053712
_cell_length_c   6.17053646
_cell_angle_alpha   33.37233091
_cell_angle_beta   33.37233008
_cell_angle_gamma   33.37233233
_symmetry_Int_Tables_number   1
_chemical_formula_structural   Ca2NF
_chemical_formula_sum   'Ca2 N1 F1'
_cell_volume   63.30351260
_cell_formula_units_Z   1
loop_
 _symmetry_equiv_pos_site_id
 _symmetry_equiv_pos_as_xyz
  1  'x, y, z'
loop_
 _atom_site_type_symbol
 _atom_site_label
 _atom_site_symmetry_multiplicity
 _atom_site_fract_x
 _atom_site_fract_y
 _atom_site_fract_z
 _atom_site_occupancy
  Ca  Ca0  1  0.26140200  0.26140200  0.26140200  1
  Ca  Ca1  1  0.73859800  0.73859800  0.73859800  1
  N  N2  1  0.00000000  0.00000000  0.00000000  1
  F  F3  1  0.50000000  0.50000000  0.50000000  1
