# generated using pymatgen
data_Na2TiSiSn(PO6)2
_symmetry_space_group_name_H-M   'P 1'
_cell_length_a   8.81470787
_cell_length_b   8.80515790
_cell_length_c   22.53932703
_cell_angle_alpha   89.99970827
_cell_angle_beta   90.10142479
_cell_angle_gamma   119.80984430
_symmetry_Int_Tables_number   1
_chemical_formula_structural   Na2TiSiSn(PO6)2
_chemical_formula_sum   'Na12 Ti6 Si6 Sn6 P12 O72'
_cell_volume   1517.90548124
_cell_formula_units_Z   6
loop_
 _symmetry_equiv_pos_site_id
 _symmetry_equiv_pos_as_xyz
  1  'x, y, z'
loop_
 _atom_site_type_symbol
 _atom_site_label
 _atom_site_symmetry_multiplicity
 _atom_site_fract_x
 _atom_site_fract_y
 _atom_site_fract_z
 _atom_site_occupancy
  Na  Na0  1  0.00062989  0.63281148  0.25033278  1
  Na  Na1  1  0.36760347  0.00163105  0.75003481  1
  Na  Na2  1  0.66602199  0.96652461  0.58370442  1
  Na  Na3  1  0.03038434  0.33306437  0.08510202  1
  Na  Na4  1  0.97189515  0.66935016  0.91811181  1
  Na  Na5  1  0.33308207  0.03233239  0.41738522  1
  Na  Na6  1  0.00105214  0.99886805  0.50018273  1
  Na  Na7  1  0.00209547  0.99779249  0.00090752  1
  Na  Na8  1  0.66527329  0.33009108  0.83239148  1
  Na  Na9  1  0.66983762  0.33414748  0.33489482  1
  Na  Na10  1  0.34068297  0.67091886  0.16667884  1
  Na  Na11  1  0.32944451  0.65719511  0.66549671  1
  Ti  Ti12  1  0.99289521  0.00238546  0.35404859  1
  Ti  Ti13  1  0.00318761  0.99918501  0.64719859  1
  Ti  Ti14  1  0.99953072  0.99503537  0.14780327  1
  Ti  Ti15  1  0.66930720  0.32758383  0.68469475  1
  Ti  Ti16  1  0.66995655  0.34199611  0.48201153  1
  Ti  Ti17  1  0.32270311  0.66808016  0.51979876  1
  Si  Si18  1  0.00042302  0.28574096  0.24918967  1
  Si  Si19  1  0.71304535  0.00110625  0.74786019  1
  Si  Si20  1  0.37389540  0.04626648  0.58236402  1
  Si  Si21  1  0.95832328  0.63005378  0.08338149  1
  Si  Si22  1  0.33621382  0.96344786  0.91550584  1
  Si  Si23  1  0.03576210  0.66321231  0.41640517  1
  Sn  Sn24  1  0.00043215  0.00553326  0.85160299  1
  Sn  Sn25  1  0.66500191  0.32975388  0.18628442  1
  Sn  Sn26  1  0.66102291  0.32939831  0.98156953  1
  Sn  Sn27  1  0.33492634  0.67307662  0.01921849  1
  Sn  Sn28  1  0.33324588  0.66149025  0.31488069  1
  Sn  Sn29  1  0.33840772  0.66788233  0.81308523  1
  P  P30  1  0.28784302  0.00372944  0.25096562  1
  P  P31  1  0.71270084  0.71665574  0.25027018  1
  P  P32  1  0.29095729  0.29128470  0.74806699  1
  P  P33  1  0.99294786  0.70457868  0.74895729  1
  P  P34  1  0.95682882  0.33586858  0.58311405  1
  P  P35  1  0.66571947  0.61973884  0.58425546  1
  P  P36  1  0.66707247  0.03839425  0.08416615  1
  P  P37  1  0.37286413  0.33091807  0.08409181  1
  P  P38  1  0.62377883  0.66655893  0.91701994  1
  P  P39  1  0.04344685  0.37403560  0.91724396  1
  P  P40  1  0.62491060  0.95662647  0.41826656  1
  P  P41  1  0.33385818  0.37780235  0.41846192  1
  O  O42  1  0.20362886  0.02746440  0.30731138  1
  O  O43  1  0.83098414  0.79832615  0.30536304  1
  O  O44  1  0.97380398  0.16130743  0.30724163  1
  O  O45  1  0.22004641  0.17601690  0.80453624  1
  O  O46  1  0.96459200  0.78093548  0.80732210  1
  O  O47  1  0.82787818  0.04086758  0.80769622  1
  O  O48  1  0.80700335  0.97323838  0.68949885  1
  O  O49  1  0.17092224  0.19889775  0.69447849  1
  O  O50  1  0.03257588  0.83237012  0.69614931  1
  O  O51  1  0.80037799  0.82755049  0.19477834  1
  O  O52  1  0.02618854  0.19331438  0.19024777  1
  O  O53  1  0.16936489  0.96782770  0.19576938  1
  O  O54  1  0.87023509  0.36524260  0.63845808  1
  O  O55  1  0.50199504  0.13443942  0.64075934  1
  O  O56  1  0.63964701  0.50397834  0.63861090  1
  O  O57  1  0.87901824  0.50463840  0.14218900  1
  O  O58  1  0.62797506  0.11673575  0.13926313  1
  O  O59  1  0.48781367  0.36792244  0.13984363  1
  O  O60  1  0.44873918  0.29487432  0.02813752  1
  O  O61  1  0.84326454  0.54756696  0.02288565  1
  O  O62  1  0.70950523  0.15765578  0.02880698  1
  O  O63  1  0.46986927  0.16517826  0.52399983  1
  O  O64  1  0.69680864  0.53380183  0.52851550  1
  O  O65  1  0.83555172  0.30073398  0.52882996  1
  O  O66  1  0.54592545  0.69886514  0.97280328  1
  O  O67  1  0.15216972  0.44977193  0.97433690  1
  O  O68  1  0.28659478  0.83507097  0.97278072  1
  O  O69  1  0.53983482  0.84098373  0.47346935  1
  O  O70  1  0.30475473  0.46762331  0.47204447  1
  O  O71  1  0.17229141  0.70040198  0.47289928  1
  O  O72  1  0.11786646  0.62951752  0.35646220  1
  O  O73  1  0.50724437  0.88052532  0.36198074  1
  O  O74  1  0.37407932  0.48789496  0.36112500  1
  O  O75  1  0.12252912  0.49238719  0.86198174  1
  O  O76  1  0.36729075  0.88091392  0.85490848  1
  O  O77  1  0.51109018  0.62855265  0.86090931  1
  O  O78  1  0.02943223  0.84515855  0.40945105  1
  O  O79  1  0.80657431  0.97356260  0.40990932  1
  O  O80  1  0.17151867  0.19204983  0.41053256  1
  O  O81  1  0.02388810  0.19167903  0.91244793  1
  O  O82  1  0.15339899  0.97094904  0.91064576  1
  O  O83  1  0.80922543  0.82893354  0.91162061  1
  O  O84  1  0.96925988  0.16714645  0.59029116  1
  O  O85  1  0.18077174  0.02259043  0.59238202  1
  O  O86  1  0.82901159  0.80613797  0.59025761  1
  O  O87  1  0.97875535  0.82258226  0.09267086  1
  O  O88  1  0.83580159  0.02812532  0.09120826  1
  O  O89  1  0.18804769  0.17067332  0.09111305  1
  O  O90  1  0.68568341  0.17314217  0.74008577  1
  O  O91  1  0.47279468  0.30797112  0.74043784  1
  O  O92  1  0.83206223  0.52482939  0.74066539  1
  O  O93  1  0.69689295  0.53278568  0.24528204  1
  O  O94  1  0.82815792  0.31190119  0.24700615  1
  O  O95  1  0.47003566  0.16808963  0.24494658  1
  O  O96  1  0.65050405  0.50520643  0.92129133  1
  O  O97  1  0.86332129  0.36500105  0.92201376  1
  O  O98  1  0.50991582  0.15462585  0.92078373  1
  O  O99  1  0.63935249  0.13840826  0.42496082  1
  O  O100  1  0.49419159  0.34998849  0.42539043  1
  O  O101  1  0.84549232  0.49132332  0.42740271  1
  O  O102  1  0.35143402  0.49491828  0.07774465  1
  O  O103  1  0.14717862  0.63550898  0.07923980  1
  O  O104  1  0.50582149  0.85616966  0.07846426  1
  O  O105  1  0.36504150  0.85420496  0.57494674  1
  O  O106  1  0.50515018  0.64422376  0.57585483  1
  O  O107  1  0.13989681  0.49761276  0.57557328  1
  O  O108  1  0.30469119  0.83556365  0.25484411  1
  O  O109  1  0.52992180  0.69896107  0.25519161  1
  O  O110  1  0.17175867  0.48347000  0.25322248  1
  O  O111  1  0.30340744  0.47163060  0.75408917  1
  O  O112  1  0.16383687  0.69333304  0.75352394  1
  O  O113  1  0.51439958  0.83070180  0.75110834  1
