# generated using pymatgen
data_Na10Y2Nb6Si11SO48
_symmetry_space_group_name_H-M   'P 1'
_cell_length_a   18.30848659
_cell_length_b   9.15123747
_cell_length_c   22.89369301
_cell_angle_alpha   89.95585167
_cell_angle_beta   90.18884395
_cell_angle_gamma   119.97393475
_symmetry_Int_Tables_number   1
_chemical_formula_structural   Na10Y2Nb6Si11SO48
_chemical_formula_sum   'Na30 Y6 Nb18 Si33 S3 O144'
_cell_volume   3322.69275959
_cell_formula_units_Z   3
loop_
 _symmetry_equiv_pos_site_id
 _symmetry_equiv_pos_as_xyz
  1  'x, y, z'
loop_
 _atom_site_type_symbol
 _atom_site_label
 _atom_site_symmetry_multiplicity
 _atom_site_fract_x
 _atom_site_fract_y
 _atom_site_fract_z
 _atom_site_occupancy
  Na  Na0  1  0.31709463  0.99007575  0.25295142  1
  Na  Na1  1  0.81869166  0.99102173  0.25255674  1
  Na  Na2  1  0.81687086  0.64137064  0.74753973  1
  Na  Na3  1  0.18378730  0.98660074  0.74948118  1
  Na  Na4  1  0.68024633  0.00126065  0.74878607  1
  Na  Na5  1  0.01927743  0.71124067  0.58470639  1
  Na  Na6  1  0.83378263  0.96038656  0.58413935  1
  Na  Na7  1  0.64813032  0.96790462  0.08265001  1
  Na  Na8  1  0.33601494  0.71069484  0.08594107  1
  Na  Na9  1  0.83730533  0.71106195  0.08777249  1
  Na  Na10  1  0.01940711  0.32672421  0.08634610  1
  Na  Na11  1  0.51563965  0.32372055  0.08638779  1
  Na  Na12  1  0.98686214  0.65693088  0.91445504  1
  Na  Na13  1  0.34738965  0.03247999  0.91377768  1
  Na  Na14  1  0.48671407  0.31939191  0.41646670  1
  Na  Na15  1  0.98793250  0.32063482  0.41611305  1
  Na  Na16  1  0.34130146  0.65714366  0.41651035  1
  Na  Na17  1  0.84243053  0.65785185  0.41648657  1
  Na  Na18  1  0.01298240  0.01369483  0.50354117  1
  Na  Na19  1  0.50721750  0.00036452  0.50539220  1
  Na  Na20  1  0.00892545  0.01278696  0.00282739  1
  Na  Na21  1  0.50335337  0.99862635  0.99768546  1
  Na  Na22  1  0.33848817  0.35879568  0.83342456  1
  Na  Na23  1  0.83676274  0.32507332  0.83323759  1
  Na  Na24  1  0.32922356  0.33462026  0.33294896  1
  Na  Na25  1  0.83016971  0.33656194  0.33294938  1
  Na  Na26  1  0.16120488  0.65041620  0.17224048  1
  Na  Na27  1  0.66248784  0.64005661  0.17476698  1
  Na  Na28  1  0.17294905  0.66841324  0.66905100  1
  Na  Na29  1  0.65592814  0.64641570  0.66341190  1
  Y  Y30  1  -0.00015498  0.00307105  0.64526783  1
  Y  Y31  1  0.00442487  0.00084164  0.14487048  1
  Y  Y32  1  0.49857000  0.00239016  0.14697077  1
  Y  Y33  1  0.16311443  0.65398860  0.31812690  1
  Y  Y34  1  0.66374279  0.65590428  0.31782620  1
  Y  Y35  1  0.16967158  0.66711281  0.81640267  1
  Nb  Nb36  1  0.99351351  0.99635681  0.35523703  1
  Nb  Nb37  1  0.49239360  0.99662426  0.35489482  1
  Nb  Nb38  1  0.99142231  0.99154038  0.85679759  1
  Nb  Nb39  1  0.49977075  0.99751357  0.85410943  1
  Nb  Nb40  1  0.49967698  0.00162568  0.64519386  1
  Nb  Nb41  1  0.34195118  0.33664020  0.68421108  1
  Nb  Nb42  1  0.83524973  0.33710124  0.68749167  1
  Nb  Nb43  1  0.33914594  0.34555978  0.18571740  1
  Nb  Nb44  1  0.84089459  0.34915946  0.18600088  1
  Nb  Nb45  1  0.33317169  0.33796960  0.97843796  1
  Nb  Nb46  1  0.82962296  0.32245282  0.97636803  1
  Nb  Nb47  1  0.33315033  0.33311979  0.48366504  1
  Nb  Nb48  1  0.82855098  0.32662588  0.48231256  1
  Nb  Nb49  1  0.16756721  0.67025311  0.01893694  1
  Nb  Nb50  1  0.66709033  0.66629934  0.01860581  1
  Nb  Nb51  1  0.16962541  0.66827111  0.52155656  1
  Nb  Nb52  1  0.66201964  0.66164763  0.52065110  1
  Nb  Nb53  1  0.66083702  0.66097881  0.81313015  1
  Si  Si54  1  0.35104287  0.69821734  0.24780983  1
  Si  Si55  1  0.85260764  0.70260768  0.24712775  1
  Si  Si56  1  0.99831452  0.29567208  0.24682253  1
  Si  Si57  1  0.49767458  0.29865971  0.24743105  1
  Si  Si58  1  0.64208695  0.28868943  0.74953049  1
  Si  Si59  1  0.99931729  0.70352062  0.74897262  1
  Si  Si60  1  0.49629896  0.71058405  0.74966414  1
  Si  Si61  1  0.35739248  0.00439214  0.74882369  1
  Si  Si62  1  0.85127865  0.00088071  0.74981877  1
  Si  Si63  1  0.48144958  0.33278286  0.58155985  1
  Si  Si64  1  0.98016860  0.34251020  0.58213329  1
  Si  Si65  1  0.19181429  0.04150486  0.58475017  1
  Si  Si66  1  0.68684754  0.04024217  0.58587546  1
  Si  Si67  1  0.33341446  0.62219372  0.58489839  1
  Si  Si68  1  0.82770056  0.61738320  0.58282754  1
  Si  Si69  1  0.48151418  0.61955684  0.08130973  1
  Si  Si70  1  0.97955614  0.61851367  0.07768394  1
  Si  Si71  1  0.32833129  0.04392390  0.08188549  1
  Si  Si72  1  0.82946246  0.04316401  0.08377667  1
  Si  Si73  1  0.19210669  0.34004720  0.08149767  1
  Si  Si74  1  0.69310951  0.34056373  0.08141554  1
  Si  Si75  1  0.31645365  0.66917090  0.91780054  1
  Si  Si76  1  0.80794762  0.66005926  0.91516103  1
  Si  Si77  1  0.02075470  0.37152990  0.91810333  1
  Si  Si78  1  0.52109181  0.37377328  0.91711291  1
  Si  Si79  1  0.16634459  0.96454713  0.91541188  1
  Si  Si80  1  0.66412466  0.95311003  0.91589010  1
  Si  Si81  1  0.31054055  0.96549121  0.41536061  1
  Si  Si82  1  0.81048666  0.96162112  0.41662308  1
  Si  Si83  1  0.16686811  0.36859808  0.41926092  1
  Si  Si84  1  0.66568907  0.36821311  0.41814083  1
  Si  Si85  1  0.01853038  0.66779685  0.42041671  1
  Si  Si86  1  0.51845017  0.66968186  0.41843117  1
  S  S87  1  0.14929541  0.00901339  0.25238036  1
  S  S88  1  0.64926408  0.00942971  0.25047459  1
  S  S89  1  0.14853674  0.28691395  0.75190538  1
  O  O90  1  0.10344430  0.02236731  0.30395795  1
  O  O91  1  0.60128781  0.02058454  0.30098741  1
  O  O92  1  0.41416962  0.80661646  0.30633965  1
  O  O93  1  0.91469150  0.80706146  0.30616111  1
  O  O94  1  0.48824398  0.16726957  0.30452803  1
  O  O95  1  0.98787328  0.16656673  0.30484134  1
  O  O96  1  0.10282124  0.17910642  0.80348026  1
  O  O97  1  0.59598722  0.16391217  0.80602622  1
  O  O98  1  0.48551396  0.80614157  0.80748950  1
  O  O99  1  0.98679932  0.80784373  0.80650406  1
  O  O100  1  0.41337795  0.02398930  0.80890419  1
  O  O101  1  0.91581877  0.02292065  0.80528094  1
  O  O102  1  0.41165224  0.99080282  0.69366921  1
  O  O103  1  0.88268235  0.95493444  0.69090156  1
  O  O104  1  0.10086592  0.21136387  0.69783343  1
  O  O105  1  0.58581776  0.19618874  0.69163945  1
  O  O106  1  0.00987470  0.80912088  0.69043456  1
  O  O107  1  0.51683395  0.83838383  0.69425087  1
  O  O108  1  0.39407752  0.79914603  0.18862706  1
  O  O109  1  0.89533392  0.80402477  0.18822418  1
  O  O110  1  0.00529529  0.21085255  0.18745096  1
  O  O111  1  0.50727268  0.21879331  0.18738590  1
  O  O112  1  0.10247928  0.98871993  0.19798025  1
  O  O113  1  0.60471735  0.99100829  0.19454731  1
  O  O114  1  0.43215172  0.35801177  0.63875728  1
  O  O115  1  0.92836576  0.36215272  0.63994027  1
  O  O116  1  0.24760421  0.13655766  0.64438868  1
  O  O117  1  0.74776316  0.13278739  0.64372214  1
  O  O118  1  0.32111944  0.49674557  0.64062864  1
  O  O119  1  0.81911745  0.50375414  0.64235661  1
  O  O120  1  0.43416616  0.50086462  0.14069169  1
  O  O121  1  0.93164696  0.49604439  0.13760942  1
  O  O122  1  0.32008535  0.13850575  0.14166909  1
  O  O123  1  0.81478312  0.13201146  0.14234797  1
  O  O124  1  0.25294675  0.36210570  0.13950817  1
  O  O125  1  0.75355306  0.36554021  0.13917510  1
  O  O126  1  0.24441818  0.32676212  0.02597653  1
  O  O127  1  0.74178876  0.32282494  0.02438180  1
  O  O128  1  0.42089001  0.51589405  0.02731279  1
  O  O129  1  0.91923197  0.51682879  0.02215148  1
  O  O130  1  0.34222748  0.16326219  0.02504866  1
  O  O131  1  0.83565271  0.16204317  0.02793142  1
  O  O132  1  0.24670486  0.16579644  0.53058586  1
  O  O133  1  0.73808398  0.15824221  0.52952295  1
  O  O134  1  0.34680913  0.53292892  0.52681675  1
  O  O135  1  0.83631336  0.51603295  0.52703636  1
  O  O136  1  0.42583112  0.31563528  0.52387761  1
  O  O137  1  0.92132867  0.32723309  0.52585893  1
  O  O138  1  0.26649519  0.69829586  0.97449652  1
  O  O139  1  0.76402629  0.68920530  0.97387344  1
  O  O140  1  0.08160131  0.46381882  0.97642362  1
  O  O141  1  0.58097944  0.47031167  0.97530339  1
  O  O142  1  0.15004498  0.82664310  0.96964272  1
  O  O143  1  0.65383397  0.83580102  0.97460866  1
  O  O144  1  0.26218321  0.82862898  0.46912080  1
  O  O145  1  0.76478441  0.83187597  0.47235727  1
  O  O146  1  0.14832499  0.46718629  0.47378796  1
  O  O147  1  0.64831449  0.46810582  0.47307078  1
  O  O148  1  0.08005829  0.69607861  0.47788709  1
  O  O149  1  0.58211129  0.69638116  0.47494958  1
  O  O150  1  0.05057644  0.60629572  0.36602921  1
  O  O151  1  0.55080411  0.60910635  0.36428443  1
  O  O152  1  0.26408448  0.90264618  0.35411295  1
  O  O153  1  0.76327746  0.89995056  0.35552529  1
  O  O154  1  0.19802039  0.49192737  0.36397124  1
  O  O155  1  0.69695983  0.49204756  0.36321464  1
  O  O156  1  0.05425176  0.49808888  0.86409803  1
  O  O157  1  0.57099989  0.49834369  0.86130446  1
  O  O158  1  0.19170050  0.90394180  0.85704108  1
  O  O159  1  0.67564315  0.85742172  0.85905470  1
  O  O160  1  0.26206271  0.62836541  0.86011887  1
  O  O161  1  0.75079514  0.64130204  0.85775134  1
  O  O162  1  0.00846356  0.83688133  0.40948329  1
  O  O163  1  0.50914095  0.83926456  0.40946521  1
  O  O164  1  0.40603686  0.97525512  0.41041905  1
  O  O165  1  0.90639494  0.97463167  0.41050938  1
  O  O166  1  0.07857973  0.18763743  0.40884817  1
  O  O167  1  0.57740867  0.18756330  0.40864408  1
  O  O168  1  0.01198758  0.18398393  0.90814869  1
  O  O169  1  0.51209457  0.18783202  0.90988452  1
  O  O170  1  0.07722270  0.96826596  0.90958065  1
  O  O171  1  0.58070293  0.97268452  0.90941909  1
  O  O172  1  0.40737579  0.84936562  0.91362680  1
  O  O173  1  0.90359361  0.83084550  0.90873910  1
  O  O174  1  0.49020377  0.16530692  0.58909052  1
  O  O175  1  0.98140183  0.16888074  0.58269975  1
  O  O176  1  0.09757522  0.01207161  0.58249962  1
  O  O177  1  0.59420640  0.02160201  0.59071941  1
  O  O178  1  0.41662082  0.80969107  0.59328395  1
  O  O179  1  0.91237215  0.80067743  0.58186043  1
  O  O180  1  0.49408834  0.80615304  0.08237938  1
  O  O181  1  0.98339873  0.79665631  0.07995857  1
  O  O182  1  0.41095849  0.02049102  0.08197636  1
  O  O183  1  0.91178984  0.02302745  0.08190404  1
  O  O184  1  0.09776522  0.18386884  0.08067390  1
  O  O185  1  0.60122761  0.17385228  0.08231302  1
  O  O186  1  0.34872534  0.17787579  0.74270307  1
  O  O187  1  0.83971245  0.16808940  0.74630289  1
  O  O188  1  0.23174536  0.29045133  0.74978850  1
  O  O189  1  0.73642612  0.30698064  0.74335771  1
  O  O190  1  0.41338140  0.52265878  0.74213894  1
  O  O191  1  0.90759924  0.52030134  0.74632574  1
  O  O192  1  0.34513301  0.51121929  0.24528896  1
  O  O193  1  0.84616244  0.51401643  0.24445223  1
  O  O194  1  0.40352994  0.28805076  0.24646143  1
  O  O195  1  0.90418646  0.28887717  0.24527838  1
  O  O196  1  0.23372930  0.16682067  0.24989918  1
  O  O197  1  0.73361940  0.16739603  0.24946603  1
  O  O198  1  0.33344854  0.51169698  0.92861185  1
  O  O199  1  0.82615474  0.50276938  0.92042272  1
  O  O200  1  0.42594661  0.34545977  0.92197653  1
  O  O201  1  0.92488115  0.34355717  0.92853106  1
  O  O202  1  0.24879379  0.14968994  0.92867594  1
  O  O203  1  0.74877650  0.13967297  0.92227555  1
  O  O204  1  0.33520703  0.16147475  0.42701629  1
  O  O205  1  0.83442957  0.15760306  0.42799213  1
  O  O206  1  0.24755982  0.34113227  0.43227621  1
  O  O207  1  0.74556870  0.33834106  0.42990612  1
  O  O208  1  0.42217455  0.51090960  0.42922693  1
  O  O209  1  0.92038722  0.50992510  0.42993152  1
  O  O210  1  0.18885816  0.51763991  0.07734677  1
  O  O211  1  0.68616806  0.51363477  0.07696119  1
  O  O212  1  0.07006708  0.62253514  0.07605249  1
  O  O213  1  0.57350089  0.62823218  0.07779167  1
  O  O214  1  0.24384280  0.85446659  0.07565301  1
  O  O215  1  0.74302681  0.85546213  0.07653746  1
  O  O216  1  0.18519574  0.85574223  0.57655251  1
  O  O217  1  0.68446649  0.85864888  0.57724142  1
  O  O218  1  0.24815209  0.63745821  0.57508484  1
  O  O219  1  0.74503102  0.64217208  0.57731670  1
  O  O220  1  0.07163209  0.51693282  0.57889416  1
  O  O221  1  0.57347097  0.50603706  0.57738059  1
  O  O222  1  0.16284937  0.86345126  0.25643590  1
  O  O223  1  0.66256835  0.86356389  0.25482144  1
  O  O224  1  0.26288553  0.69531864  0.25268282  1
  O  O225  1  0.76342261  0.69589080  0.25221962  1
  O  O226  1  0.07462054  0.48432741  0.25191524  1
  O  O227  1  0.57469820  0.48619735  0.25241344  1
  O  O228  1  0.16130550  0.45752556  0.75570801  1
  O  O229  1  0.65698075  0.48165312  0.75678597  1
  O  O230  1  0.08171428  0.68575243  0.75347902  1
  O  O231  1  0.58272856  0.69552052  0.75815480  1
  O  O232  1  0.26318339  0.84581042  0.74732462  1
  O  O233  1  0.75681411  0.83461592  0.76196119  1
