# generated using pymatgen
data_Na3Zn2P(SO6)2
_symmetry_space_group_name_H-M   'P 1'
_cell_length_a   8.97990190
_cell_length_b   8.97243607
_cell_length_c   22.12218444
_cell_angle_alpha   89.77552423
_cell_angle_beta   90.00000000
_cell_angle_gamma   120.02752899
_symmetry_Int_Tables_number   1
_chemical_formula_structural   Na3Zn2P(SO6)2
_chemical_formula_sum   'Na18 Zn12 P6 S12 O72'
_cell_volume   1543.17656132
_cell_formula_units_Z   6
loop_
 _symmetry_equiv_pos_site_id
 _symmetry_equiv_pos_as_xyz
  1  'x, y, z'
loop_
 _atom_site_type_symbol
 _atom_site_label
 _atom_site_symmetry_multiplicity
 _atom_site_fract_x
 _atom_site_fract_y
 _atom_site_fract_z
 _atom_site_occupancy
  Na  Na0  1  0.62919698  0.00075174  0.25306283  1
  Na  Na1  1  0.00778157  0.64063403  0.24554063  1
  Na  Na2  1  0.63285246  0.64063403  0.74554063  1
  Na  Na3  1  0.37155476  0.00075174  0.75306283  1
  Na  Na4  1  0.30835378  0.33894301  0.58490312  1
  Na  Na5  1  0.66622516  0.95923669  0.58334929  1
  Na  Na6  1  0.29301253  0.95923669  0.08334929  1
  Na  Na7  1  0.03059024  0.33894301  0.08490312  1
  Na  Na8  1  0.97343489  0.67117605  0.92185590  1
  Na  Na9  1  0.69335265  0.03127236  0.91138490  1
  Na  Na10  1  0.33791871  0.03127236  0.41138490  1
  Na  Na11  1  0.69774016  0.67117605  0.42185590  1
  Na  Na12  1  0.98667608  0.99241624  0.49985235  1
  Na  Na13  1  0.00574016  0.99241624  0.99985235  1
  Na  Na14  1  0.66164508  0.32075093  0.83325244  1
  Na  Na15  1  0.65910685  0.32075093  0.33325244  1
  Na  Na16  1  0.33922060  0.65967337  0.16678127  1
  Na  Na17  1  0.32045177  0.65967337  0.66678127  1
  Zn  Zn18  1  0.00514969  0.01176071  0.34668202  1
  Zn  Zn19  1  0.00661101  0.01176071  0.84668202  1
  Zn  Zn20  1  0.98045622  0.97984883  0.65251675  1
  Zn  Zn21  1  0.99939261  0.97984883  0.15251675  1
  Zn  Zn22  1  0.67927870  0.33569440  0.67997260  1
  Zn  Zn23  1  0.65641671  0.33569440  0.17997260  1
  Zn  Zn24  1  0.65688814  0.33606686  0.98665230  1
  Zn  Zn25  1  0.67917972  0.33606686  0.48665230  1
  Zn  Zn26  1  0.32496624  0.67031930  0.01280348  1
  Zn  Zn27  1  0.34535206  0.67031930  0.51280348  1
  Zn  Zn28  1  0.33771922  0.67923626  0.32100702  1
  Zn  Zn29  1  0.34151604  0.67923626  0.82100702  1
  P  P30  1  0.30129436  0.00247443  0.25087838  1
  P  P31  1  0.70118007  0.00247443  0.75087838  1
  P  P32  1  0.66685709  0.62742774  0.58277191  1
  P  P33  1  0.96057165  0.62742774  0.08277191  1
  P  P34  1  0.33328871  0.97236052  0.91686637  1
  P  P35  1  0.63907081  0.97236052  0.41686637  1
  S  S36  1  0.70139586  0.70207559  0.25167554  1
  S  S37  1  0.00207741  0.29850860  0.24787224  1
  S  S38  1  0.29643119  0.29850860  0.74787224  1
  S  S39  1  0.00067973  0.70207559  0.75167554  1
  S  S40  1  0.96885532  0.33595378  0.58323965  1
  S  S41  1  0.36526478  0.03435723  0.58364571  1
  S  S42  1  0.66909345  0.03435723  0.08364571  1
  S  S43  1  0.36709946  0.33595378  0.08323965  1
  S  S44  1  0.62697522  0.66365959  0.91615658  1
  S  S45  1  0.03950482  0.36967660  0.91703278  1
  S  S46  1  0.33017078  0.36967660  0.41703278  1
  S  S47  1  0.03668337  0.66365959  0.41615658  1
  O  O48  1  0.21600596  0.02101499  0.30896049  1
  O  O49  1  0.80494183  0.77956411  0.30742422  1
  O  O50  1  0.97298376  0.18682018  0.30110453  1
  O  O51  1  0.21383642  0.18682018  0.80110453  1
  O  O52  1  0.97462228  0.77956411  0.80742422  1
  O  O53  1  0.80500904  0.02101499  0.80896049  1
  O  O54  1  0.78229541  0.97360018  0.69348170  1
  O  O55  1  0.19973150  0.21926927  0.69145512  1
  O  O56  1  0.03404657  0.81670340  0.69855058  1
  O  O57  1  0.78265682  0.81670340  0.19855058  1
  O  O58  1  0.01953777  0.21926927  0.19145512  1
  O  O59  1  0.19130476  0.97360018  0.19348170  1
  O  O60  1  0.89044790  0.35739255  0.63864995  1
  O  O61  1  0.47466412  0.11480910  0.63811104  1
  O  O62  1  0.64109824  0.51709755  0.64020826  1
  O  O63  1  0.87600032  0.51709755  0.14020826  1
  O  O64  1  0.64014597  0.11480910  0.13811104  1
  O  O65  1  0.46694565  0.35739255  0.13864995  1
  O  O66  1  0.44511449  0.30341902  0.02959214  1
  O  O67  1  0.85900722  0.54192784  0.02447017  1
  O  O68  1  0.69420140  0.14090464  0.02847754  1
  O  O69  1  0.44670424  0.14090464  0.52847754  1
  O  O70  1  0.68292162  0.54192784  0.52447017  1
  O  O71  1  0.85830553  0.30341902  0.52959214  1
  O  O72  1  0.53685372  0.68366022  0.96860260  1
  O  O73  1  0.13426165  0.44325317  0.97432835  1
  O  O74  1  0.30052944  0.85727517  0.97398205  1
  O  O75  1  0.55674473  0.85727517  0.47398205  1
  O  O76  1  0.30899052  0.44325317  0.47432835  1
  O  O77  1  0.14680550  0.68366022  0.46860260  1
  O  O78  1  0.11059887  0.64253424  0.35883421  1
  O  O79  1  0.52487760  0.89109790  0.35985704  1
  O  O80  1  0.35044331  0.48049780  0.36449626  1
  O  O81  1  0.13005349  0.48049780  0.86449626  1
  O  O82  1  0.36621930  0.89109790  0.85985704  1
  O  O83  1  0.53193437  0.64253424  0.85883421  1
  O  O84  1  0.02338333  0.82445696  0.41401278  1
  O  O85  1  0.81556302  0.98072144  0.41024375  1
  O  O86  1  0.18025609  0.19167807  0.41271058  1
  O  O87  1  0.01142197  0.19167807  0.91271058  1
  O  O88  1  0.16515842  0.98072144  0.91024375  1
  O  O89  1  0.80107363  0.82445696  0.91401278  1
  O  O90  1  0.98965947  0.17959005  0.58750829  1
  O  O91  1  0.19542267  0.02470465  0.58961290  1
  O  O92  1  0.82469964  0.81320199  0.58597582  1
  O  O93  1  0.98850235  0.81320199  0.08597582  1
  O  O94  1  0.82928198  0.02470465  0.08961290  1
  O  O95  1  0.18993058  0.17959005  0.08750829  1
  O  O96  1  0.67273402  0.15962676  0.74554805  1
  O  O97  1  0.47310287  0.31762794  0.74571922  1
  O  O98  1  0.84001343  0.53289663  0.74503971  1
  O  O99  1  0.69288420  0.53289663  0.24503971  1
  O  O100  1  0.84452607  0.31762794  0.24571922  1
  O  O101  1  0.48689375  0.15962676  0.24554805  1
  O  O102  1  0.65551853  0.51406380  0.92066064  1
  O  O103  1  0.86554756  0.35603351  0.91900246  1
  O  O104  1  0.50208043  0.14885957  0.92335884  1
  O  O105  1  0.64678014  0.14885957  0.42335884  1
  O  O106  1  0.49048695  0.35603351  0.41900246  1
  O  O107  1  0.85854627  0.51406380  0.42066064  1
  O  O108  1  0.34718648  0.49034842  0.07696915  1
  O  O109  1  0.14448861  0.64444152  0.08062532  1
  O  O110  1  0.51315971  0.86086650  0.07866655  1
  O  O111  1  0.34770579  0.86086650  0.57866655  1
  O  O112  1  0.49995191  0.64444152  0.58062532  1
  O  O113  1  0.14316094  0.49034842  0.57696915  1
  O  O114  1  0.31626003  0.83434852  0.25404014  1
  O  O115  1  0.52727138  0.68274380  0.25615395  1
  O  O116  1  0.15574991  0.47337370  0.25380957  1
  O  O117  1  0.31762280  0.47337370  0.75380957  1
  O  O118  1  0.15547141  0.68274380  0.75615395  1
  O  O119  1  0.51808749  0.83434852  0.75404014  1
