# generated using pymatgen
data_Na7Sc2Ga2SiP5O24
_symmetry_space_group_name_H-M   'P 1'
_cell_length_a   8.94242039
_cell_length_b   8.93210309
_cell_length_c   22.24390230
_cell_angle_alpha   90.21623106
_cell_angle_beta   89.64262709
_cell_angle_gamma   119.94144044
_symmetry_Int_Tables_number   1
_chemical_formula_structural   Na7Sc2Ga2SiP5O24
_chemical_formula_sum   'Na21 Sc6 Ga6 Si3 P15 O72'
_cell_volume   1539.56423738
_cell_formula_units_Z   3
loop_
 _symmetry_equiv_pos_site_id
 _symmetry_equiv_pos_as_xyz
  1  'x, y, z'
loop_
 _atom_site_type_symbol
 _atom_site_label
 _atom_site_symmetry_multiplicity
 _atom_site_fract_x
 _atom_site_fract_y
 _atom_site_fract_z
 _atom_site_occupancy
  Na  Na0  1  0.36593672  0.36739789  0.25081270  1
  Na  Na1  1  0.99924297  0.63279981  0.24964392  1
  Na  Na2  1  0.63498991  0.63858941  0.75002332  1
  Na  Na3  1  0.99727073  0.36188777  0.75134483  1
  Na  Na4  1  0.36810018  0.99935495  0.74978123  1
  Na  Na5  1  0.30244560  0.33041457  0.58199561  1
  Na  Na6  1  0.03478490  0.70094552  0.58230013  1
  Na  Na7  1  0.66327270  0.96733428  0.58419421  1
  Na  Na8  1  0.29983907  0.96642159  0.08341199  1
  Na  Na9  1  0.66954526  0.69843668  0.08310741  1
  Na  Na10  1  0.03183701  0.33628829  0.08382463  1
  Na  Na11  1  0.96599766  0.66578087  0.91785266  1
  Na  Na12  1  0.70057316  0.03294572  0.91558090  1
  Na  Na13  1  0.96741971  0.29930897  0.41566900  1
  Na  Na14  1  0.33416126  0.03388756  0.41704470  1
  Na  Na15  1  0.99658797  0.99337791  0.49849180  1
  Na  Na16  1  0.00649099  0.00393564  0.00028482  1
  Na  Na17  1  0.66022865  0.33022758  0.83392609  1
  Na  Na18  1  0.66666109  0.33330495  0.33324972  1
  Na  Na19  1  0.33722662  0.67299111  0.16745860  1
  Na  Na20  1  0.33682844  0.67144494  0.66662819  1
  Sc  Sc21  1  0.00256797  0.00701437  0.85229790  1
  Sc  Sc22  1  0.99844266  0.99899105  0.65043049  1
  Sc  Sc23  1  0.66322635  0.32464669  0.68293395  1
  Sc  Sc24  1  0.67163094  0.33079588  0.18467551  1
  Sc  Sc25  1  0.66422325  0.33807530  0.98260211  1
  Sc  Sc26  1  0.66214609  0.33632848  0.48047827  1
  Ga  Ga27  1  0.99183612  0.99315930  0.34975977  1
  Ga  Ga28  1  0.99728384  0.99355059  0.15158689  1
  Ga  Ga29  1  0.32773839  0.66474844  0.01623971  1
  Ga  Ga30  1  0.33664164  0.67306448  0.51483705  1
  Ga  Ga31  1  0.34147522  0.67350773  0.31686078  1
  Ga  Ga32  1  0.33922159  0.67004234  0.81743124  1
  Si  Si33  1  0.69901746  0.99564635  0.75187342  1
  Si  Si34  1  0.36875597  0.03130304  0.58112365  1
  Si  Si35  1  0.96750139  0.63427250  0.08340294  1
  P  P36  1  0.28803002  0.99663390  0.25196726  1
  P  P37  1  0.70749838  0.71462721  0.25117626  1
  P  P38  1  0.00147289  0.28769857  0.25150798  1
  P  P39  1  0.29448674  0.29868260  0.75087364  1
  P  P40  1  0.00284422  0.70470545  0.75156589  1
  P  P41  1  0.96526876  0.33747864  0.58140134  1
  P  P42  1  0.66309525  0.62719135  0.58271830  1
  P  P43  1  0.66696362  0.03634599  0.08259749  1
  P  P44  1  0.36937749  0.33314468  0.08433910  1
  P  P45  1  0.61729655  0.66317811  0.91693623  1
  P  P46  1  0.04912215  0.38027007  0.91654035  1
  P  P47  1  0.33390218  0.95507003  0.91680759  1
  P  P48  1  0.62601933  0.95178118  0.41538945  1
  P  P49  1  0.33127517  0.37893545  0.41505200  1
  P  P50  1  0.04593306  0.67061199  0.41461948  1
  O  O51  1  0.20430661  0.03167131  0.30792983  1
  O  O52  1  0.82990867  0.79639358  0.30504380  1
  O  O53  1  0.97404351  0.17679357  0.30814236  1
  O  O54  1  0.21181005  0.17649405  0.80430665  1
  O  O55  1  0.96967283  0.78770316  0.80717602  1
  O  O56  1  0.82469067  0.03469634  0.80956778  1
  O  O57  1  0.78148951  0.95789569  0.69196992  1
  O  O58  1  0.18360478  0.22111619  0.69382826  1
  O  O59  1  0.03856187  0.81832045  0.69505577  1
  O  O60  1  0.78696363  0.82184476  0.19291141  1
  O  O61  1  0.03572346  0.20704931  0.19405076  1
  O  O62  1  0.17471556  0.96294909  0.19456252  1
  O  O63  1  0.88796772  0.37369582  0.63824701  1
  O  O64  1  0.48902445  0.11389031  0.64078282  1
  O  O65  1  0.63022687  0.51727856  0.63992244  1
  O  O66  1  0.88279163  0.50908958  0.14184286  1
  O  O67  1  0.62773930  0.11763485  0.13686944  1
  O  O68  1  0.48323866  0.36848854  0.14055717  1
  O  O69  1  0.45022030  0.29407458  0.02994613  1
  O  O70  1  0.84317973  0.55048578  0.02494178  1
  O  O71  1  0.70226626  0.14982466  0.02615679  1
  O  O72  1  0.45609810  0.15824690  0.52355167  1
  O  O73  1  0.70105969  0.54358138  0.52883275  1
  O  O74  1  0.84863914  0.30314367  0.52633942  1
  O  O75  1  0.53622143  0.69861888  0.97368269  1
  O  O76  1  0.15749771  0.46222078  0.97378365  1
  O  O77  1  0.30139701  0.84066712  0.97360054  1
  O  O78  1  0.54686232  0.84512232  0.47356603  1
  O  O79  1  0.29742551  0.45929583  0.47250519  1
  O  O80  1  0.15841339  0.70355552  0.47201400  1
  O  O81  1  0.12940356  0.63521485  0.35865857  1
  O  O82  1  0.50331325  0.87006531  0.36153444  1
  O  O83  1  0.35901634  0.49002524  0.35845235  1
  O  O84  1  0.12989285  0.49537580  0.85994156  1
  O  O85  1  0.36536206  0.87268775  0.85989983  1
  O  O86  1  0.50982564  0.63728537  0.85979000  1
  O  O87  1  0.03309695  0.83793246  0.40884594  1
  O  O88  1  0.81181576  0.97891602  0.40905685  1
  O  O89  1  0.16592948  0.19449949  0.41032673  1
  O  O90  1  0.02330847  0.19611095  0.91325755  1
  O  O91  1  0.16760115  0.96652359  0.91217421  1
  O  O92  1  0.80054011  0.82764574  0.91304290  1
  O  O93  1  0.98060173  0.17299833  0.58782779  1
  O  O94  1  0.17896624  0.01483819  0.58732853  1
  O  O95  1  0.82567637  0.80872310  0.58757736  1
  O  O96  1  0.98362593  0.82638820  0.09110573  1
  O  O97  1  0.83329355  0.02255351  0.09059656  1
  O  O98  1  0.18600722  0.17072694  0.09121668  1
  O  O99  1  0.68503107  0.17132809  0.74710720  1
  O  O100  1  0.47685760  0.32067690  0.74502314  1
  O  O101  1  0.83838920  0.52600384  0.74506876  1
  O  O102  1  0.68881097  0.53153336  0.24572967  1
  O  O103  1  0.84327530  0.31319897  0.24673351  1
  O  O104  1  0.46518893  0.16225405  0.24571325  1
  O  O105  1  0.64334038  0.50532259  0.92053134  1
  O  O106  1  0.86598982  0.36106214  0.92077062  1
  O  O107  1  0.49932041  0.13238224  0.92167390  1
  O  O108  1  0.64509857  0.13515102  0.42053108  1
  O  O109  1  0.48966750  0.35345407  0.41946638  1
  O  O110  1  0.86850561  0.50467151  0.42054968  1
  O  O111  1  0.35540137  0.49960608  0.07634707  1
  O  O112  1  0.15932215  0.65038121  0.07608751  1
  O  O113  1  0.50467240  0.85289921  0.07596444  1
  O  O114  1  0.35289503  0.83956603  0.57503383  1
  O  O115  1  0.49739497  0.64134548  0.57540775  1
  O  O116  1  0.14784279  0.49973860  0.57507238  1
  O  O117  1  0.30033775  0.82881674  0.25777774  1
  O  O118  1  0.52175646  0.68770875  0.25754785  1
  O  O119  1  0.16714201  0.47207245  0.25630605  1
  O  O120  1  0.30790827  0.47833552  0.75791946  1
  O  O121  1  0.16532899  0.68471754  0.75756989  1
  O  O122  1  0.50708411  0.82080848  0.75775995  1
