# generated using pymatgen
data_Na3MgVH6O7
_symmetry_space_group_name_H-M   'P 1'
_cell_length_a   5.97242732
_cell_length_b   5.86074908
_cell_length_c   5.88740079
_cell_angle_alpha   105.28910648
_cell_angle_beta   88.89413191
_cell_angle_gamma   103.98959702
_symmetry_Int_Tables_number   1
_chemical_formula_structural   Na3MgVH6O7
_chemical_formula_sum   'Na3 Mg1 V1 H6 O7'
_cell_volume   192.66900536
_cell_formula_units_Z   1
loop_
 _symmetry_equiv_pos_site_id
 _symmetry_equiv_pos_as_xyz
  1  'x, y, z'
loop_
 _atom_site_type_symbol
 _atom_site_label
 _atom_site_symmetry_multiplicity
 _atom_site_fract_x
 _atom_site_fract_y
 _atom_site_fract_z
 _atom_site_occupancy
  Na  Na0  1  0.69388312  0.49542309  0.24646965  1
  Na  Na1  1  0.46885583  0.21032798  0.80434617  1
  Na  Na2  1  0.20921690  0.50041724  0.46329488  1
  Mg  Mg3  1  0.21443810  0.93497948  0.32194549  1
  V  V4  1  0.00464183  0.99340817  0.94109638  1
  H  H5  1  0.90315002  0.49152299  0.79887177  1
  H  H6  1  0.50296610  0.74357138  0.87842536  1
  H  H7  1  0.62160351  0.91300081  0.49068559  1
  H  H8  1  0.92235129  0.22977829  0.63058775  1
  H  H9  1  0.24600831  0.61728596  0.92746855  1
  H  H10  1  0.63313533  0.98932710  0.14990571  1
  O  O11  1  0.24980868  0.19442668  0.16052002  1
  O  O12  1  0.01009724  0.69802001  0.04889705  1
  O  O13  1  0.69654613  0.05403037  0.01590293  1
  O  O14  1  0.07044743  0.00652284  0.62559362  1
  O  O15  1  0.84511788  0.36859724  0.63914509  1
  O  O16  1  0.38625157  0.58533402  0.83292987  1
  O  O17  1  0.49449674  0.82561434  0.37550213  1
