# generated using pymatgen
data_Na3Zn2Sn2P3(SO8)3
_symmetry_space_group_name_H-M   'P 1'
_cell_length_a   8.79293068
_cell_length_b   8.79257383
_cell_length_c   22.74769507
_cell_angle_alpha   90.22827303
_cell_angle_beta   89.56436350
_cell_angle_gamma   120.01281534
_symmetry_Int_Tables_number   1
_chemical_formula_structural   Na3Zn2Sn2P3(SO8)3
_chemical_formula_sum   'Na9 Zn6 Sn6 P9 S9 O72'
_cell_volume   1522.82164871
_cell_formula_units_Z   3
loop_
 _symmetry_equiv_pos_site_id
 _symmetry_equiv_pos_as_xyz
  1  'x, y, z'
loop_
 _atom_site_type_symbol
 _atom_site_label
 _atom_site_symmetry_multiplicity
 _atom_site_fract_x
 _atom_site_fract_y
 _atom_site_fract_z
 _atom_site_occupancy
  Na  Na0  1  0.66051990  0.68798451  0.08121493  1
  Na  Na1  1  0.33294625  0.29672085  0.91707000  1
  Na  Na2  1  0.33234176  0.03572057  0.41721579  1
  Na  Na3  1  0.99420454  0.00011847  0.49866177  1
  Na  Na4  1  0.00438033  0.99703202  0.99802456  1
  Na  Na5  1  0.67901669  0.33402931  0.83318429  1
  Na  Na6  1  0.67887742  0.34402670  0.33283431  1
  Na  Na7  1  0.31512827  0.65819854  0.16416508  1
  Na  Na8  1  0.33448496  0.67451053  0.66362448  1
  Zn  Zn9  1  0.99513653  0.00176462  0.34272284  1
  Zn  Zn10  1  0.99295868  0.99297304  0.84230749  1
  Zn  Zn11  1  0.67282439  0.34034634  0.98779244  1
  Zn  Zn12  1  0.66448111  0.33229026  0.48696651  1
  Zn  Zn13  1  0.31338297  0.65595086  0.02060718  1
  Zn  Zn14  1  0.33447859  0.67590925  0.52030957  1
  Sn  Sn15  1  0.00704417  0.00085923  0.65174931  1
  Sn  Sn16  1  0.01160596  0.00398214  0.15223698  1
  Sn  Sn17  1  0.66142407  0.32705473  0.68562720  1
  Sn  Sn18  1  0.66786406  0.33725762  0.18585963  1
  Sn  Sn19  1  0.33242367  0.66261530  0.31296980  1
  Sn  Sn20  1  0.33323717  0.67061790  0.81264025  1
  P  P21  1  0.29860492  0.00137207  0.25340746  1
  P  P22  1  0.70774784  0.70790693  0.25059033  1
  P  P23  1  0.99706849  0.29245492  0.25110392  1
  P  P24  1  0.29462830  0.29526821  0.75297871  1
  P  P25  1  0.99680216  0.70241222  0.75078326  1
  P  P26  1  0.70959295  0.00113338  0.75057296  1
  P  P27  1  0.37016261  0.03747614  0.58129712  1
  P  P28  1  0.96173764  0.62852391  0.08348773  1
  P  P29  1  0.37067146  0.33054610  0.08100732  1
  S  S30  1  0.96093857  0.33190692  0.58286161  1
  S  S31  1  0.66809725  0.62855206  0.58312972  1
  S  S32  1  0.66829345  0.04035347  0.08298061  1
  S  S33  1  0.62878337  0.67064496  0.91814958  1
  S  S34  1  0.03674073  0.37159771  0.91690404  1
  S  S35  1  0.33462614  0.96016866  0.91812648  1
  S  S36  1  0.62941369  0.95897956  0.41764424  1
  S  S37  1  0.33339288  0.37569828  0.41858096  1
  S  S38  1  0.03672328  0.66334248  0.41797030  1
  O  O39  1  0.22512126  0.03214681  0.31011409  1
  O  O40  1  0.81782466  0.78763476  0.30452160  1
  O  O41  1  0.96766510  0.18707659  0.30630973  1
  O  O42  1  0.22154083  0.19181199  0.80960908  1
  O  O43  1  0.96470758  0.77762763  0.80609598  1
  O  O44  1  0.81562819  0.03278249  0.80561590  1
  O  O45  1  0.78695914  0.96746708  0.69323178  1
  O  O46  1  0.18182392  0.21669248  0.69683181  1
  O  O47  1  0.03323922  0.81343944  0.69386497  1
  O  O48  1  0.78178725  0.81378215  0.19180311  1
  O  O49  1  0.03153960  0.21608303  0.19382968  1
  O  O50  1  0.18542644  0.96507751  0.19730822  1
  O  O51  1  0.88171742  0.36111976  0.63761379  1
  O  O52  1  0.48459439  0.12581768  0.63685656  1
  O  O53  1  0.64472669  0.52342449  0.63785379  1
  O  O54  1  0.87935647  0.51573865  0.13980185  1
  O  O55  1  0.64122003  0.11890486  0.13769744  1
  O  O56  1  0.48981541  0.36253580  0.13590866  1
  O  O57  1  0.44396865  0.29655531  0.02421283  1
  O  O58  1  0.84364446  0.55385440  0.02968255  1
  O  O59  1  0.69861272  0.14732123  0.03054871  1
  O  O60  1  0.44503661  0.14486473  0.52467676  1
  O  O61  1  0.70132651  0.55187569  0.53064316  1
  O  O62  1  0.85343813  0.30318229  0.53059986  1
  O  O63  1  0.54507191  0.69129790  0.97187603  1
  O  O64  1  0.15195574  0.45511894  0.96788250  1
  O  O65  1  0.31290491  0.85134591  0.96941082  1
  O  O66  1  0.54366593  0.85037726  0.46958452  1
  O  O67  1  0.31133983  0.46306382  0.47008853  1
  O  O68  1  0.15163247  0.69339245  0.46870771  1
  O  O69  1  0.11677104  0.63460634  0.36217128  1
  O  O70  1  0.51235726  0.87925697  0.36336987  1
  O  O71  1  0.36155265  0.48176362  0.36271731  1
  O  O72  1  0.11806692  0.48149233  0.86180795  1
  O  O73  1  0.36208856  0.88126969  0.86207103  1
  O  O74  1  0.50993467  0.63592325  0.86474022  1
  O  O75  1  0.02679114  0.82653373  0.41149539  1
  O  O76  1  0.80301607  0.97593648  0.41017314  1
  O  O77  1  0.17625145  0.19765470  0.41293654  1
  O  O78  1  0.02696808  0.19856137  0.91047004  1
  O  O79  1  0.17685765  0.97997879  0.91260166  1
  O  O80  1  0.80216295  0.82765066  0.91065406  1
  O  O81  1  0.97108397  0.16595477  0.58951564  1
  O  O82  1  0.18534560  0.02572851  0.58877843  1
  O  O83  1  0.83002951  0.80810249  0.58927686  1
  O  O84  1  0.96638110  0.81090246  0.09088538  1
  O  O85  1  0.82897269  0.02009334  0.08922637  1
  O  O86  1  0.18497952  0.16467801  0.08922472  1
  O  O87  1  0.68845661  0.16575402  0.74335991  1
  O  O88  1  0.47986656  0.31620029  0.74426538  1
  O  O89  1  0.83276113  0.51717650  0.74189509  1
  O  O90  1  0.68504290  0.52143963  0.24450680  1
  O  O91  1  0.83242238  0.31216541  0.24343892  1
  O  O92  1  0.48257421  0.16560199  0.24381890  1
  O  O93  1  0.63801720  0.50555799  0.91977543  1
  O  O94  1  0.86207392  0.35500019  0.92219994  1
  O  O95  1  0.49353990  0.13851080  0.92054611  1
  O  O96  1  0.63965224  0.13388576  0.42109446  1
  O  O97  1  0.49269133  0.35616387  0.42071459  1
  O  O98  1  0.86167278  0.50498814  0.42306418  1
  O  O99  1  0.36150841  0.50108911  0.07847723  1
  O  O100  1  0.14615993  0.65544406  0.07954808  1
  O  O101  1  0.51507820  0.86134421  0.07882657  1
  O  O102  1  0.34908164  0.85383666  0.57927851  1
  O  O103  1  0.51047146  0.64500283  0.57912823  1
  O  O104  1  0.13821741  0.48526416  0.57863169  1
  O  O105  1  0.31737017  0.83427190  0.25635087  1
  O  O106  1  0.52107318  0.68799954  0.25450751  1
  O  O107  1  0.16433796  0.47942415  0.25436810  1
  O  O108  1  0.31535740  0.48211191  0.75590646  1
  O  O109  1  0.16406284  0.68320695  0.75451777  1
  O  O110  1  0.52215375  0.83472555  0.75418762  1
