# generated using pymatgen
data_Na2Nb6Ga2Si7S5O48
_symmetry_space_group_name_H-M   'P 1'
_cell_length_a   17.68121907
_cell_length_b   8.84453503
_cell_length_c   22.82618041
_cell_angle_alpha   90.00299255
_cell_angle_beta   89.88633019
_cell_angle_gamma   120.00981516
_symmetry_Int_Tables_number   1
_chemical_formula_structural   Na2Nb6Ga2Si7S5O48
_chemical_formula_sum   'Na6 Nb18 Ga6 Si21 S15 O144'
_cell_volume   3091.05701770
_cell_formula_units_Z   3
loop_
 _symmetry_equiv_pos_site_id
 _symmetry_equiv_pos_as_xyz
  1  'x, y, z'
loop_
 _atom_site_type_symbol
 _atom_site_label
 _atom_site_symmetry_multiplicity
 _atom_site_fract_x
 _atom_site_fract_y
 _atom_site_fract_z
 _atom_site_occupancy
  Na  Na0  1  0.99958259  0.00136346  0.49714748  1
  Na  Na1  1  0.50013986  0.00291756  0.99414370  1
  Na  Na2  1  0.33529111  0.32897543  0.83212332  1
  Na  Na3  1  0.82844138  0.33108002  0.83490419  1
  Na  Na4  1  0.32949035  0.32724828  0.33969336  1
  Na  Na5  1  0.83406069  0.34177369  0.33736505  1
  Nb  Nb6  1  0.49969770  0.99236715  0.36027042  1
  Nb  Nb7  1  0.99937274  0.00422129  0.85768433  1
  Nb  Nb8  1  0.49753778  0.00197502  0.64130506  1
  Nb  Nb9  1  0.99657898  0.99323888  0.14167282  1
  Nb  Nb10  1  0.32730990  0.33645330  0.68971451  1
  Nb  Nb11  1  0.83100876  0.31492044  0.68868091  1
  Nb  Nb12  1  0.32677227  0.33768083  0.19173795  1
  Nb  Nb13  1  0.82798583  0.31758501  0.19130722  1
  Nb  Nb14  1  0.32939700  0.33333596  0.97266052  1
  Nb  Nb15  1  0.83463749  0.32200009  0.47519318  1
  Nb  Nb16  1  0.17317358  0.67399437  0.02129520  1
  Nb  Nb17  1  0.67257395  0.66949133  0.02045325  1
  Nb  Nb18  1  0.16733531  0.66845186  0.52412603  1
  Nb  Nb19  1  0.67523606  0.67172015  0.52217419  1
  Nb  Nb20  1  0.17084642  0.68931165  0.31215029  1
  Nb  Nb21  1  0.67741298  0.67736656  0.30838121  1
  Nb  Nb22  1  0.17656094  0.67704736  0.80661983  1
  Nb  Nb23  1  0.66938297  0.64966692  0.80976127  1
  Ga  Ga24  1  0.99823030  0.97016307  0.35604755  1
  Ga  Ga25  1  0.49819560  0.02702366  0.85460029  1
  Ga  Ga26  1  0.99533030  0.02899798  0.64964647  1
  Ga  Ga27  1  0.49824866  0.98672139  0.15623296  1
  Ga  Ga28  1  0.83105329  0.32979303  0.98094406  1
  Ga  Ga29  1  0.32961803  0.32997210  0.48117940  1
  Si  Si30  1  0.13600918  0.99873850  0.25233073  1
  Si  Si31  1  0.63672684  0.99209667  0.24945555  1
  Si  Si32  1  0.35764037  0.72168365  0.24937019  1
  Si  Si33  1  0.86148468  0.71512261  0.25018465  1
  Si  Si34  1  0.13796331  0.28070361  0.74935747  1
  Si  Si35  1  0.63998267  0.27160351  0.75178993  1
  Si  Si36  1  0.36232813  0.00965182  0.74986959  1
  Si  Si37  1  0.85725110  0.99616134  0.74945258  1
  Si  Si38  1  0.97775886  0.32654187  0.58380290  1
  Si  Si39  1  0.68821724  0.04414009  0.58159390  1
  Si  Si40  1  0.33447492  0.61446301  0.57802003  1
  Si  Si41  1  0.83316976  0.05398243  0.07877291  1
  Si  Si42  1  0.18838936  0.33252719  0.08249039  1
  Si  Si43  1  0.31825608  0.68330760  0.91352666  1
  Si  Si44  1  0.81239295  0.65178699  0.91781348  1
  Si  Si45  1  0.52576223  0.37816385  0.91709362  1
  Si  Si46  1  0.16314756  0.94609249  0.91605103  1
  Si  Si47  1  0.31103290  0.97024312  0.42047538  1
  Si  Si48  1  0.81867689  0.95556862  0.41411225  1
  Si  Si49  1  0.66662812  0.38094778  0.41677227  1
  Si  Si50  1  0.02494482  0.67272275  0.41712151  1
  S  S51  1  0.00158753  0.28666761  0.25075060  1
  S  S52  1  0.50009863  0.28548615  0.24885339  1
  S  S53  1  0.99992540  0.71601859  0.74894285  1
  S  S54  1  0.50074389  0.71561343  0.75109101  1
  S  S55  1  0.47572219  0.33561843  0.58170756  1
  S  S56  1  0.18671331  0.04596165  0.58324448  1
  S  S57  1  0.83791577  0.62500071  0.58383993  1
  S  S58  1  0.47744204  0.62564876  0.08318427  1
  S  S59  1  0.97564112  0.61617958  0.08182875  1
  S  S60  1  0.33828038  0.04902099  0.08375658  1
  S  S61  1  0.68541094  0.32572832  0.08350648  1
  S  S62  1  0.02120496  0.38259800  0.91701795  1
  S  S63  1  0.66731661  0.95735916  0.91663034  1
  S  S64  1  0.16695387  0.37736872  0.41666010  1
  S  S65  1  0.52151837  0.65860693  0.41724487  1
  O  O66  1  0.10069558  0.04738406  0.30931912  1
  O  O67  1  0.59690899  0.03420512  0.30735246  1
  O  O68  1  0.42038728  0.80827902  0.30614827  1
  O  O69  1  0.91558543  0.79215062  0.30837852  1
  O  O70  1  0.48231867  0.17539547  0.30131320  1
  O  O71  1  0.98057310  0.17823751  0.30296541  1
  O  O72  1  0.09830472  0.16284785  0.80850307  1
  O  O73  1  0.60119791  0.15578703  0.80981012  1
  O  O74  1  0.48068263  0.78248722  0.80343999  1
  O  O75  1  0.98525182  0.79540122  0.80275729  1
  O  O76  1  0.41365632  0.03799466  0.80949689  1
  O  O77  1  0.91939803  0.03088317  0.80706948  1
  O  O78  1  0.40207230  0.97042726  0.69152334  1
  O  O79  1  0.89431958  0.95348139  0.69201838  1
  O  O80  1  0.08775937  0.19942124  0.69011125  1
  O  O81  1  0.58090342  0.18592548  0.69329352  1
  O  O82  1  0.01564829  0.82027017  0.69626611  1
  O  O83  1  0.51283214  0.81789880  0.69717561  1
  O  O84  1  0.39416373  0.83095385  0.18974304  1
  O  O85  1  0.90233346  0.83329641  0.19134197  1
  O  O86  1  0.01231566  0.20619471  0.19658797  1
  O  O87  1  0.51564238  0.21181708  0.19511320  1
  O  O88  1  0.08123278  0.97591879  0.19258961  1
  O  O89  1  0.58812810  0.97296963  0.18864062  1
  O  O90  1  0.43535386  0.35946597  0.63523130  1
  O  O91  1  0.93098557  0.36232985  0.64078033  1
  O  O92  1  0.24369704  0.13002764  0.63649251  1
  O  O93  1  0.75049439  0.13405527  0.63995323  1
  O  O94  1  0.32105914  0.49442552  0.63776283  1
  O  O95  1  0.81918916  0.51522870  0.63659155  1
  O  O96  1  0.43732728  0.51555872  0.13626134  1
  O  O97  1  0.93551522  0.51100534  0.13515313  1
  O  O98  1  0.32291425  0.12804603  0.13628128  1
  O  O99  1  0.82011777  0.14675237  0.13808749  1
  O  O100  1  0.25256897  0.36573310  0.13980936  1
  O  O101  1  0.74161368  0.35722819  0.13643928  1
  O  O102  1  0.23963226  0.30605284  0.02774297  1
  O  O103  1  0.72557031  0.29999591  0.03069556  1
  O  O104  1  0.42177276  0.53859077  0.03100286  1
  O  O105  1  0.92258232  0.54377174  0.02926403  1
  O  O106  1  0.34910144  0.15355259  0.03039229  1
  O  O107  1  0.84921006  0.17700997  0.02364692  1
  O  O108  1  0.22716741  0.15348579  0.53071176  1
  O  O109  1  0.73526947  0.17049809  0.52617278  1
  O  O110  1  0.35085651  0.52124475  0.52363261  1
  O  O111  1  0.84727619  0.54325352  0.53009669  1
  O  O112  1  0.42254339  0.30155775  0.52922221  1
  O  O113  1  0.91436418  0.30422993  0.52748534  1
  O  O114  1  0.26419281  0.69674985  0.97223747  1
  O  O115  1  0.76582871  0.69179433  0.97440074  1
  O  O116  1  0.07620087  0.46293528  0.97062217  1
  O  O117  1  0.58505229  0.48182302  0.97482209  1
  O  O118  1  0.15148633  0.83091174  0.97517295  1
  O  O119  1  0.65617868  0.84675502  0.97075599  1
  O  O120  1  0.26548499  0.83841047  0.47494767  1
  O  O121  1  0.76466779  0.83186163  0.47209485  1
  O  O122  1  0.15539173  0.46151419  0.47027521  1
  O  O123  1  0.65053734  0.47206936  0.47460695  1
  O  O124  1  0.08607361  0.69112592  0.47348981  1
  O  O125  1  0.57575323  0.68959886  0.47027615  1
  O  O126  1  0.06871312  0.63321174  0.35931045  1
  O  O127  1  0.56185756  0.63650894  0.36367914  1
  O  O128  1  0.25026987  0.87201146  0.36116122  1
  O  O129  1  0.75136097  0.86297413  0.35888333  1
  O  O130  1  0.18164343  0.48752724  0.36369437  1
  O  O131  1  0.67704732  0.50200075  0.35977055  1
  O  O132  1  0.06178783  0.48829538  0.86425272  1
  O  O133  1  0.56761653  0.50474262  0.86015619  1
  O  O134  1  0.17870902  0.85424098  0.85975873  1
  O  O135  1  0.68163395  0.87666366  0.86439876  1
  O  O136  1  0.25051394  0.63651604  0.85909941  1
  O  O137  1  0.74897615  0.62782388  0.86130213  1
  O  O138  1  0.01832916  0.84669357  0.41490048  1
  O  O139  1  0.51441592  0.82147566  0.41146902  1
  O  O140  1  0.40428069  0.98125808  0.40398864  1
  O  O141  1  0.91464221  0.98536880  0.40840737  1
  O  O142  1  0.08791397  0.20558898  0.41175189  1
  O  O143  1  0.58073272  0.19048002  0.40567982  1
  O  O144  1  0.01459853  0.20737708  0.91158891  1
  O  O145  1  0.51712962  0.18951660  0.91522620  1
  O  O146  1  0.08062991  0.97334065  0.90702183  1
  O  O147  1  0.58780205  0.96946848  0.91369265  1
  O  O148  1  0.41487097  0.84393429  0.90878411  1
  O  O149  1  0.90491166  0.82850394  0.90525268  1
  O  O150  1  0.48698600  0.17966004  0.58955503  1
  O  O151  1  0.98627826  0.15281676  0.58612730  1
  O  O152  1  0.09907903  0.02069046  0.59132061  1
  O  O153  1  0.59368779  0.02201607  0.59470866  1
  O  O154  1  0.41790729  0.80510006  0.59423507  1
  O  O155  1  0.91421644  0.79945470  0.58968546  1
  O  O156  1  0.48549057  0.80048260  0.08823642  1
  O  O157  1  0.98715316  0.79463832  0.08964272  1
  O  O158  1  0.41513812  0.02685575  0.08941737  1
  O  O159  1  0.91611070  0.02737420  0.09380367  1
  O  O160  1  0.09424955  0.16498647  0.09413239  1
  O  O161  1  0.59689170  0.17368850  0.09113841  1
  O  O162  1  0.34683492  0.17544091  0.73766165  1
  O  O163  1  0.84908142  0.17557361  0.74486731  1
  O  O164  1  0.23947209  0.31156991  0.74336181  1
  O  O165  1  0.74189581  0.31762679  0.74050563  1
  O  O166  1  0.42205875  0.53123948  0.74162708  1
  O  O167  1  0.92006317  0.53912774  0.74422017  1
  O  O168  1  0.35067692  0.52450678  0.24211860  1
  O  O169  1  0.84665944  0.51890149  0.23680988  1
  O  O170  1  0.42052718  0.30442837  0.24049241  1
  O  O171  1  0.92191888  0.31200926  0.24103810  1
  O  O172  1  0.23959720  0.16475181  0.23984007  1
  O  O173  1  0.73815082  0.16596558  0.24244665  1
  O  O174  1  0.32104239  0.50042847  0.92510009  1
  O  O175  1  0.82177343  0.48141754  0.92785565  1
  O  O176  1  0.42875366  0.35938097  0.92891508  1
  O  O177  1  0.93376123  0.36019648  0.92357039  1
  O  O178  1  0.25181551  0.13927878  0.92486569  1
  O  O179  1  0.74677541  0.13202354  0.92371219  1
  O  O180  1  0.32274129  0.16335828  0.42717952  1
  O  O181  1  0.81890295  0.14032127  0.42178905  1
  O  O182  1  0.24691200  0.36153336  0.42244506  1
  O  O183  1  0.75307246  0.36462722  0.42482450  1
  O  O184  1  0.43348204  0.50744173  0.42269501  1
  O  O185  1  0.92769338  0.49841468  0.42530274  1
  O  O186  1  0.17728849  0.50307521  0.07205223  1
  O  O187  1  0.67937075  0.48880994  0.07691377  1
  O  O188  1  0.06406729  0.63631336  0.07479719  1
  O  O189  1  0.56467593  0.64312685  0.07532732  1
  O  O190  1  0.25673296  0.87183645  0.07645296  1
  O  O191  1  0.74650940  0.85987268  0.07159557  1
  O  O192  1  0.18294757  0.87425270  0.57808018  1
  O  O193  1  0.67623544  0.85010793  0.57132207  1
  O  O194  1  0.24923038  0.63660229  0.57136728  1
  O  O195  1  0.75612750  0.64204361  0.57638128  1
  O  O196  1  0.07216491  0.50092002  0.57238232  1
  O  O197  1  0.56387924  0.49200482  0.57506405  1
  O  O198  1  0.15212142  0.83148151  0.25840171  1
  O  O199  1  0.64935085  0.82484911  0.26149450  1
  O  O200  1  0.25854776  0.67774803  0.26273115  1
  O  O201  1  0.76206182  0.68737319  0.25679579  1
  O  O202  1  0.07816238  0.46102522  0.25655426  1
  O  O203  1  0.57553179  0.46192236  0.25781035  1
  O  O204  1  0.14991862  0.47325841  0.76189518  1
  O  O205  1  0.65100694  0.46974501  0.75865081  1
  O  O206  1  0.07604132  0.69040626  0.75970256  1
  O  O207  1  0.57828288  0.69493277  0.75766476  1
  O  O208  1  0.26259241  0.83715260  0.75699013  1
  O  O209  1  0.75868735  0.83735858  0.76392423  1
