# generated using pymatgen
data_MgTe3WO12
_symmetry_space_group_name_H-M   'P 1'
_cell_length_a   5.28688933
_cell_length_b   5.20230449
_cell_length_c   8.73032200
_cell_angle_alpha   90.00000000
_cell_angle_beta   90.00000000
_cell_angle_gamma   88.05726219
_symmetry_Int_Tables_number   1
_chemical_formula_structural   MgTe3WO12
_chemical_formula_sum   'Mg1 Te3 W1 O12'
_cell_volume   239.98082822
_cell_formula_units_Z   1
loop_
 _symmetry_equiv_pos_site_id
 _symmetry_equiv_pos_as_xyz
  1  'x, y, z'
loop_
 _atom_site_type_symbol
 _atom_site_label
 _atom_site_symmetry_multiplicity
 _atom_site_fract_x
 _atom_site_fract_y
 _atom_site_fract_z
 _atom_site_occupancy
  Mg  Mg0  1  0.00000000  0.50000000  0.80717800  1
  Te  Te1  1  0.00000000  0.50000000  0.41045100  1
  Te  Te2  1  0.50000000  0.00000000  0.91121200  1
  Te  Te3  1  0.50000000  0.50000000  0.59278700  1
  W  W4  1  0.00000000  0.00000000  0.10713500  1
  O  O5  1  0.10788100  0.24709600  0.26173600  1
  O  O6  1  0.18489600  0.29555500  0.57860400  1
  O  O7  1  0.15093200  0.22012500  0.94785100  1
  O  O8  1  0.31164400  0.68996300  0.42670800  1
  O  O9  1  0.31784300  0.81352700  0.07851500  1
  O  O10  1  0.32307600  0.69478800  0.74688500  1
  O  O11  1  0.67692400  0.30521200  0.74688500  1
  O  O12  1  0.68215700  0.18647300  0.07851500  1
  O  O13  1  0.68835600  0.31003700  0.42670800  1
  O  O14  1  0.84906800  0.77987500  0.94785100  1
  O  O15  1  0.81510400  0.70444500  0.57860400  1
  O  O16  1  0.89211900  0.75290400  0.26173600  1
