# generated using pymatgen
data_Na6Zr2Ti2Si5SO24
_symmetry_space_group_name_H-M   'P 1'
_cell_length_a   9.07613431
_cell_length_b   9.08344174
_cell_length_c   22.60146193
_cell_angle_alpha   89.91018680
_cell_angle_beta   89.72029884
_cell_angle_gamma   119.93564804
_symmetry_Int_Tables_number   1
_chemical_formula_structural   Na6Zr2Ti2Si5SO24
_chemical_formula_sum   'Na18 Zr6 Ti6 Si15 S3 O72'
_cell_volume   1614.69297990
_cell_formula_units_Z   3
loop_
 _symmetry_equiv_pos_site_id
 _symmetry_equiv_pos_as_xyz
  1  'x, y, z'
loop_
 _atom_site_type_symbol
 _atom_site_label
 _atom_site_symmetry_multiplicity
 _atom_site_fract_x
 _atom_site_fract_y
 _atom_site_fract_z
 _atom_site_occupancy
  Na  Na0  1  0.63633035  -0.00013729  0.25353191  1
  Na  Na1  1  0.35957329  0.36302910  0.24895430  1
  Na  Na2  1  0.00399415  0.63428048  0.25115358  1
  Na  Na3  1  0.63141129  0.63024439  0.74849701  1
  Na  Na4  1  0.99265742  0.36135896  0.74887672  1
  Na  Na5  1  0.37160387  0.00915720  0.74863135  1
  Na  Na6  1  0.29612143  0.33325619  0.58272065  1
  Na  Na7  1  0.03174208  0.70370824  0.58368201  1
  Na  Na8  1  0.67286381  0.96566517  0.58402391  1
  Na  Na9  1  0.03839429  0.33786380  0.08705735  1
  Na  Na10  1  0.97668239  0.66864487  0.91671899  1
  Na  Na11  1  0.33470481  0.03434108  0.41732955  1
  Na  Na12  1  0.98667469  0.99314853  0.49758751  1
  Na  Na13  1  0.02246834  0.00821125  0.99951735  1
  Na  Na14  1  0.66030281  0.31580104  0.83062124  1
  Na  Na15  1  0.68337110  0.33920285  0.34065721  1
  Na  Na16  1  0.33515585  0.66487721  0.16628163  1
  Na  Na17  1  0.33607891  0.66378343  0.66592034  1
  Zr  Zr18  1  0.01041610  0.01414412  0.85031291  1
  Zr  Zr19  1  0.01052995  0.99332429  0.14735718  1
  Zr  Zr20  1  0.66680353  0.34263221  0.18876864  1
  Zr  Zr21  1  0.65629728  0.32823824  0.97679785  1
  Zr  Zr22  1  0.32110149  0.65984531  0.01937506  1
  Zr  Zr23  1  0.32749733  0.66898356  0.31880376  1
  Ti  Ti24  1  0.98143723  0.98526844  0.35303716  1
  Ti  Ti25  1  0.99947863  0.00043678  0.64824888  1
  Ti  Ti26  1  0.66680998  0.33427301  0.68213684  1
  Ti  Ti27  1  0.68589683  0.33691719  0.48519906  1
  Ti  Ti28  1  0.33944141  0.68892275  0.52076160  1
  Ti  Ti29  1  0.31660173  0.67159845  0.80923397  1
  Si  Si30  1  0.28987110  -0.00010444  0.25616178  1
  Si  Si31  1  0.70872299  0.71280109  0.25127660  1
  Si  Si32  1  0.99956824  0.28399598  0.25114225  1
  Si  Si33  1  0.29705520  0.29684707  0.74564486  1
  Si  Si34  1  0.99226081  0.70622891  0.74887184  1
  Si  Si35  1  0.70586519  0.99959895  0.74765476  1
  Si  Si36  1  0.96155114  0.33443167  0.58459782  1
  Si  Si37  1  0.37930195  0.05152299  0.58213287  1
  Si  Si38  1  0.66546682  0.62093551  0.58269853  1
  Si  Si39  1  0.95727818  0.62927283  0.08093474  1
  Si  Si40  1  0.36992516  0.33511073  0.08410104  1
  Si  Si41  1  0.04042527  0.37275970  0.91447309  1
  Si  Si42  1  0.33426411  0.95828552  0.91312801  1
  Si  Si43  1  0.63338589  0.96809860  0.41886336  1
  Si  Si44  1  0.03278035  0.66660950  0.41978504  1
  S  S45  1  0.66699338  0.04056233  0.08373342  1
  S  S46  1  0.62224671  0.66836955  0.91395236  1
  S  S47  1  0.33380085  0.37266900  0.41980119  1
  O  O48  1  0.19847333  0.03125379  0.31318435  1
  O  O49  1  0.83613623  0.80428077  0.30817590  1
  O  O50  1  0.97181401  0.15258954  0.30599633  1
  O  O51  1  0.21576269  0.16917147  0.80264313  1
  O  O52  1  0.95590777  0.78299310  0.80855899  1
  O  O53  1  0.83313073  0.04021882  0.80341599  1
  O  O54  1  0.80076646  0.96648197  0.69005265  1
  O  O55  1  0.16658427  0.20231252  0.68943756  1
  O  O56  1  0.03145245  0.83600580  0.69199662  1
  O  O57  1  0.79034853  0.83537545  0.19405087  1
  O  O58  1  0.03205294  0.20984645  0.18954884  1
  O  O59  1  0.17042692  0.96041042  0.19749910  1
  O  O60  1  0.86994266  0.36941122  0.64178799  1
  O  O61  1  0.50269721  0.13532605  0.64019751  1
  O  O62  1  0.63281237  0.49927126  0.64173185  1
  O  O63  1  0.87338916  0.50928485  0.14074147  1
  O  O64  1  0.64268124  0.11626205  0.13895743  1
  O  O65  1  0.47601955  0.34942068  0.14498619  1
  O  O66  1  0.46751487  0.30830437  0.02775332  1
  O  O67  1  0.84887214  0.52870185  0.02242070  1
  O  O68  1  0.68772227  0.14913193  0.03157066  1
  O  O69  1  0.46750415  0.17028186  0.52418386  1
  O  O70  1  0.69967950  0.52094663  0.52899798  1
  O  O71  1  0.83087711  0.29676651  0.52879497  1
  O  O72  1  0.54018002  0.68413989  0.96830092  1
  O  O73  1  0.15033254  0.45816541  0.97485920  1
  O  O74  1  0.31436869  0.84079220  0.97052790  1
  O  O75  1  0.52839013  0.84131221  0.47656871  1
  O  O76  1  0.31611956  0.46193529  0.47169251  1
  O  O77  1  0.16834539  0.69346337  0.47505965  1
  O  O78  1  0.11260358  0.63368002  0.35893370  1
  O  O79  1  0.51340585  0.88013731  0.36027536  1
  O  O80  1  0.35366007  0.47270858  0.36405512  1
  O  O81  1  0.14832055  0.50028529  0.85722636  1
  O  O82  1  0.34989102  0.85667372  0.85368004  1
  O  O83  1  0.52318750  0.65052988  0.86006197  1
  O  O84  1  0.03526667  0.84876537  0.41457797  1
  O  O85  1  0.81971063  0.98170371  0.41248011  1
  O  O86  1  0.17952110  0.20175378  0.41595041  1
  O  O87  1  0.01627963  0.18355665  0.91228021  1
  O  O88  1  0.15349048  0.95712435  0.91089884  1
  O  O89  1  0.79639086  0.81769006  0.91162059  1
  O  O90  1  0.97464352  0.16084081  0.59024625  1
  O  O91  1  0.18753564  0.02517671  0.59016269  1
  O  O92  1  0.83668786  0.80983351  0.58959710  1
  O  O93  1  0.97171267  0.81452924  0.08313404  1
  O  O94  1  0.82446835  0.03203270  0.08654243  1
  O  O95  1  0.17346424  0.17570613  0.08401643  1
  O  O96  1  0.68312785  0.16683659  0.74001206  1
  O  O97  1  0.48556880  0.31553548  0.73884039  1
  O  O98  1  0.83006023  0.51502215  0.74062193  1
  O  O99  1  0.69876720  0.52701225  0.24893749  1
  O  O100  1  0.82699269  0.30012590  0.24896760  1
  O  O101  1  0.47937918  0.16692697  0.24925698  1
  O  O102  1  0.64139466  0.51333620  0.91776929  1
  O  O103  1  0.86146268  0.37636563  0.91561276  1
  O  O104  1  0.50401650  0.14521700  0.91468720  1
  O  O105  1  0.63624978  0.14903899  0.42692617  1
  O  O106  1  0.48676252  0.35322638  0.42217031  1
  O  O107  1  0.84574131  0.49793912  0.42847923  1
  O  O108  1  0.35710293  0.50870057  0.08160924  1
  O  O109  1  0.14626620  0.64368629  0.08045314  1
  O  O110  1  0.51673322  0.86905525  0.07785498  1
  O  O111  1  0.36068850  0.85845655  0.57645691  1
  O  O112  1  0.49335250  0.63828432  0.57523291  1
  O  O113  1  0.14907053  0.50509908  0.57558738  1
  O  O114  1  0.31130182  0.83051976  0.25770339  1
  O  O115  1  0.51694791  0.68160434  0.25862433  1
  O  O116  1  0.16846989  0.47285448  0.25819980  1
  O  O117  1  0.31342230  0.48441120  0.75421928  1
  O  O118  1  0.16869637  0.69124606  0.75353499  1
  O  O119  1  0.51800765  0.82586360  0.75472641  1
