# generated using pymatgen
data_Na30Ta16Zn8Si27(SO16)9
_symmetry_space_group_name_H-M   'P 1'
_cell_length_a   18.05124254
_cell_length_b   9.03360693
_cell_length_c   22.53485933
_cell_angle_alpha   90.07678473
_cell_angle_beta   90.12074246
_cell_angle_gamma   120.16611435
_symmetry_Int_Tables_number   1
_chemical_formula_structural   Na30Ta16Zn8Si27(SO16)9
_chemical_formula_sum   'Na30 Ta16 Zn8 Si27 S9 O144'
_cell_volume   3177.03314070
_cell_formula_units_Z   1
loop_
 _symmetry_equiv_pos_site_id
 _symmetry_equiv_pos_as_xyz
  1  'x, y, z'
loop_
 _atom_site_type_symbol
 _atom_site_label
 _atom_site_symmetry_multiplicity
 _atom_site_fract_x
 _atom_site_fract_y
 _atom_site_fract_z
 _atom_site_occupancy
  Na  Na0  1  0.18345181  0.00736427  0.74295085  1
  Na  Na1  1  0.65619460  0.33788453  0.58727555  1
  Na  Na2  1  0.01309910  0.68271786  0.58760355  1
  Na  Na3  1  0.51135375  0.67934266  0.58756416  1
  Na  Na4  1  0.65578484  0.97381907  0.08621877  1
  Na  Na5  1  0.51023213  0.34349096  0.08714206  1
  Na  Na6  1  0.48205103  0.68048687  0.91040811  1
  Na  Na7  1  0.98406184  0.68301354  0.91133506  1
  Na  Na8  1  0.35569866  0.03194502  0.91598410  1
  Na  Na9  1  0.85591086  0.03267816  0.91381577  1
  Na  Na10  1  0.15990803  0.28861852  0.91600119  1
  Na  Na11  1  0.66024331  0.28787556  0.91371395  1
  Na  Na12  1  0.48297585  0.28483802  0.40921326  1
  Na  Na13  1  0.98384967  0.28833116  0.41556657  1
  Na  Na14  1  0.16055501  0.03351996  0.41515524  1
  Na  Na15  1  0.65974833  0.03209954  0.41338551  1
  Na  Na16  1  0.35695358  0.67939915  0.41439043  1
  Na  Na17  1  0.85542874  0.67891403  0.41419170  1
  Na  Na18  1  0.00005010  0.00916036  0.49581556  1
  Na  Na19  1  0.49625691  0.00123390  0.49384044  1
  Na  Na20  1  0.00089928  -0.00000997  0.99332105  1
  Na  Na21  1  0.49535964  0.99017554  0.99330620  1
  Na  Na22  1  0.34280955  0.35594059  0.82619581  1
  Na  Na23  1  0.83705059  0.34276071  0.82286147  1
  Na  Na24  1  0.33829799  0.33162287  0.32214176  1
  Na  Na25  1  0.83249596  0.33283456  0.32520378  1
  Na  Na26  1  0.16687911  0.66694030  0.16151796  1
  Na  Na27  1  0.66953052  0.66391823  0.16713766  1
  Na  Na28  1  0.16835950  0.65534706  0.66534031  1
  Na  Na29  1  0.67017991  0.67604578  0.66852257  1
  Ta  Ta30  1  0.00131483  0.99647776  0.64384871  1
  Ta  Ta31  1  0.49962805  0.98929418  0.64489632  1
  Ta  Ta32  1  0.00173970  0.99888093  0.14047855  1
  Ta  Ta33  1  0.49754040  0.00864859  0.14406426  1
  Ta  Ta34  1  0.33286050  0.33533361  0.98164907  1
  Ta  Ta35  1  0.83470585  0.33569459  0.98136076  1
  Ta  Ta36  1  0.33384703  0.33240705  0.48152806  1
  Ta  Ta37  1  0.83424021  0.33215944  0.48123942  1
  Ta  Ta38  1  0.16599080  0.66186912  0.02249720  1
  Ta  Ta39  1  0.66887590  0.66721970  0.02056766  1
  Ta  Ta40  1  0.16765236  0.66751316  0.52196372  1
  Ta  Ta41  1  0.66872323  0.67255733  0.52015510  1
  Ta  Ta42  1  0.16691880  0.66735244  0.31393458  1
  Ta  Ta43  1  0.66265171  0.65663344  0.31243224  1
  Ta  Ta44  1  0.16200126  0.66499915  0.81468822  1
  Ta  Ta45  1  0.66291310  0.66829438  0.81300514  1
  Zn  Zn46  1  0.99923923  0.99933000  0.35450924  1
  Zn  Zn47  1  0.49969599  0.01081645  0.35245324  1
  Zn  Zn48  1  0.99670902  0.98549480  0.85396089  1
  Zn  Zn49  1  0.49910256  0.98710602  0.85398252  1
  Zn  Zn50  1  0.34282627  0.35434537  0.67922415  1
  Zn  Zn51  1  0.84049426  0.34807214  0.68038208  1
  Zn  Zn52  1  0.34039861  0.33244630  0.17913230  1
  Zn  Zn53  1  0.83415651  0.33457802  0.17247772  1
  Si  Si54  1  0.49446091  0.29115770  0.25338460  1
  Si  Si55  1  0.99519685  0.69871450  0.75264016  1
  Si  Si56  1  0.49559996  0.69795680  0.75353586  1
  Si  Si57  1  0.47886617  0.32973243  0.58429596  1
  Si  Si58  1  0.97842828  0.33069798  0.58510507  1
  Si  Si59  1  0.19198470  0.04763707  0.58803937  1
  Si  Si60  1  0.69297944  0.04626777  0.58741304  1
  Si  Si61  1  0.32940089  0.61833066  0.58528610  1
  Si  Si62  1  0.83144641  0.62187778  0.58497110  1
  Si  Si63  1  0.47858502  0.62660398  0.08487524  1
  Si  Si64  1  0.97882034  0.61774245  0.08661057  1
  Si  Si65  1  0.32816627  0.04008727  0.08509766  1
  Si  Si66  1  0.83377485  0.04562452  0.08578631  1
  Si  Si67  1  0.19369613  0.33926173  0.08795316  1
  Si  Si68  1  0.69073915  0.33938397  0.08614147  1
  Si  Si69  1  0.30988908  0.66450255  0.91636591  1
  Si  Si70  1  0.81040436  0.66360172  0.91509525  1
  Si  Si71  1  0.02005912  0.37331619  0.91708869  1
  Si  Si72  1  0.52029895  0.37505040  0.91663449  1
  Si  Si73  1  0.16811477  0.95850451  0.91806538  1
  Si  Si74  1  0.66839796  0.95966142  0.91753036  1
  Si  Si75  1  0.31131529  0.95786971  0.41701880  1
  Si  Si76  1  0.81074402  0.95753351  0.41412569  1
  Si  Si77  1  0.16765113  0.37811426  0.41640065  1
  Si  Si78  1  0.66829419  0.37727092  0.41741038  1
  Si  Si79  1  0.02102449  0.66533204  0.41666857  1
  Si  Si80  1  0.52043067  0.66592710  0.41617886  1
  S  S81  1  0.14294857  0.99639257  0.25221740  1
  S  S82  1  0.64730124  0.00073837  0.25132638  1
  S  S83  1  0.35354558  0.71021959  0.25184466  1
  S  S84  1  0.85571695  0.71109114  0.25168707  1
  S  S85  1  0.00025558  0.29050009  0.25164971  1
  S  S86  1  0.14451366  0.29264933  0.75143677  1
  S  S87  1  0.64541972  0.29218696  0.75131545  1
  S  S88  1  0.35457728  0.99824558  0.75152812  1
  S  S89  1  0.85476978  0.99823488  0.75137900  1
  O  O90  1  0.10305185  0.01088769  0.30666711  1
  O  O91  1  0.60567176  0.01354137  0.30552642  1
  O  O92  1  0.40114112  0.78704684  0.30667230  1
  O  O93  1  0.90402704  0.79058691  0.30661197  1
  O  O94  1  0.48967439  0.18930294  0.31272450  1
  O  O95  1  0.99280069  0.19647085  0.30670728  1
  O  O96  1  0.10399523  0.19524337  0.80571572  1
  O  O97  1  0.60291962  0.19593560  0.80529576  1
  O  O98  1  0.48975001  0.79101000  0.81240805  1
  O  O99  1  0.99327273  0.79467399  0.81206861  1
  O  O100  1  0.40346566  0.01917117  0.80614604  1
  O  O101  1  0.90323498  0.01919161  0.80640955  1
  O  O102  1  0.40040219  0.98037275  0.69811481  1
  O  O103  1  0.90098174  0.97759137  0.69848204  1
  O  O104  1  0.08851425  0.20583531  0.69777929  1
  O  O105  1  0.58972547  0.20640073  0.69641582  1
  O  O106  1  0.01391590  0.83478002  0.69397794  1
  O  O107  1  0.51025657  0.82895819  0.69359030  1
  O  O108  1  0.39858546  0.82202382  0.19878711  1
  O  O109  1  0.90056388  0.82275218  0.19893453  1
  O  O110  1  0.01223695  0.20246096  0.19903259  1
  O  O111  1  0.51009352  0.19064587  0.19391331  1
  O  O112  1  0.08682561  0.97214434  0.19921422  1
  O  O113  1  0.59265900  0.97566084  0.19676566  1
  O  O114  1  0.44560984  0.38895736  0.63875201  1
  O  O115  1  0.94528149  0.39226425  0.63908917  1
  O  O116  1  0.24344372  0.11891422  0.64813237  1
  O  O117  1  0.74832350  0.12803402  0.64433840  1
  O  O118  1  0.31027034  0.50805035  0.64260616  1
  O  O119  1  0.80351516  0.49687557  0.63954816  1
  O  O120  1  0.44641568  0.50164815  0.13960178  1
  O  O121  1  0.94304550  0.51114387  0.14519686  1
  O  O122  1  0.31255468  0.11384190  0.14346693  1
  O  O123  1  0.80523484  0.11051441  0.14173004  1
  O  O124  1  0.24917915  0.37116556  0.14535953  1
  O  O125  1  0.74357106  0.37118175  0.14473672  1
  O  O126  1  0.23331568  0.30096045  0.02552791  1
  O  O127  1  0.73196367  0.29769615  0.02585543  1
  O  O128  1  0.41920122  0.53807804  0.02375789  1
  O  O129  1  0.91778761  0.53409738  0.02572051  1
  O  O130  1  0.35203397  0.16700903  0.02490433  1
  O  O131  1  0.84976306  0.16425676  0.02504720  1
  O  O132  1  0.23552924  0.16643130  0.52697082  1
  O  O133  1  0.73292610  0.16711995  0.52557135  1
  O  O134  1  0.35200783  0.53780741  0.52477931  1
  O  O135  1  0.85240532  0.53855485  0.52441512  1
  O  O136  1  0.41906611  0.30071983  0.52335722  1
  O  O137  1  0.91869694  0.30037543  0.52347234  1
  O  O138  1  0.25974517  0.68765688  0.97198132  1
  O  O139  1  0.75986607  0.68600607  0.97186722  1
  O  O140  1  0.08305897  0.47029455  0.97243801  1
  O  O141  1  0.58057445  0.46987105  0.97464902  1
  O  O142  1  0.15387857  0.82770921  0.97158932  1
  O  O143  1  0.65544085  0.83691234  0.97443979  1
  O  O144  1  0.25932327  0.83240016  0.47185469  1
  O  O145  1  0.76209116  0.83425638  0.47143999  1
  O  O146  1  0.15292349  0.47662574  0.47159870  1
  O  O147  1  0.65553081  0.47483172  0.47435455  1
  O  O148  1  0.08094515  0.69325985  0.47433781  1
  O  O149  1  0.58068995  0.69231729  0.47429758  1
  O  O150  1  0.06984146  0.63114696  0.35927538  1
  O  O151  1  0.56903240  0.63004096  0.35979641  1
  O  O152  1  0.24658952  0.86209044  0.35850283  1
  O  O153  1  0.74639160  0.86465532  0.35737910  1
  O  O154  1  0.18496974  0.50852081  0.35837437  1
  O  O155  1  0.68586473  0.50876452  0.36045083  1
  O  O156  1  0.06676543  0.50518397  0.85898422  1
  O  O157  1  0.56907873  0.50760505  0.85985400  1
  O  O158  1  0.18535918  0.86770595  0.85761684  1
  O  O159  1  0.68570367  0.86301603  0.86035539  1
  O  O160  1  0.24589805  0.63049300  0.85800173  1
  O  O161  1  0.74633772  0.62880937  0.85787272  1
  O  O162  1  0.01068997  0.83118265  0.41171116  1
  O  O163  1  0.51066245  0.83221601  0.41085283  1
  O  O164  1  0.40337464  0.97314808  0.41536117  1
  O  O165  1  0.90488008  0.97956289  0.41215268  1
  O  O166  1  0.08447094  0.19111084  0.41131184  1
  O  O167  1  0.58620542  0.18845668  0.41587700  1
  O  O168  1  0.00969737  0.18745099  0.91018267  1
  O  O169  1  0.51102290  0.18942839  0.91098777  1
  O  O170  1  0.08696106  0.98538969  0.91489259  1
  O  O171  1  0.58626305  0.98348993  0.91599773  1
  O  O172  1  0.40318604  0.83321296  0.91499044  1
  O  O173  1  0.90326686  0.83291486  0.91574749  1
  O  O174  1  0.49405022  0.16535500  0.59210902  1
  O  O175  1  0.98893375  0.16098739  0.59281384  1
  O  O176  1  0.09251486  0.02272149  0.59188124  1
  O  O177  1  0.59402465  0.02641336  0.59200790  1
  O  O178  1  0.41970444  0.81282562  0.59130766  1
  O  O179  1  0.92007368  0.81240385  0.59176926  1
  O  O180  1  0.49372919  0.82178654  0.09324848  1
  O  O181  1  0.98880801  0.81381592  0.09378224  1
  O  O182  1  0.41913647  0.02587255  0.09108693  1
  O  O183  1  0.91922166  0.02338131  0.09451812  1
  O  O184  1  0.09430431  0.16295616  0.09521345  1
  O  O185  1  0.59256167  0.16009530  0.09155321  1
  O  O186  1  0.33855340  0.14040419  0.74572379  1
  O  O187  1  0.84098676  0.14234063  0.74437624  1
  O  O188  1  0.22818998  0.30638873  0.74540518  1
  O  O189  1  0.72959730  0.31077993  0.74537606  1
  O  O190  1  0.41507889  0.50925216  0.74704646  1
  O  O191  1  0.91476560  0.51049529  0.74658235  1
  O  O192  1  0.33893906  0.53691826  0.24496382  1
  O  O193  1  0.84317523  0.53878763  0.24631635  1
  O  O194  1  0.41489433  0.32101282  0.24703955  1
  O  O195  1  0.92621307  0.31403763  0.24604599  1
  O  O196  1  0.22904848  0.14479279  0.24638816  1
  O  O197  1  0.73307121  0.15070259  0.24634603  1
  O  O198  1  0.31569588  0.48770489  0.92207397  1
  O  O199  1  0.81604817  0.48765781  0.92324412  1
  O  O200  1  0.42745856  0.36703346  0.92205001  1
  O  O201  1  0.92740747  0.36654282  0.92267657  1
  O  O202  1  0.25770954  0.14501555  0.92248759  1
  O  O203  1  0.75751221  0.14571856  0.92249443  1
  O  O204  1  0.31493240  0.14342518  0.42213497  1
  O  O205  1  0.81620255  0.14485392  0.42244872  1
  O  O206  1  0.25588238  0.36805908  0.42276771  1
  O  O207  1  0.75753921  0.36947286  0.42239601  1
  O  O208  1  0.42716361  0.48811852  0.42231131  1
  O  O209  1  0.92765469  0.48686033  0.42111272  1
  O  O210  1  0.17418240  0.49426133  0.07402434  1
  O  O211  1  0.66860897  0.49255633  0.07501535  1
  O  O212  1  0.07460462  0.65184429  0.07313996  1
  O  O213  1  0.57627245  0.65721482  0.07231931  1
  O  O214  1  0.25095956  0.84677673  0.07288633  1
  O  O215  1  0.75096139  0.85330104  0.07285346  1
  O  O216  1  0.17012056  0.84932747  0.57474605  1
  O  O217  1  0.66967847  0.84762624  0.57494971  1
  O  O218  1  0.25150058  0.65583645  0.57296249  1
  O  O219  1  0.75011990  0.65058472  0.57237683  1
  O  O220  1  0.07362292  0.49864043  0.57142895  1
  O  O221  1  0.57616248  0.49666751  0.57186985  1
  O  O222  1  0.14848762  0.83151150  0.25467185  1
  O  O223  1  0.65298518  0.83730108  0.25380668  1
  O  O224  1  0.26598494  0.70242742  0.25435578  1
  O  O225  1  0.76902570  0.70227737  0.25416768  1
  O  O226  1  0.08298423  0.46703675  0.25462814  1
  O  O227  1  0.58964065  0.48430643  0.25561766  1
  O  O228  1  0.15231402  0.46743495  0.75356522  1
  O  O229  1  0.65133495  0.46672708  0.75319317  1
  O  O230  1  0.09215463  0.70055606  0.75440114  1
  O  O231  1  0.58991695  0.69463437  0.75541054  1
  O  O232  1  0.26758304  0.83292926  0.75274820  1
  O  O233  1  0.76877749  0.83122268  0.75350036  1
