# generated using pymatgen
data_Na4ZrSi3GeO12
_symmetry_space_group_name_H-M   'P 1'
_cell_length_a   9.02136942
_cell_length_b   9.02136911
_cell_length_c   22.17266313
_cell_angle_alpha   90.00000000
_cell_angle_beta   90.00000000
_cell_angle_gamma   120.00000113
_symmetry_Int_Tables_number   1
_chemical_formula_structural   Na4ZrSi3GeO12
_chemical_formula_sum   'Na24 Zr6 Si18 Ge6 O72'
_cell_volume   1562.76402578
_cell_formula_units_Z   6
loop_
 _symmetry_equiv_pos_site_id
 _symmetry_equiv_pos_as_xyz
  1  'x, y, z'
loop_
 _atom_site_type_symbol
 _atom_site_label
 _atom_site_symmetry_multiplicity
 _atom_site_fract_x
 _atom_site_fract_y
 _atom_site_fract_z
 _atom_site_occupancy
  Na  Na0  1  0.63703826  0.00054100  0.24881069  1
  Na  Na1  1  0.36350274  0.36296174  0.24881069  1
  Na  Na2  1  0.99945900  0.63649726  0.24881069  1
  Na  Na3  1  0.62927216  0.63170869  0.75403163  1
  Na  Na4  1  0.00243653  0.37072784  0.75403163  1
  Na  Na5  1  0.36829131  0.99756347  0.75403163  1
  Na  Na6  1  0.30038545  0.33322212  0.58366792  1
  Na  Na7  1  0.03283766  0.69961455  0.58366792  1
  Na  Na8  1  0.66677788  0.96716234  0.58366792  1
  Na  Na9  1  0.29328773  0.95854936  0.08061296  1
  Na  Na10  1  0.66526263  0.70671227  0.08061296  1
  Na  Na11  1  0.04145064  0.33473737  0.08061296  1
  Na  Na12  1  0.96008057  0.66608632  0.91742905  1
  Na  Na13  1  0.70600475  0.03991943  0.91742905  1
  Na  Na14  1  0.33391368  0.29399525  0.91742905  1
  Na  Na15  1  0.96492843  0.29626496  0.41514002  1
  Na  Na16  1  0.33133552  0.03507157  0.41514002  1
  Na  Na17  1  0.70373504  0.66866448  0.41514002  1
  Na  Na18  1  0.00000000  0.00000000  0.49988358  1
  Na  Na19  1  0.00000000  0.00000000  0.99731821  1
  Na  Na20  1  0.66666700  0.33333300  0.83783832  1
  Na  Na21  1  0.66666700  0.33333300  0.32894244  1
  Na  Na22  1  0.33333300  0.66666700  0.16536194  1
  Na  Na23  1  0.33333300  0.66666700  0.67010396  1
  Zr  Zr24  1  0.00000000  0.00000000  0.34742835  1
  Zr  Zr25  1  0.00000000  0.00000000  0.65228633  1
  Zr  Zr26  1  0.00000000  0.00000000  0.14544455  1
  Zr  Zr27  1  0.66666700  0.33333300  0.69103158  1
  Zr  Zr28  1  0.66666700  0.33333300  0.47774872  1
  Zr  Zr29  1  0.33333300  0.66666700  0.51887910  1
  Si  Si30  1  0.30636107  0.00072272  0.24784506  1
  Si  Si31  1  0.69436165  0.69363893  0.24784506  1
  Si  Si32  1  0.99927728  0.30563835  0.24784506  1
  Si  Si33  1  0.28627409  0.29605052  0.75798841  1
  Si  Si34  1  0.00977644  0.71372591  0.75798841  1
  Si  Si35  1  0.70394948  0.99022356  0.75798841  1
  Si  Si36  1  0.96129555  0.33184564  0.58430531  1
  Si  Si37  1  0.37055110  0.03870445  0.58430531  1
  Si  Si38  1  0.66815436  0.62944890  0.58430531  1
  Si  Si39  1  0.95172668  0.61085528  0.07969113  1
  Si  Si40  1  0.65912960  0.04827332  0.07969113  1
  Si  Si41  1  0.38914472  0.34087040  0.07969113  1
  Si  Si42  1  0.61990517  0.66680663  0.91793980  1
  Si  Si43  1  0.04690047  0.38009483  0.91793980  1
  Si  Si44  1  0.33319337  0.95309953  0.91793980  1
  Si  Si45  1  0.62114010  0.95350650  0.41214933  1
  Si  Si46  1  0.33236540  0.37885990  0.41214933  1
  Si  Si47  1  0.04649350  0.66763460  0.41214933  1
  Ge  Ge48  1  0.00000000  0.00000000  0.85626321  1
  Ge  Ge49  1  0.66666700  0.33333300  0.18281092  1
  Ge  Ge50  1  0.66666700  0.33333300  0.97890258  1
  Ge  Ge51  1  0.33333300  0.66666700  0.01863065  1
  Ge  Ge52  1  0.33333300  0.66666700  0.31144991  1
  Ge  Ge53  1  0.33333300  0.66666700  0.81804121  1
  O  O54  1  0.22348557  0.04173969  0.30661089  1
  O  O55  1  0.81825412  0.77651443  0.30661089  1
  O  O56  1  0.95826031  0.18174588  0.30661089  1
  O  O57  1  0.19401788  0.16406881  0.81450744  1
  O  O58  1  0.97005093  0.80598212  0.81450744  1
  O  O59  1  0.83593119  0.02994907  0.81450744  1
  O  O60  1  0.78063131  0.95578860  0.69585580  1
  O  O61  1  0.17515729  0.21936869  0.69585580  1
  O  O62  1  0.04421140  0.82484271  0.69585580  1
  O  O63  1  0.78321813  0.82279806  0.19064950  1
  O  O64  1  0.03957992  0.21678187  0.19064950  1
  O  O65  1  0.17720194  0.96042008  0.19064950  1
  O  O66  1  0.87178113  0.35853266  0.64398543  1
  O  O67  1  0.48675253  0.12821887  0.64398543  1
  O  O68  1  0.64146734  0.51324747  0.64398543  1
  O  O69  1  0.86691531  0.49335261  0.14052063  1
  O  O70  1  0.62643830  0.13308469  0.14052063  1
  O  O71  1  0.50664739  0.37356170  0.14052063  1
  O  O72  1  0.47174297  0.30128253  0.02020864  1
  O  O73  1  0.82954056  0.52825703  0.02020864  1
  O  O74  1  0.69871747  0.17045944  0.02020864  1
  O  O75  1  0.45757677  0.15245380  0.52369350  1
  O  O76  1  0.69487803  0.54242323  0.52369350  1
  O  O77  1  0.84754620  0.30512197  0.52369350  1
  O  O78  1  0.53541407  0.70799700  0.97718386  1
  O  O79  1  0.17258193  0.46458593  0.97718386  1
  O  O80  1  0.29200300  0.82741807  0.97718386  1
  O  O81  1  0.54447179  0.84722703  0.47466932  1
  O  O82  1  0.30275424  0.45552821  0.47466932  1
  O  O83  1  0.15277297  0.69724576  0.47466932  1
  O  O84  1  0.14146106  0.64002102  0.35390032  1
  O  O85  1  0.49855896  0.85853894  0.35390032  1
  O  O86  1  0.35997898  0.50144104  0.35390032  1
  O  O87  1  0.13169227  0.50491941  0.85900412  1
  O  O88  1  0.37322614  0.86830773  0.85900412  1
  O  O89  1  0.49508059  0.62677386  0.85900412  1
  O  O90  1  0.02598014  0.83703178  0.40975046  1
  O  O91  1  0.81105164  0.97401986  0.40975046  1
  O  O92  1  0.16296822  0.18894836  0.40975046  1
  O  O93  1  0.02655040  0.18593543  0.91310388  1
  O  O94  1  0.15938503  0.97344960  0.91310388  1
  O  O95  1  0.81406457  0.84061497  0.91310388  1
  O  O96  1  0.97666172  0.16049103  0.58714933  1
  O  O97  1  0.18382931  0.02333828  0.58714933  1
  O  O98  1  0.83950897  0.81617069  0.58714933  1
  O  O99  1  0.97315866  0.80291197  0.08455466  1
  O  O100  1  0.82975331  0.02684134  0.08455466  1
  O  O101  1  0.19708803  0.17024669  0.08455466  1
  O  O102  1  0.68555583  0.16133979  0.75370469  1
  O  O103  1  0.47578496  0.31444417  0.75370469  1
  O  O104  1  0.83866021  0.52421504  0.75370469  1
  O  O105  1  0.68140924  0.50653374  0.24026179  1
  O  O106  1  0.82512550  0.31859076  0.24026179  1
  O  O107  1  0.49346626  0.17487450  0.24026179  1
  O  O108  1  0.64022775  0.49305437  0.92213312  1
  O  O109  1  0.85282762  0.35977225  0.92213312  1
  O  O110  1  0.50694563  0.14717238  0.92213312  1
  O  O111  1  0.63786952  0.14206258  0.41403444  1
  O  O112  1  0.50419405  0.36213048  0.41403444  1
  O  O113  1  0.85793742  0.49580595  0.41403444  1
  O  O114  1  0.36911595  0.51461329  0.07581463  1
  O  O115  1  0.14549634  0.63088405  0.07581463  1
  O  O116  1  0.48538671  0.85450366  0.07581463  1
  O  O117  1  0.35344191  0.85121426  0.58278418  1
  O  O118  1  0.49777135  0.64655809  0.58278418  1
  O  O119  1  0.14878574  0.50222865  0.58278418  1
  O  O120  1  0.32085757  0.82712196  0.25464128  1
  O  O121  1  0.50626339  0.67914243  0.25464128  1
  O  O122  1  0.17287804  0.49373661  0.25464128  1
  O  O123  1  0.30370649  0.48628963  0.76221158  1
  O  O124  1  0.18258214  0.69629351  0.76221158  1
  O  O125  1  0.51371037  0.81741786  0.76221158  1
