# generated using pymatgen
data_Na2CaScP(SO6)2
_symmetry_space_group_name_H-M   'P 1'
_cell_length_a   9.13639444
_cell_length_b   9.11679748
_cell_length_c   23.31722141
_cell_angle_alpha   90.30213080
_cell_angle_beta   90.00000000
_cell_angle_gamma   120.07113185
_symmetry_Int_Tables_number   1
_chemical_formula_structural   Na2CaScP(SO6)2
_chemical_formula_sum   'Na12 Ca6 Sc6 P6 S12 O72'
_cell_volume   1680.75641657
_cell_formula_units_Z   6
loop_
 _symmetry_equiv_pos_site_id
 _symmetry_equiv_pos_as_xyz
  1  'x, y, z'
loop_
 _atom_site_type_symbol
 _atom_site_label
 _atom_site_symmetry_multiplicity
 _atom_site_fract_x
 _atom_site_fract_y
 _atom_site_fract_z
 _atom_site_occupancy
  Na  Na0  1  0.00008879  0.63824369  0.24367885  1
  Na  Na1  1  0.63815490  0.63824369  0.74367885  1
  Na  Na2  1  0.65864833  0.96118976  0.57874326  1
  Na  Na3  1  0.30254243  0.96118976  0.07874326  1
  Na  Na4  1  0.69304755  0.02624475  0.91109761  1
  Na  Na5  1  0.33319619  0.02624475  0.41109761  1
  Na  Na6  1  0.98199255  0.99146309  0.49806473  1
  Na  Na7  1  0.00947054  0.99146309  0.99806473  1
  Na  Na8  1  0.65820409  0.31285881  0.83160863  1
  Na  Na9  1  0.65465572  0.31285881  0.33160863  1
  Na  Na10  1  0.33269523  0.65573077  0.16539947  1
  Na  Na11  1  0.32303454  0.65573077  0.66539947  1
  Ca  Ca12  1  0.99221251  0.00625553  0.35111006  1
  Ca  Ca13  1  0.01404303  0.00625553  0.85111006  1
  Ca  Ca14  1  0.66446171  0.32664404  0.68399228  1
  Ca  Ca15  1  0.66218333  0.32664404  0.18399228  1
  Ca  Ca16  1  0.32438749  0.65899239  0.01703550  1
  Ca  Ca17  1  0.33460390  0.65899239  0.51703550  1
  Sc  Sc18  1  0.99143307  0.99175959  0.65099674  1
  Sc  Sc19  1  0.00032653  0.99175959  0.15099674  1
  Sc  Sc20  1  0.67465901  0.34755811  0.98418079  1
  Sc  Sc21  1  0.67290010  0.34755811  0.48418079  1
  Sc  Sc22  1  0.34896315  0.68513631  0.31698970  1
  Sc  Sc23  1  0.33617216  0.68513631  0.81698970  1
  P  P24  1  0.29354636  0.99157577  0.25274428  1
  P  P25  1  0.69802941  0.99157577  0.75274428  1
  P  P26  1  0.67499508  0.63680650  0.58723301  1
  P  P27  1  0.96181242  0.63680650  0.08723301  1
  P  P28  1  0.34570008  0.97470811  0.92125159  1
  P  P29  1  0.62900703  0.97470811  0.42125159  1
  S  S30  1  0.70047779  0.70743146  0.24982617  1
  S  S31  1  0.01021130  0.30435434  0.24925893  1
  S  S32  1  0.29414304  0.30435434  0.74925893  1
  S  S33  1  0.00695366  0.70743146  0.74982617  1
  S  S34  1  0.95777884  0.32472749  0.58352287  1
  S  S35  1  0.36377820  0.04029705  0.58121650  1
  S  S36  1  0.67651984  0.04029705  0.08121650  1
  S  S37  1  0.36694965  0.32472749  0.08352287  1
  S  S38  1  0.62503104  0.65971242  0.91530132  1
  S  S39  1  0.02966457  0.37297822  0.91595938  1
  S  S40  1  0.34331265  0.37297822  0.41595938  1
  S  S41  1  0.03468037  0.65971242  0.41530132  1
  O  O42  1  0.21109727  0.00553049  0.30776093  1
  O  O43  1  0.80129477  0.78563758  0.30129131  1
  O  O44  1  0.98697014  0.20775543  0.30116805  1
  O  O45  1  0.22078529  0.20775543  0.80116805  1
  O  O46  1  0.98434281  0.78563758  0.80129131  1
  O  O47  1  0.79443322  0.00553049  0.80776093  1
  O  O48  1  0.79235715  0.96795896  0.69890168  1
  O  O49  1  0.19124341  0.21275129  0.69764884  1
  O  O50  1  0.02902879  0.81417688  0.69822649  1
  O  O51  1  0.78514809  0.81417688  0.19822649  1
  O  O52  1  0.02150788  0.21275129  0.19764884  1
  O  O53  1  0.17560181  0.96795896  0.19890168  1
  O  O54  1  0.88231932  0.34548086  0.63582005  1
  O  O55  1  0.47136852  0.12005712  0.63125974  1
  O  O56  1  0.65834305  0.54540735  0.64340673  1
  O  O57  1  0.88706530  0.54540735  0.14340673  1
  O  O58  1  0.64868959  0.12005712  0.13125974  1
  O  O59  1  0.46316255  0.34548086  0.13582005  1
  O  O60  1  0.45438748  0.30238205  0.03239897  1
  O  O61  1  0.84670404  0.53586024  0.03470474  1
  O  O62  1  0.69443874  0.14189615  0.02826416  1
  O  O63  1  0.44745841  0.14189615  0.52826416  1
  O  O64  1  0.68915719  0.53586024  0.53470474  1
  O  O65  1  0.84799556  0.30238205  0.53239897  1
  O  O66  1  0.54229291  0.68122841  0.96567863  1
  O  O67  1  0.12564130  0.44523764  0.96815211  1
  O  O68  1  0.32887158  0.87920069  0.97663159  1
  O  O69  1  0.55032811  0.87920069  0.47663159  1
  O  O70  1  0.31959534  0.44523764  0.46815211  1
  O  O71  1  0.13893450  0.68122841  0.46567863  1
  O  O72  1  0.11534659  0.63854214  0.36200780  1
  O  O73  1  0.50672612  0.87291653  0.36859055  1
  O  O74  1  0.35708159  0.47567122  0.36461942  1
  O  O75  1  0.11858864  0.47567122  0.86461942  1
  O  O76  1  0.36618941  0.87291653  0.86859055  1
  O  O77  1  0.52319455  0.63854214  0.86200780  1
  O  O78  1  0.02078239  0.81534877  0.41113345  1
  O  O79  1  0.80601240  0.00007377  0.41406337  1
  O  O80  1  0.20037688  0.19500602  0.41105857  1
  O  O81  1  0.99462914  0.19500602  0.91105857  1
  O  O82  1  0.19406137  0.00007377  0.91406337  1
  O  O83  1  0.79456638  0.81534877  0.91113345  1
  O  O84  1  0.96313448  0.16147646  0.58689295  1
  O  O85  1  0.19509835  0.02760719  0.58741586  1
  O  O86  1  0.84069422  0.81936310  0.58850615  1
  O  O87  1  0.97866889  0.81936310  0.08850615  1
  O  O88  1  0.83250884  0.02760719  0.08741586  1
  O  O89  1  0.19834198  0.16147646  0.08689295  1
  O  O90  1  0.66934150  0.14158614  0.74655978  1
  O  O91  1  0.47084275  0.33607815  0.74471650  1
  O  O92  1  0.85317303  0.53859240  0.74390171  1
  O  O93  1  0.68542037  0.53859240  0.24390171  1
  O  O94  1  0.86523640  0.33607815  0.24471650  1
  O  O95  1  0.47224563  0.14158614  0.24655978  1
  O  O96  1  0.64312996  0.50602906  0.92047954  1
  O  O97  1  0.85784024  0.36013728  0.91976337  1
  O  O98  1  0.51854884  0.14851719  0.92269183  1
  O  O99  1  0.62996935  0.14851719  0.42269183  1
  O  O100  1  0.50229805  0.36013728  0.41976337  1
  O  O101  1  0.86290010  0.50602906  0.42047954  1
  O  O102  1  0.34120040  0.47078976  0.07753006  1
  O  O103  1  0.14438049  0.66959065  0.08113364  1
  O  O104  1  0.52454986  0.86826230  0.07646134  1
  O  O105  1  0.34371144  0.86826230  0.57646134  1
  O  O106  1  0.52520916  0.66959065  0.58113364  1
  O  O107  1  0.12958836  0.47078976  0.57753006  1
  O  O108  1  0.29649455  0.81795430  0.25500291  1
  O  O109  1  0.52895794  0.69007067  0.25426682  1
  O  O110  1  0.16853718  0.47585756  0.25267870  1
  O  O111  1  0.30731937  0.47585756  0.75267870  1
  O  O112  1  0.16111173  0.69007067  0.75426682  1
  O  O113  1  0.52145875  0.81795430  0.75500291  1
