# generated using pymatgen
data_Na6LaTa3(SiO4)6
_symmetry_space_group_name_H-M   'P 1'
_cell_length_a   16.01560331
_cell_length_b   9.17451927
_cell_length_c   9.20428919
_cell_angle_alpha   90.21239202
_cell_angle_beta   125.30783687
_cell_angle_gamma   90.06648398
_symmetry_Int_Tables_number   1
_chemical_formula_structural   Na6LaTa3(SiO4)6
_chemical_formula_sum   'Na12 La2 Ta6 Si12 O48'
_cell_volume   1103.65071892
_cell_formula_units_Z   2
loop_
 _symmetry_equiv_pos_site_id
 _symmetry_equiv_pos_as_xyz
  1  'x, y, z'
loop_
 _atom_site_type_symbol
 _atom_site_label
 _atom_site_symmetry_multiplicity
 _atom_site_fract_x
 _atom_site_fract_y
 _atom_site_fract_z
 _atom_site_occupancy
  Na  Na0  1  0.25174377  0.75050415  0.00061770  1
  Na  Na1  1  0.74869730  0.75065172  0.49573274  1
  Na  Na2  1  0.75174377  0.25050415  0.00061770  1
  Na  Na3  1  0.24869730  0.25065172  0.49573274  1
  Na  Na4  1  0.50296735  0.08610343  0.75143021  1
  Na  Na5  1  0.50344024  0.90162866  0.24324501  1
  Na  Na6  1  0.00296735  0.58610343  0.75143021  1
  Na  Na7  1  0.00344024  0.40162866  0.24324501  1
  Na  Na8  1  0.80976317  0.92017812  0.20819752  1
  Na  Na9  1  0.18259000  0.07513098  0.79074467  1
  Na  Na10  1  0.30976317  0.42017812  0.20819752  1
  Na  Na11  1  0.68259000  0.57513098  0.79074467  1
  La  La12  1  0.09860046  0.23714322  0.05969908  1
  La  La13  1  0.59860046  0.73714322  0.05969908  1
  Ta  Ta14  1  0.10490793  0.74828910  0.55859503  1
  Ta  Ta15  1  0.89626879  0.75502972  0.93223591  1
  Ta  Ta16  1  0.89365339  0.24945336  0.43930101  1
  Ta  Ta17  1  0.60490793  0.24828910  0.55859503  1
  Ta  Ta18  1  0.39626879  0.25502972  0.93223591  1
  Ta  Ta19  1  0.39365339  0.74945336  0.43930101  1
  Si  Si20  1  0.99514813  0.94582099  0.73668724  1
  Si  Si21  1  0.99607535  0.03987664  0.26044871  1
  Si  Si22  1  0.49514813  0.44582099  0.73668724  1
  Si  Si23  1  0.49607535  0.53987664  0.26044871  1
  Si  Si24  1  0.34779863  0.90217008  0.75228878  1
  Si  Si25  1  0.65064546  0.89884091  0.74527411  1
  Si  Si26  1  0.64815677  0.12137722  0.24913041  1
  Si  Si27  1  0.36096804  0.09628954  0.25262614  1
  Si  Si28  1  0.84779863  0.40217008  0.75228878  1
  Si  Si29  1  0.15064546  0.39884091  0.74527411  1
  Si  Si30  1  0.14815677  0.62137722  0.24913041  1
  Si  Si31  1  0.86096804  0.59628954  0.25262614  1
  O  O32  1  0.15643519  0.57403430  0.71733585  1
  O  O33  1  0.84889734  0.58350105  0.75482107  1
  O  O34  1  0.85818175  0.41652149  0.26393025  1
  O  O35  1  0.15907940  0.44642488  0.26307013  1
  O  O36  1  0.65643519  0.07403430  0.71733585  1
  O  O37  1  0.34889734  0.08350105  0.75482107  1
  O  O38  1  0.35818175  0.91652149  0.26393025  1
  O  O39  1  0.65907940  0.94642488  0.26307013  1
  O  O40  1  0.42876412  0.56415103  0.57048332  1
  O  O41  1  0.58500563  0.53378191  0.90839614  1
  O  O42  1  0.54702745  0.42762685  0.42642127  1
  O  O43  1  0.43314427  0.42957789  0.08083520  1
  O  O44  1  0.92876412  0.06415103  0.57048332  1
  O  O45  1  0.08500563  0.03378191  0.90839614  1
  O  O46  1  0.04702745  0.92762685  0.42642127  1
  O  O47  1  0.93314427  0.92957789  0.08083520  1
  O  O48  1  0.24032022  0.85005425  0.72161775  1
  O  O49  1  0.74509579  0.81058845  0.76116010  1
  O  O50  1  0.74619350  0.19555382  0.26319599  1
  O  O51  1  0.28008773  0.18448525  0.26863665  1
  O  O52  1  0.74032022  0.35005425  0.72161775  1
  O  O53  1  0.24509579  0.31058845  0.76116010  1
  O  O54  1  0.24619350  0.69555382  0.26319599  1
  O  O55  1  0.78008773  0.68448525  0.26863665  1
  O  O56  1  0.36515725  0.85348270  0.59431307  1
  O  O57  1  0.65737524  0.88720058  0.92685930  1
  O  O58  1  0.64636672  0.18021438  0.41430551  1
  O  O59  1  0.35525759  0.13995448  0.06955812  1
  O  O60  1  0.86515725  0.35348270  0.59431307  1
  O  O61  1  0.15737524  0.38720058  0.92685930  1
  O  O62  1  0.14636672  0.68021438  0.41430551  1
  O  O63  1  0.85525759  0.63995448  0.06955812  1
  O  O64  1  0.44069472  0.84382279  0.94329058  1
  O  O65  1  0.53955905  0.82224021  0.57943291  1
  O  O66  1  0.53667666  0.17557509  0.06591485  1
  O  O67  1  0.47606521  0.14205927  0.41877384  1
  O  O68  1  0.94069472  0.34382279  0.94329058  1
  O  O69  1  0.03955905  0.32224021  0.57943291  1
  O  O70  1  0.03667666  0.67557509  0.06591485  1
  O  O71  1  0.97606521  0.64205927  0.41877384  1
  O  O72  1  0.05960633  0.82233407  0.70923963  1
  O  O73  1  0.91615685  0.85317598  0.76156313  1
  O  O74  1  0.90784312  0.13464473  0.26074847  1
  O  O75  1  0.07958412  0.15050672  0.27984260  1
  O  O76  1  0.55960633  0.32233407  0.70923963  1
  O  O77  1  0.41615685  0.35317598  0.76156313  1
  O  O78  1  0.40784312  0.63464473  0.26074847  1
  O  O79  1  0.57958412  0.65050672  0.27984260  1
