# generated using pymatgen
data_Na14Ta4Ga4Si11SO48
_symmetry_space_group_name_H-M   'P 1'
_cell_length_a   17.97217767
_cell_length_b   8.97370803
_cell_length_c   22.24509172
_cell_angle_alpha   90.06173702
_cell_angle_beta   90.11891468
_cell_angle_gamma   119.99020266
_symmetry_Int_Tables_number   1
_chemical_formula_structural   Na14Ta4Ga4Si11SO48
_chemical_formula_sum   'Na42 Ta12 Ga12 Si33 S3 O144'
_cell_volume   3107.26367420
_cell_formula_units_Z   3
loop_
 _symmetry_equiv_pos_site_id
 _symmetry_equiv_pos_as_xyz
  1  'x, y, z'
loop_
 _atom_site_type_symbol
 _atom_site_label
 _atom_site_symmetry_multiplicity
 _atom_site_fract_x
 _atom_site_fract_y
 _atom_site_fract_z
 _atom_site_occupancy
  Na  Na0  1  0.32243931  0.99988281  0.24995852  1
  Na  Na1  1  0.82292231  0.00021546  0.24992985  1
  Na  Na2  1  0.31903933  0.63015571  0.74901711  1
  Na  Na3  1  0.82258448  0.64481459  0.74940418  1
  Na  Na4  1  0.49414656  0.36186601  0.74856154  1
  Na  Na5  1  0.68189267  0.00210283  0.75105428  1
  Na  Na6  1  0.14892809  0.32413120  0.58454836  1
  Na  Na7  1  0.65251170  0.33204506  0.58197584  1
  Na  Na8  1  0.01604028  0.70817759  0.58504394  1
  Na  Na9  1  0.51165581  0.69037099  0.58278112  1
  Na  Na10  1  0.33150057  0.97637227  0.58302012  1
  Na  Na11  1  0.83960774  0.97119796  0.58525695  1
  Na  Na12  1  0.14748079  0.95986657  0.08166123  1
  Na  Na13  1  0.64724246  0.95979898  0.08163975  1
  Na  Na14  1  0.33218464  0.70672785  0.08316788  1
  Na  Na15  1  0.83229908  0.70668069  0.08358606  1
  Na  Na16  1  0.02137527  0.33518409  0.08332306  1
  Na  Na17  1  0.52096271  0.33461120  0.08338103  1
  Na  Na18  1  0.48453765  0.67734162  0.91492241  1
  Na  Na19  1  0.98593214  0.67600039  0.91477859  1
  Na  Na20  1  0.35338264  0.02907978  0.91495973  1
  Na  Na21  1  0.85320152  0.02993137  0.91501901  1
  Na  Na22  1  0.16220946  0.29752891  0.91654526  1
  Na  Na23  1  0.66065118  0.29232605  0.91554169  1
  Na  Na24  1  0.47827999  0.29344863  0.41630185  1
  Na  Na25  1  0.97954919  0.29385109  0.41655192  1
  Na  Na26  1  0.16737663  0.04029592  0.41925408  1
  Na  Na27  1  0.66765545  0.03998233  0.41764790  1
  Na  Na28  1  0.35298010  0.66389575  0.41653169  1
  Na  Na29  1  0.85410384  0.66556456  0.41632606  1
  Na  Na30  1  0.00122674  0.00007850  0.50004261  1
  Na  Na31  1  0.49912941  0.99882873  0.49496180  1
  Na  Na32  1  0.00029578  0.00143034  0.00037900  1
  Na  Na33  1  0.49959570  0.00003783  0.99960498  1
  Na  Na34  1  0.33159275  0.32583205  0.82837451  1
  Na  Na35  1  0.83836557  0.33485956  0.83271018  1
  Na  Na36  1  0.33628651  0.34374776  0.33700817  1
  Na  Na37  1  0.83687768  0.34440852  0.33661802  1
  Na  Na38  1  0.16471124  0.65591784  0.16303711  1
  Na  Na39  1  0.66462833  0.65580945  0.16298279  1
  Na  Na40  1  0.16381921  0.67312109  0.66804049  1
  Na  Na41  1  0.66704092  0.66704775  0.66654886  1
  Ta  Ta42  1  0.49775663  0.99749619  0.64720789  1
  Ta  Ta43  1  0.83876080  0.33806433  0.68777618  1
  Ta  Ta44  1  0.33868849  0.34622968  0.18672356  1
  Ta  Ta45  1  0.83886671  0.34656599  0.18673380  1
  Ta  Ta46  1  0.33312717  0.33483756  0.98022538  1
  Ta  Ta47  1  0.83307619  0.33349010  0.98071519  1
  Ta  Ta48  1  0.16611940  0.66826793  0.51968562  1
  Ta  Ta49  1  0.66640606  0.66577203  0.51861042  1
  Ta  Ta50  1  0.16548409  0.65346779  0.31309339  1
  Ta  Ta51  1  0.66551665  0.65406279  0.31287357  1
  Ta  Ta52  1  0.16475156  0.67277030  0.81418547  1
  Ta  Ta53  1  0.66735754  0.66904561  0.81388151  1
  Ga  Ga54  1  0.99150404  0.99577627  0.35460050  1
  Ga  Ga55  1  0.49090873  0.99513173  0.35406831  1
  Ga  Ga56  1  0.99343961  0.99018276  0.85388909  1
  Ga  Ga57  1  0.49829613  0.99878857  0.85200902  1
  Ga  Ga58  1  0.99634474  0.98672234  0.64571135  1
  Ga  Ga59  1  0.99361008  0.00457092  0.14549741  1
  Ga  Ga60  1  0.49330143  0.00434531  0.14532743  1
  Ga  Ga61  1  0.33658215  0.32718923  0.68090577  1
  Ga  Ga62  1  0.33211528  0.33100013  0.48186958  1
  Ga  Ga63  1  0.83444094  0.33352515  0.48085544  1
  Ga  Ga64  1  0.16689559  0.66616454  0.01843553  1
  Ga  Ga65  1  0.66666517  0.66618960  0.01893219  1
  Si  Si66  1  0.35854011  0.71519019  0.25032422  1
  Si  Si67  1  0.85869463  0.71550204  0.25038151  1
  Si  Si68  1  0.00090645  0.28435426  0.24962096  1
  Si  Si69  1  0.50080872  0.28425147  0.24957675  1
  Si  Si70  1  0.64447430  0.28811118  0.75211439  1
  Si  Si71  1  0.00316826  0.72038255  0.74976808  1
  Si  Si72  1  0.49620566  0.70457792  0.75175436  1
  Si  Si73  1  0.35270491  0.00406381  0.75201446  1
  Si  Si74  1  0.86041619  0.00426506  0.75008126  1
  Si  Si75  1  0.47644390  0.33356603  0.58239675  1
  Si  Si76  1  0.97833955  0.32844361  0.58122536  1
  Si  Si77  1  0.18908756  0.05122138  0.58376011  1
  Si  Si78  1  0.69000184  0.04695761  0.58181830  1
  Si  Si79  1  0.33215991  0.61363591  0.58387670  1
  Si  Si80  1  0.83469975  0.62244821  0.58135864  1
  Si  Si81  1  0.48273431  0.63287895  0.08303259  1
  Si  Si82  1  0.98288880  0.63310511  0.08291224  1
  Si  Si83  1  0.33166051  0.03846607  0.08416989  1
  Si  Si84  1  0.83169212  0.03796457  0.08452068  1
  Si  Si85  1  0.18507498  0.33125426  0.08429945  1
  Si  Si86  1  0.68505769  0.33122975  0.08433418  1
  Si  Si87  1  0.31164507  0.67052597  0.91757472  1
  Si  Si88  1  0.81200510  0.66908460  0.91917166  1
  Si  Si89  1  0.02309761  0.37410939  0.91838440  1
  Si  Si90  1  0.52257387  0.37466569  0.91854184  1
  Si  Si91  1  0.16427205  0.95654019  0.91895221  1
  Si  Si92  1  0.66419675  0.95534842  0.91919671  1
  Si  Si93  1  0.31255010  0.96176620  0.41552978  1
  Si  Si94  1  0.81288155  0.96229378  0.41556095  1
  Si  Si95  1  0.16624586  0.36757363  0.41750285  1
  Si  Si96  1  0.66649164  0.36696910  0.41664348  1
  Si  Si97  1  0.01939761  0.66857637  0.41519738  1
  Si  Si98  1  0.51910343  0.66823779  0.41534289  1
  S  S99  1  0.14448435  0.00017981  0.25003072  1
  S  S100  1  0.64462016  0.00033269  0.25020533  1
  S  S101  1  0.14463805  0.28784570  0.75055479  1
  O  O102  1  0.10737736  0.02700262  0.30474864  1
  O  O103  1  0.60744285  0.02691018  0.30488574  1
  O  O104  1  0.41371077  0.79236607  0.31133756  1
  O  O105  1  0.91367989  0.79292979  0.31133362  1
  O  O106  1  0.48093551  0.16828332  0.30981197  1
  O  O107  1  0.98049621  0.16774714  0.30972592  1
  O  O108  1  0.10492474  0.18729433  0.80550440  1
  O  O109  1  0.60403978  0.16858682  0.80987549  1
  O  O110  1  0.48220956  0.79402982  0.80981825  1
  O  O111  1  0.98133672  0.79350277  0.80978787  1
  O  O112  1  0.41433872  0.03778009  0.80945858  1
  O  O113  1  0.91292233  0.03215450  0.81145687  1
  O  O114  1  0.39983125  0.96883884  0.69242052  1
  O  O115  1  0.89697263  0.96166277  0.69014461  1
  O  O116  1  0.09307141  0.21386430  0.69553743  1
  O  O117  1  0.58419083  0.20116237  0.69181464  1
  O  O118  1  0.01631102  0.82570925  0.68856401  1
  O  O119  1  0.51678622  0.83243820  0.69222567  1
  O  O120  1  0.39671897  0.83194425  0.19035359  1
  O  O121  1  0.89654308  0.83174042  0.19026446  1
  O  O122  1  0.01733455  0.20707218  0.18878455  1
  O  O123  1  0.51756634  0.20716750  0.18882168  1
  O  O124  1  0.09364999  0.97305805  0.19501641  1
  O  O125  1  0.59361127  0.97296578  0.19507686  1
  O  O126  1  0.44259876  0.37920568  0.64293958  1
  O  O127  1  0.93217835  0.36808511  0.63909197  1
  O  O128  1  0.25374810  0.12850564  0.64045352  1
  O  O129  1  0.74954433  0.13273240  0.64197635  1
  O  O130  1  0.31351260  0.50025633  0.64432426  1
  O  O131  1  0.81492401  0.49828815  0.64128553  1
  O  O132  1  0.43233437  0.49871294  0.13931859  1
  O  O133  1  0.93229347  0.49882165  0.13918956  1
  O  O134  1  0.31696125  0.13497218  0.14220337  1
  O  O135  1  0.81687396  0.13496804  0.14226271  1
  O  O136  1  0.25241488  0.36208498  0.13963289  1
  O  O137  1  0.75247663  0.36217353  0.13956804  1
  O  O138  1  0.23315972  0.30078873  0.02489297  1
  O  O139  1  0.73340391  0.30100872  0.02488385  1
  O  O140  1  0.41723153  0.53595326  0.02505919  1
  O  O141  1  0.91711053  0.53578265  0.02490805  1
  O  O142  1  0.34820851  0.16802768  0.02579604  1
  O  O143  1  0.84814664  0.16728165  0.02593698  1
  O  O144  1  0.22787811  0.16373777  0.52274767  1
  O  O145  1  0.72829283  0.16518280  0.52331961  1
  O  O146  1  0.35535525  0.54245559  0.52430480  1
  O  O147  1  0.85099842  0.53656791  0.52317604  1
  O  O148  1  0.41772008  0.29092039  0.52321067  1
  O  O149  1  0.91751146  0.29056313  0.52323376  1
  O  O150  1  0.26938152  0.70485127  0.97600601  1
  O  O151  1  0.76914803  0.70397177  0.97658874  1
  O  O152  1  0.08182466  0.45762545  0.97729526  1
  O  O153  1  0.58286393  0.46097113  0.97638016  1
  O  O154  1  0.14541339  0.83542017  0.97680489  1
  O  O155  1  0.64780050  0.83501591  0.97675109  1
  O  O156  1  0.26489019  0.83334748  0.47408745  1
  O  O157  1  0.76448917  0.83306892  0.47421594  1
  O  O158  1  0.14940825  0.46475988  0.47531997  1
  O  O159  1  0.64976511  0.46399333  0.47486657  1
  O  O160  1  0.08237464  0.69819323  0.47462449  1
  O  O161  1  0.58236048  0.69868590  0.47530856  1
  O  O162  1  0.07113170  0.63745763  0.36009281  1
  O  O163  1  0.57154803  0.63829909  0.36052846  1
  O  O164  1  0.24960023  0.86491105  0.35765411  1
  O  O165  1  0.74934065  0.86521618  0.35800021  1
  O  O166  1  0.18271956  0.50107850  0.36087508  1
  O  O167  1  0.68276648  0.50122495  0.36067145  1
  O  O168  1  0.06861829  0.50488511  0.86058088  1
  O  O169  1  0.56719234  0.50179191  0.85856188  1
  O  O170  1  0.18478427  0.86538176  0.86066612  1
  O  O171  1  0.68376818  0.86790570  0.85887029  1
  O  O172  1  0.24859110  0.62953024  0.85787552  1
  O  O173  1  0.75002320  0.63218179  0.85845299  1
  O  O174  1  0.01582395  0.84474223  0.41034556  1
  O  O175  1  0.51620830  0.84528835  0.41080148  1
  O  O176  1  0.40524919  0.97168621  0.41410752  1
  O  O177  1  0.90509982  0.97167455  0.41415488  1
  O  O178  1  0.07988999  0.18352920  0.40949582  1
  O  O179  1  0.57972591  0.18308366  0.40976684  1
  O  O180  1  0.01204538  0.18469031  0.90948169  1
  O  O181  1  0.51068664  0.18504696  0.91042079  1
  O  O182  1  0.08273626  0.98380318  0.90788540  1
  O  O183  1  0.58155823  0.97939072  0.91104877  1
  O  O184  1  0.40709959  0.83561163  0.91073777  1
  O  O185  1  0.90727775  0.83460659  0.91260503  1
  O  O186  1  0.48986215  0.16378130  0.59010345  1
  O  O187  1  0.99175846  0.16512516  0.59210397  1
  O  O188  1  0.09246859  0.02453593  0.59010351  1
  O  O189  1  0.59282848  0.02098734  0.59076899  1
  O  O190  1  0.41737171  0.81267092  0.59104463  1
  O  O191  1  0.91719007  0.81384121  0.58731680  1
  O  O192  1  0.48815212  0.81681512  0.09069175  1
  O  O193  1  0.98795545  0.81664895  0.09056680  1
  O  O194  1  0.41924028  0.02856540  0.08602840  1
  O  O195  1  0.91933163  0.02849729  0.08602880  1
  O  O196  1  0.09347847  0.15510925  0.08940390  1
  O  O197  1  0.59357048  0.15518825  0.08938527  1
  O  O198  1  0.34588700  0.17574809  0.74361357  1
  O  O199  1  0.84118431  0.16623286  0.74351086  1
  O  O200  1  0.23290515  0.31483180  0.74662574  1
  O  O201  1  0.74075770  0.31275703  0.74337451  1
  O  O202  1  0.41193240  0.51570739  0.74420581  1
  O  O203  1  0.91462545  0.52494693  0.74286061  1
  O  O204  1  0.34266901  0.51772566  0.24304287  1
  O  O205  1  0.84257617  0.51776086  0.24306140  1
  O  O206  1  0.41219873  0.30056627  0.24279405  1
  O  O207  1  0.91219290  0.30080559  0.24272005  1
  O  O208  1  0.23430769  0.15397429  0.24464825  1
  O  O209  1  0.73431501  0.15386193  0.24478882  1
  O  O210  1  0.31913432  0.49334626  0.92245173  1
  O  O211  1  0.81920495  0.49228160  0.92192607  1
  O  O212  1  0.42735048  0.36163657  0.92251402  1
  O  O213  1  0.92719096  0.35950345  0.92265042  1
  O  O214  1  0.25340555  0.14619301  0.92243910  1
  O  O215  1  0.75363274  0.14580903  0.92229363  1
  O  O216  1  0.31927230  0.14733533  0.42076020  1
  O  O217  1  0.81865260  0.14684933  0.42132021  1
  O  O218  1  0.25417506  0.36154974  0.42149958  1
  O  O219  1  0.75396650  0.36012236  0.42110513  1
  O  O220  1  0.42744367  0.49462172  0.42110465  1
  O  O221  1  0.92740143  0.49457417  0.42082878  1
  O  O222  1  0.18030709  0.50547548  0.07909380  1
  O  O223  1  0.68030989  0.50539690  0.07900718  1
  O  O224  1  0.07372810  0.63959475  0.07870450  1
  O  O225  1  0.57371797  0.63956795  0.07884291  1
  O  O226  1  0.24552849  0.85312484  0.07876892  1
  O  O227  1  0.74557574  0.85287312  0.07909031  1
  O  O228  1  0.17813495  0.85394898  0.57603882  1
  O  O229  1  0.67882179  0.85288624  0.57803922  1
  O  O230  1  0.24860246  0.64405774  0.57684462  1
  O  O231  1  0.74659751  0.63948661  0.57739349  1
  O  O232  1  0.07317952  0.50618906  0.57771328  1
  O  O233  1  0.57463234  0.50271557  0.57612845  1
  O  O234  1  0.15743458  0.84611983  0.25523229  1
  O  O235  1  0.65742382  0.84600672  0.25537351  1
  O  O236  1  0.26179136  0.69918400  0.25734718  1
  O  O237  1  0.76177230  0.69929531  0.25746414  1
  O  O238  1  0.08367087  0.48204469  0.25694179  1
  O  O239  1  0.58363454  0.48210644  0.25710980  1
  O  O240  1  0.15504184  0.46831530  0.75572977  1
  O  O241  1  0.65435881  0.48092500  0.75505505  1
  O  O242  1  0.08503882  0.68662072  0.75688390  1
  O  O243  1  0.58551071  0.69130219  0.75529662  1
  O  O244  1  0.26065146  0.81943282  0.75556862  1
  O  O245  1  0.76068851  0.83116831  0.75668594  1
