# generated using pymatgen
data_Ca2SiO4
_symmetry_space_group_name_H-M   'P 1'
_cell_length_a   5.40065854
_cell_length_b   7.05805136
_cell_length_c   9.83234482
_cell_angle_alpha   89.95163259
_cell_angle_beta   90.00000000
_cell_angle_gamma   90.00000000
_symmetry_Int_Tables_number   1
_chemical_formula_structural   Ca2SiO4
_chemical_formula_sum   'Ca8 Si4 O16'
_cell_volume   374.79041882
_cell_formula_units_Z   4
loop_
 _symmetry_equiv_pos_site_id
 _symmetry_equiv_pos_as_xyz
  1  'x, y, z'
loop_
 _atom_site_type_symbol
 _atom_site_label
 _atom_site_symmetry_multiplicity
 _atom_site_fract_x
 _atom_site_fract_y
 _atom_site_fract_z
 _atom_site_occupancy
  Ca  Ca0  1  0.99041047  0.75066703  0.15442182  1
  Ca  Ca1  1  0.00958953  0.24933297  0.84557818  1
  Ca  Ca2  1  0.00000000  0.50000000  0.50000000  1
  Ca  Ca3  1  0.00000000  -0.00000000  0.50000000  1
  Ca  Ca4  1  0.49041047  0.24933297  0.34557818  1
  Ca  Ca5  1  0.50958953  0.75066703  0.65442182  1
  Ca  Ca6  1  0.50000000  0.50000000  0.00000000  1
  Ca  Ca7  1  0.50000000  -0.00000000  0.00000000  1
  Si  Si8  1  0.99015641  0.25052404  0.17857332  1
  Si  Si9  1  0.00984359  0.74947596  0.82142668  1
  Si  Si10  1  0.50984359  0.25052404  0.67857332  1
  Si  Si11  1  0.49015641  0.74947596  0.32142668  1
  O  O12  1  0.94666767  0.24990353  0.34664158  1
  O  O13  1  0.05333233  0.75009647  0.65335842  1
  O  O14  1  0.14525330  0.55917611  0.88130116  1
  O  O15  1  0.14569851  0.93922448  0.88181428  1
  O  O16  1  0.28791479  0.24997337  0.13490707  1
  O  O17  1  0.35430149  0.93922448  0.38181428  1
  O  O18  1  0.21208521  0.24997337  0.63490707  1
  O  O19  1  0.35474670  0.55917611  0.38130116  1
  O  O20  1  0.44666767  0.75009647  0.15335842  1
  O  O21  1  0.55333233  0.24990353  0.84664158  1
  O  O22  1  0.64525330  0.44082389  0.61869884  1
  O  O23  1  0.78791479  0.75002663  0.36509293  1
  O  O24  1  0.64569851  0.06077552  0.61818572  1
  O  O25  1  0.71208521  0.75002663  0.86509293  1
  O  O26  1  0.85430149  0.06077552  0.11818572  1
  O  O27  1  0.85474670  0.44082389  0.11869884  1
