# generated using pymatgen
data_Na6La3NbSi2(PO6)4
_symmetry_space_group_name_H-M   'P 1'
_cell_length_a   16.60650448
_cell_length_b   9.47688737
_cell_length_c   9.61085830
_cell_angle_alpha   90.57582824
_cell_angle_beta   125.40254064
_cell_angle_gamma   89.57521769
_symmetry_Int_Tables_number   1
_chemical_formula_structural   Na6La3NbSi2(PO6)4
_chemical_formula_sum   'Na12 La6 Nb2 Si4 P8 O48'
_cell_volume   1232.80780519
_cell_formula_units_Z   2
loop_
 _symmetry_equiv_pos_site_id
 _symmetry_equiv_pos_as_xyz
  1  'x, y, z'
loop_
 _atom_site_type_symbol
 _atom_site_label
 _atom_site_symmetry_multiplicity
 _atom_site_fract_x
 _atom_site_fract_y
 _atom_site_fract_z
 _atom_site_occupancy
  Na  Na0  1  0.25170656  0.75082117  0.99895297  1
  Na  Na1  1  0.74885677  0.76030301  0.50288548  1
  Na  Na2  1  0.75170656  0.25082117  0.99895297  1
  Na  Na3  1  0.24885677  0.26030301  0.50288548  1
  Na  Na4  1  0.50428605  0.07026040  0.75034128  1
  Na  Na5  1  0.50364997  0.91009132  0.24388084  1
  Na  Na6  1  0.00428605  0.57026040  0.75034128  1
  Na  Na7  1  0.00364997  0.41009132  0.24388084  1
  Na  Na8  1  0.18379988  0.92074546  0.30391861  1
  Na  Na9  1  0.81219173  0.09201531  0.70783034  1
  Na  Na10  1  0.68379988  0.42074546  0.30391861  1
  Na  Na11  1  0.31219173  0.59201531  0.70783034  1
  La  La12  1  0.10124915  0.76647457  0.56355801  1
  La  La13  1  0.89858253  0.23740318  0.44070735  1
  La  La14  1  0.10808507  0.25302848  0.05395383  1
  La  La15  1  0.60124915  0.26647457  0.56355801  1
  La  La16  1  0.39858253  0.73740318  0.44070735  1
  La  La17  1  0.60808507  0.75302848  0.05395383  1
  Nb  Nb18  1  0.89734969  0.74364050  0.94988756  1
  Nb  Nb19  1  0.39734969  0.24364050  0.94988756  1
  Si  Si20  1  0.35137622  0.91291840  0.75681057  1
  Si  Si21  1  0.64948735  0.11124809  0.25186682  1
  Si  Si22  1  0.85137622  0.41291840  0.75681057  1
  Si  Si23  1  0.14948735  0.61124809  0.25186682  1
  P  P24  1  0.99347878  0.93232070  0.76993215  1
  P  P25  1  0.99037853  0.04531575  0.22826979  1
  P  P26  1  0.49347878  0.43232070  0.76993215  1
  P  P27  1  0.49037853  0.54531575  0.22826979  1
  P  P28  1  0.65887860  0.89677259  0.74411282  1
  P  P29  1  0.35622877  0.09376840  0.24612929  1
  P  P30  1  0.15887860  0.39677259  0.74411282  1
  P  P31  1  0.85622877  0.59376840  0.24612929  1
  O  O32  1  0.17030676  0.55958477  0.74785733  1
  O  O33  1  0.84757772  0.58996147  0.78195340  1
  O  O34  1  0.85069749  0.43215373  0.21602271  1
  O  O35  1  0.15102039  0.43924185  0.25527977  1
  O  O36  1  0.67030676  0.05958477  0.74785733  1
  O  O37  1  0.34757772  0.08996147  0.78195340  1
  O  O38  1  0.35069749  0.93215373  0.21602271  1
  O  O39  1  0.65102039  0.93924185  0.25527977  1
  O  O40  1  0.43105088  0.52838435  0.60979504  1
  O  O41  1  0.55635666  0.52295544  0.93048499  1
  O  O42  1  0.54248517  0.46067780  0.39425193  1
  O  O43  1  0.43804064  0.43675775  0.07414296  1
  O  O44  1  0.93105088  0.02838435  0.60979504  1
  O  O45  1  0.05635666  0.02295544  0.93048499  1
  O  O46  1  0.04248517  0.96067780  0.39425193  1
  O  O47  1  0.93804064  0.93675775  0.07414296  1
  O  O48  1  0.26560616  0.83498503  0.75949326  1
  O  O49  1  0.75438744  0.82977011  0.77398644  1
  O  O50  1  0.72651816  0.19306839  0.22592588  1
  O  O51  1  0.26912870  0.14832995  0.24670264  1
  O  O52  1  0.76560616  0.33498503  0.75949326  1
  O  O53  1  0.25438744  0.32977011  0.77398644  1
  O  O54  1  0.22651816  0.69306839  0.22592588  1
  O  O55  1  0.76912870  0.64832995  0.24670264  1
  O  O56  1  0.34687952  0.89075488  0.58040262  1
  O  O57  1  0.64922246  0.86055501  0.88943970  1
  O  O58  1  0.66636225  0.16791330  0.42706433  1
  O  O59  1  0.35824112  0.16497706  0.09589127  1
  O  O60  1  0.84687952  0.39075488  0.58040262  1
  O  O61  1  0.14922246  0.36055501  0.88943970  1
  O  O62  1  0.16636225  0.66791330  0.42706433  1
  O  O63  1  0.85824112  0.66497706  0.09589127  1
  O  O64  1  0.45880232  0.86180511  0.91933958  1
  O  O65  1  0.56677230  0.84176906  0.57153983  1
  O  O66  1  0.53014940  0.16820479  0.08817660  1
  O  O67  1  0.45411144  0.13059276  0.41581911  1
  O  O68  1  0.95880232  0.36180511  0.91933958  1
  O  O69  1  0.06677230  0.34176906  0.57153983  1
  O  O70  1  0.03014940  0.66820479  0.08817660  1
  O  O71  1  0.95411144  0.63059276  0.41581911  1
  O  O72  1  0.05773756  0.81938227  0.76036113  1
  O  O73  1  0.91328324  0.84680423  0.77541547  1
  O  O74  1  0.91246434  0.14677022  0.21276765  1
  O  O75  1  0.07321225  0.12747336  0.23484865  1
  O  O76  1  0.55773756  0.31938227  0.76036113  1
  O  O77  1  0.41328324  0.34680423  0.77541547  1
  O  O78  1  0.41246434  0.64677022  0.21276765  1
  O  O79  1  0.57321225  0.62747336  0.23484865  1
