# generated using pymatgen
data_Na18Nb4Zn8Si9(SO8)9
_symmetry_space_group_name_H-M   'P 1'
_cell_length_a   9.06537475
_cell_length_b   9.11715965
_cell_length_c   22.36287340
_cell_angle_alpha   90.77153955
_cell_angle_beta   89.32140515
_cell_angle_gamma   119.92572533
_symmetry_Int_Tables_number   1
_chemical_formula_structural   Na18Nb4Zn8Si9(SO8)9
_chemical_formula_sum   'Na18 Nb4 Zn8 Si9 S9 O72'
_cell_volume   1601.69987564
_cell_formula_units_Z   1
loop_
 _symmetry_equiv_pos_site_id
 _symmetry_equiv_pos_as_xyz
  1  'x, y, z'
loop_
 _atom_site_type_symbol
 _atom_site_label
 _atom_site_symmetry_multiplicity
 _atom_site_fract_x
 _atom_site_fract_y
 _atom_site_fract_z
 _atom_site_occupancy
  Na  Na0  1  0.65699195  0.02970154  0.25579396  1
  Na  Na1  1  0.35117441  0.34022769  0.25233671  1
  Na  Na2  1  0.98983040  0.63183887  0.24101794  1
  Na  Na3  1  0.64387544  0.63122283  0.73416082  1
  Na  Na4  1  0.98747121  0.34403293  0.73842157  1
  Na  Na5  1  0.37821403  0.03455820  0.74901578  1
  Na  Na6  1  0.29639671  0.33913128  0.59035996  1
  Na  Na7  1  0.03064396  0.69572118  0.58617028  1
  Na  Na8  1  0.67462881  0.95118973  0.58148813  1
  Na  Na9  1  0.27796170  0.94823398  0.08351849  1
  Na  Na10  1  0.67840558  0.70902963  0.08407832  1
  Na  Na11  1  0.03262658  0.33766396  0.09302673  1
  Na  Na12  1  0.97719729  0.99646395  0.49683886  1
  Na  Na13  1  0.00907833  0.98588223  0.99221456  1
  Na  Na14  1  0.64828284  0.31664357  0.82353124  1
  Na  Na15  1  0.66253866  0.31382726  0.33203037  1
  Na  Na16  1  0.30986281  0.66152890  0.16420179  1
  Na  Na17  1  0.33588877  0.65269404  0.65492532  1
  Nb  Nb18  1  0.66777518  0.33822279  0.97565373  1
  Nb  Nb19  1  0.67679810  0.33034119  0.48139450  1
  Nb  Nb20  1  0.33212099  0.67614084  0.31721045  1
  Nb  Nb21  1  0.34261447  0.67911710  0.81387242  1
  Zn  Zn22  1  0.00286967  0.02578363  0.35070583  1
  Zn  Zn23  1  0.02141802  0.02046272  0.84597907  1
  Zn  Zn24  1  0.98039226  0.02286227  0.64730253  1
  Zn  Zn25  1  0.02017920  0.00286820  0.16173133  1
  Zn  Zn26  1  0.66771129  0.33494801  0.68068591  1
  Zn  Zn27  1  0.67983677  0.32754068  0.18679043  1
  Zn  Zn28  1  0.30446943  0.67563063  0.01117595  1
  Zn  Zn29  1  0.35493800  0.66385010  0.51819823  1
  Si  Si30  1  0.29363047  0.00285811  0.24977866  1
  Si  Si31  1  0.00161565  0.29516945  0.24788662  1
  Si  Si32  1  0.29882204  0.29471552  0.74860883  1
  Si  Si33  1  0.71744435  0.00542462  0.75204631  1
  Si  Si34  1  0.97107244  0.34198469  0.58589877  1
  Si  Si35  1  0.67137118  0.62918527  0.58630056  1
  Si  Si36  1  0.95957850  0.62870339  0.08612757  1
  Si  Si37  1  0.31947219  0.96387463  0.92092461  1
  Si  Si38  1  0.63818731  0.96250416  0.42224182  1
  S  S39  1  0.69946193  0.70469235  0.25008054  1
  S  S40  1  0.00497874  0.70734107  0.75279337  1
  S  S41  1  0.37412854  0.04090928  0.58343800  1
  S  S42  1  0.66552713  0.03987089  0.08111959  1
  S  S43  1  0.37762921  0.33828023  0.08197604  1
  S  S44  1  0.62167096  0.66502388  0.92026503  1
  S  S45  1  0.03829240  0.37127392  0.91966869  1
  S  S46  1  0.33806514  0.37339078  0.41741772  1
  S  S47  1  0.03601859  0.66581958  0.41950923  1
  O  O48  1  0.19605411  0.03029397  0.30485087  1
  O  O49  1  0.80862847  0.78465234  0.30126451  1
  O  O50  1  0.94942119  0.16124798  0.30017612  1
  O  O51  1  0.22518422  0.17057164  0.80467116  1
  O  O52  1  0.98197088  0.78887366  0.80544891  1
  O  O53  1  0.83054417  0.02698129  0.80939288  1
  O  O54  1  0.76327626  0.93863164  0.69053842  1
  O  O55  1  0.18023747  0.23267873  0.68862571  1
  O  O56  1  0.04469636  0.80463259  0.69733843  1
  O  O57  1  0.76468504  0.80477571  0.19378395  1
  O  O58  1  0.04780125  0.22693806  0.18503152  1
  O  O59  1  0.18417999  0.93808467  0.18737560  1
  O  O60  1  0.88527544  0.36837526  0.64565615  1
  O  O61  1  0.47276345  0.11297035  0.63886130  1
  O  O62  1  0.63559823  0.51265340  0.64417698  1
  O  O63  1  0.86841076  0.51425660  0.14413801  1
  O  O64  1  0.63412387  0.10959741  0.13689463  1
  O  O65  1  0.47185748  0.35527537  0.13704261  1
  O  O66  1  0.47478989  0.32013635  0.02862681  1
  O  O67  1  0.83048837  0.51206583  0.02757236  1
  O  O68  1  0.67815417  0.15139714  0.02915372  1
  O  O69  1  0.47094688  0.15192749  0.53052218  1
  O  O70  1  0.67776001  0.50877611  0.52727398  1
  O  O71  1  0.83596400  0.31596562  0.52747596  1
  O  O72  1  0.53496444  0.67224968  0.97511568  1
  O  O73  1  0.13298659  0.44937128  0.97530756  1
  O  O74  1  0.31600285  0.87534539  0.98309872  1
  O  O75  1  0.54012936  0.86173247  0.48091400  1
  O  O76  1  0.31759951  0.45159641  0.47228317  1
  O  O77  1  0.13289189  0.67895535  0.47234954  1
  O  O78  1  0.12550357  0.64117508  0.36344411  1
  O  O79  1  0.50402468  0.85303462  0.36312332  1
  O  O80  1  0.35229305  0.48001676  0.36313687  1
  O  O81  1  0.12106923  0.47827168  0.86694305  1
  O  O82  1  0.35049528  0.85791502  0.86420408  1
  O  O83  1  0.51413776  0.63886826  0.86628079  1
  O  O84  1  0.01407337  0.81124356  0.41005275  1
  O  O85  1  0.82211066  0.98170469  0.41187759  1
  O  O86  1  0.19151659  0.20274664  0.41172667  1
  O  O87  1  0.00582521  0.19888334  0.91501229  1
  O  O88  1  0.15750641  0.98590855  0.91176559  1
  O  O89  1  0.79242544  0.80881358  0.91405059  1
  O  O90  1  0.97803224  0.16784234  0.57966312  1
  O  O91  1  0.20856597  0.03489453  0.58382224  1
  O  O92  1  0.85161255  0.80703692  0.58289043  1
  O  O93  1  0.96869491  0.81247655  0.08290385  1
  O  O94  1  0.82739220  0.03714948  0.08145497  1
  O  O95  1  0.20842971  0.18349227  0.07930940  1
  O  O96  1  0.67876693  0.16084430  0.74719107  1
  O  O97  1  0.49615021  0.33709424  0.74419514  1
  O  O98  1  0.85974733  0.53273890  0.74920105  1
  O  O99  1  0.66546704  0.52841450  0.24364355  1
  O  O100  1  0.84671094  0.33826544  0.24677093  1
  O  O101  1  0.48614699  0.16603013  0.24312836  1
  O  O102  1  0.63500076  0.50153309  0.92163409  1
  O  O103  1  0.86321201  0.36240930  0.92315394  1
  O  O104  1  0.50588158  0.15531400  0.92501602  1
  O  O105  1  0.64173553  0.15038776  0.42162777  1
  O  O106  1  0.50083183  0.36747570  0.41743766  1
  O  O107  1  0.86545087  0.50275054  0.41872309  1
  O  O108  1  0.36575117  0.49347755  0.07461445  1
  O  O109  1  0.14674484  0.63966623  0.08098364  1
  O  O110  1  0.52056464  0.86426994  0.07495444  1
  O  O111  1  0.35048207  0.86923785  0.57651650  1
  O  O112  1  0.50489466  0.65201752  0.58105835  1
  O  O113  1  0.15211949  0.51397420  0.57493817  1
  O  O114  1  0.31953174  0.82972337  0.26191585  1
  O  O115  1  0.52340283  0.68830268  0.25769381  1
  O  O116  1  0.18135493  0.48607305  0.25979670  1
  O  O117  1  0.31044212  0.48630549  0.76513205  1
  O  O118  1  0.16368962  0.68415159  0.76057174  1
  O  O119  1  0.51566681  0.82867523  0.76356330  1
