# generated using pymatgen
data_Na3Ti3Al(PO4)6
_symmetry_space_group_name_H-M   'P 1'
_cell_length_a   8.60183327
_cell_length_b   8.59937402
_cell_length_c   22.07749070
_cell_angle_alpha   90.06600606
_cell_angle_beta   89.92973991
_cell_angle_gamma   120.24066443
_symmetry_Int_Tables_number   1
_chemical_formula_structural   Na3Ti3Al(PO4)6
_chemical_formula_sum   'Na9 Ti9 Al3 P18 O72'
_cell_volume   1410.84554120
_cell_formula_units_Z   3
loop_
 _symmetry_equiv_pos_site_id
 _symmetry_equiv_pos_as_xyz
  1  'x, y, z'
loop_
 _atom_site_type_symbol
 _atom_site_label
 _atom_site_symmetry_multiplicity
 _atom_site_fract_x
 _atom_site_fract_y
 _atom_site_fract_z
 _atom_site_occupancy
  Na  Na0  1  0.36392051  0.36373422  0.24803007  1
  Na  Na1  1  0.63617886  0.63579033  0.74902755  1
  Na  Na2  1  0.96982525  0.30234489  0.41529788  1
  Na  Na3  1  0.00089703  0.99065944  0.49956141  1
  Na  Na4  1  0.99976504  0.99972678  0.00101637  1
  Na  Na5  1  0.66736903  0.32400041  0.83402665  1
  Na  Na6  1  0.66748625  0.33377361  0.33069311  1
  Na  Na7  1  0.33211349  0.67588598  0.16495232  1
  Na  Na8  1  0.32386418  0.66715338  0.66544646  1
  Ti  Ti9  1  -0.00005251  0.00179503  0.85407105  1
  Ti  Ti10  1  0.00182544  0.00230087  0.64452073  1
  Ti  Ti11  1  0.99781520  0.99704799  0.14538983  1
  Ti  Ti12  1  0.66685952  0.33398258  0.98107482  1
  Ti  Ti13  1  0.66040513  0.33389344  0.48112527  1
  Ti  Ti14  1  0.33423913  0.66693437  0.02323575  1
  Ti  Ti15  1  0.33297565  0.66813414  0.52145804  1
  Ti  Ti16  1  0.33456085  0.67339856  0.31112994  1
  Ti  Ti17  1  0.32753754  0.66790830  0.81387759  1
  Al  Al18  1  0.99971718  0.99520433  0.35159894  1
  Al  Al19  1  0.66801760  0.32916917  0.68640352  1
  Al  Al20  1  0.67180478  0.33243413  0.18683001  1
  P  P21  1  0.28808647  0.00289958  0.25027446  1
  P  P22  1  0.71818835  0.71130150  0.25094003  1
  P  P23  1  0.99000992  0.28267225  0.25150087  1
  P  P24  1  0.29210489  0.28671246  0.74904740  1
  P  P25  1  0.99857647  0.70834468  0.74842521  1
  P  P26  1  0.71312259  0.00868282  0.74906808  1
  P  P27  1  0.95059052  0.33395360  0.58445219  1
  P  P28  1  0.38249783  0.04794441  0.58573858  1
  P  P29  1  0.66485443  0.61772398  0.58611094  1
  P  P30  1  0.95088154  0.61688376  0.08539270  1
  P  P31  1  0.66700954  0.05060394  0.08542111  1
  P  P32  1  0.38273913  0.33357169  0.08605364  1
  P  P33  1  0.62069135  0.66583659  0.91633489  1
  P  P34  1  0.04480999  0.37848140  0.91761413  1
  P  P35  1  0.33271517  0.95469393  0.91749591  1
  P  P36  1  0.62564646  0.95331174  0.41624048  1
  P  P37  1  0.33204482  0.37435973  0.41488104  1
  P  P38  1  0.04649375  0.67584687  0.41607871  1
  O  O39  1  0.20325501  0.03917520  0.30591598  1
  O  O40  1  0.83207835  0.79909894  0.30707444  1
  O  O41  1  0.96683251  0.17400738  0.30975503  1
  O  O42  1  0.20267101  0.17020948  0.80581131  1
  O  O43  1  0.96279445  0.79418096  0.80491390  1
  O  O44  1  0.82923040  0.03372330  0.80602916  1
  O  O45  1  0.79808852  0.96699631  0.69390459  1
  O  O46  1  0.17158806  0.19967391  0.69314302  1
  O  O47  1  0.03013005  0.82860780  0.69266493  1
  O  O48  1  0.80039726  0.82880963  0.19385028  1
  O  O49  1  0.03282034  0.19905354  0.19619889  1
  O  O50  1  0.17023688  0.96903637  0.19342014  1
  O  O51  1  0.86320486  0.36392144  0.63972012  1
  O  O52  1  0.49836652  0.13513806  0.64125845  1
  O  O53  1  0.63677450  0.50604298  0.64328626  1
  O  O54  1  0.86458713  0.50114833  0.14117219  1
  O  O55  1  0.63546510  0.13517984  0.14116782  1
  O  O56  1  0.49428344  0.36272220  0.14339878  1
  O  O57  1  0.46989520  0.30523280  0.02862568  1
  O  O58  1  0.83738499  0.53249952  0.02709769  1
  O  O59  1  0.69613998  0.16391065  0.02721901  1
  O  O60  1  0.46811013  0.16289779  0.52751306  1
  O  O61  1  0.69431951  0.52943726  0.52888067  1
  O  O62  1  0.84119089  0.30401785  0.52499751  1
  O  O63  1  0.53148754  0.69545335  0.97221945  1
  O  O64  1  0.16218611  0.46596787  0.97368190  1
  O  O65  1  0.30315382  0.83707045  0.97347034  1
  O  O66  1  0.53590208  0.83699539  0.47293963  1
  O  O67  1  0.29730549  0.46307191  0.47077816  1
  O  O68  1  0.16257360  0.70065019  0.47304813  1
  O  O69  1  0.13237417  0.63422354  0.36086424  1
  O  O70  1  0.50440327  0.86528222  0.36019200  1
  O  O71  1  0.36358578  0.48964469  0.35750362  1
  O  O72  1  0.13454069  0.49569112  0.86022686  1
  O  O73  1  0.36142997  0.86574952  0.86012995  1
  O  O74  1  0.50915117  0.63834444  0.85770069  1
  O  O75  1  0.02845754  0.84147562  0.40803869  1
  O  O76  1  0.81405536  0.97725998  0.40896242  1
  O  O77  1  0.16113667  0.18864167  0.40852558  1
  O  O78  1  0.02762857  0.19174504  0.90998391  1
  O  O79  1  0.16365661  0.97162217  0.90943636  1
  O  O80  1  0.80869792  0.83591062  0.90980064  1
  O  O81  1  0.97133642  0.16521280  0.59030144  1
  O  O82  1  0.19333987  0.02803972  0.58969178  1
  O  O83  1  0.83481483  0.80693576  0.58990218  1
  O  O84  1  0.97186078  0.80664986  0.08990831  1
  O  O85  1  0.83521706  0.02923589  0.09053540  1
  O  O86  1  0.19253278  0.16516070  0.09025213  1
  O  O87  1  0.69472460  0.17448851  0.74189341  1
  O  O88  1  0.48103017  0.31118608  0.74231628  1
  O  O89  1  0.82821309  0.52280675  0.74162620  1
  O  O90  1  0.68857561  0.51991802  0.24313465  1
  O  O91  1  0.82627443  0.30480452  0.24292776  1
  O  O92  1  0.47566330  0.17157432  0.24248667  1
  O  O93  1  0.63921878  0.49774607  0.92243842  1
  O  O94  1  0.85819145  0.36007319  0.92224990  1
  O  O95  1  0.50195114  0.14183995  0.92240913  1
  O  O96  1  0.64757112  0.14363239  0.42243590  1
  O  O97  1  0.50117628  0.35750357  0.42276551  1
  O  O98  1  0.86013594  0.50091420  0.42297980  1
  O  O99  1  0.36290650  0.50231820  0.07779996  1
  O  O100  1  0.14032462  0.63832684  0.07743393  1
  O  O101  1  0.49845546  0.86020101  0.07733180  1
  O  O102  1  0.36164141  0.85928229  0.57739775  1
  O  O103  1  0.49682048  0.63690098  0.57722511  1
  O  O104  1  0.14098850  0.50212001  0.57697939  1
  O  O105  1  0.30660397  0.83305533  0.25707954  1
  O  O106  1  0.52434745  0.68783106  0.25661883  1
  O  O107  1  0.16594806  0.47283681  0.25716097  1
  O  O108  1  0.31421829  0.47720673  0.75550543  1
  O  O109  1  0.16766190  0.69101096  0.75553780  1
  O  O110  1  0.52652888  0.83393632  0.75598246  1
