# generated using pymatgen
data_Ca2V2O7
_symmetry_space_group_name_H-M   'P 1'
_cell_length_a   6.67743792
_cell_length_b   6.95984716
_cell_length_c   7.03579885
_cell_angle_alpha   85.81617553
_cell_angle_beta   63.84834332
_cell_angle_gamma   82.72471572
_symmetry_Int_Tables_number   1
_chemical_formula_structural   Ca2V2O7
_chemical_formula_sum   'Ca4 V4 O14'
_cell_volume   291.09150515
_cell_formula_units_Z   2
loop_
 _symmetry_equiv_pos_site_id
 _symmetry_equiv_pos_as_xyz
  1  'x, y, z'
loop_
 _atom_site_type_symbol
 _atom_site_label
 _atom_site_symmetry_multiplicity
 _atom_site_fract_x
 _atom_site_fract_y
 _atom_site_fract_z
 _atom_site_occupancy
  Ca  Ca0  1  0.26408339  0.55242702  0.26249432  1
  Ca  Ca1  1  0.73591846  0.44757616  0.73750346  1
  Ca  Ca2  1  0.74361760  0.84090708  0.32976742  1
  Ca  Ca3  1  0.25637950  0.15909565  0.67023141  1
  V  V4  1  0.72483416  0.94855015  0.84524983  1
  V  V5  1  0.27515887  0.05144790  0.15475600  1
  V  V6  1  0.19763302  0.66685329  0.76638724  1
  V  V7  1  0.80236483  0.33315006  0.23361531  1
  O  O8  1  0.75387890  0.78515804  0.67056451  1
  O  O9  1  0.24612903  0.21484536  0.32943262  1
  O  O10  1  0.35971080  0.82022051  0.57781643  1
  O  O11  1  0.64028977  0.17978324  0.42218511  1
  O  O12  1  0.34475352  0.55360035  0.89680489  1
  O  O13  1  0.65525030  0.44639722  0.10319262  1
  O  O14  1  0.88928885  0.12978560  0.73784584  1
  O  O15  1  0.11070061  0.87021466  0.26216708  1
  O  O16  1  0.04890993  0.19978356  0.06299181  1
  O  O17  1  0.95109082  0.80021454  0.93700917  1
  O  O18  1  0.46246679  0.09652064  0.86981538  1
  O  O19  1  0.13575557  0.49390499  0.63924349  1
  O  O20  1  0.86424700  0.50609694  0.36075157  1
  O  O21  1  0.53753530  0.90346602  0.13017751  1
