# generated using pymatgen
data_MgWCl4O
_symmetry_space_group_name_H-M   'P 1'
_cell_length_a   3.94591998
_cell_length_b   7.30081063
_cell_length_c   6.92404762
_cell_angle_alpha   84.35439236
_cell_angle_beta   73.39414431
_cell_angle_gamma   74.13578930
_symmetry_Int_Tables_number   1
_chemical_formula_structural   MgWCl4O
_chemical_formula_sum   'Mg1 W1 Cl4 O1'
_cell_volume   183.82665842
_cell_formula_units_Z   1
loop_
 _symmetry_equiv_pos_site_id
 _symmetry_equiv_pos_as_xyz
  1  'x, y, z'
loop_
 _atom_site_type_symbol
 _atom_site_label
 _atom_site_symmetry_multiplicity
 _atom_site_fract_x
 _atom_site_fract_y
 _atom_site_fract_z
 _atom_site_occupancy
  Mg  Mg0  1  0.36361400  0.03538800  0.35935400  1
  W  W1  1  0.08330300  0.96061700  0.99706300  1
  Cl  Cl2  1  0.13267500  0.16790600  0.69072800  1
  Cl  Cl3  1  0.98738100  0.79910700  0.34970300  1
  Cl  Cl4  1  0.31399200  0.67926600  0.81896300  1
  Cl  Cl5  1  0.81996000  0.25342300  0.23049300  1
  O  O6  1  0.54300600  0.98392200  0.05369500  1
