# generated using pymatgen
data_MgNb2(SCl)4
_symmetry_space_group_name_H-M   'P 1'
_cell_length_a   5.99561777
_cell_length_b   6.66026094
_cell_length_c   7.77347265
_cell_angle_alpha   75.96910708
_cell_angle_beta   57.40874047
_cell_angle_gamma   63.24965178
_symmetry_Int_Tables_number   1
_chemical_formula_structural   MgNb2(SCl)4
_chemical_formula_sum   'Mg1 Nb2 S4 Cl4'
_cell_volume   233.54355043
_cell_formula_units_Z   1
loop_
 _symmetry_equiv_pos_site_id
 _symmetry_equiv_pos_as_xyz
  1  'x, y, z'
loop_
 _atom_site_type_symbol
 _atom_site_label
 _atom_site_symmetry_multiplicity
 _atom_site_fract_x
 _atom_site_fract_y
 _atom_site_fract_z
 _atom_site_occupancy
  Mg  Mg0  1  0.92206348  0.15587403  0.50000000  1
  Nb  Nb1  1  0.87781961  0.24436177  1.00000000  1
  Nb  Nb2  1  0.11488886  0.77022128  0.00000000  1
  S  S3  1  0.80992084  0.00674623  0.30654380  1
  S  S4  1  0.18333293  0.00674623  0.69345620  1
  S  S5  1  0.42858358  0.00916217  0.89361027  1
  S  S6  1  0.56225425  0.00916217  0.10638973  1
  Cl  Cl7  1  0.91089945  0.45097213  0.23408957  1
  Cl  Cl8  1  0.63812843  0.45097213  0.76591043  1
  Cl  Cl9  1  0.06378793  0.56247444  0.78991607  1
  Cl  Cl10  1  0.37373764  0.56247444  0.21008392  1
