# generated using pymatgen
data_Na3Nb4Zn2(PO4)9
_symmetry_space_group_name_H-M   'P 1'
_cell_length_a   8.76915606
_cell_length_b   8.76915578
_cell_length_c   22.82726784
_cell_angle_alpha   90.00000000
_cell_angle_beta   90.00000000
_cell_angle_gamma   120.00000107
_symmetry_Int_Tables_number   1
_chemical_formula_structural   Na3Nb4Zn2(PO4)9
_chemical_formula_sum   'Na6 Nb8 Zn4 P18 O72'
_cell_volume   1520.19796081
_cell_formula_units_Z   2
loop_
 _symmetry_equiv_pos_site_id
 _symmetry_equiv_pos_as_xyz
  1  'x, y, z'
loop_
 _atom_site_type_symbol
 _atom_site_label
 _atom_site_symmetry_multiplicity
 _atom_site_fract_x
 _atom_site_fract_y
 _atom_site_fract_z
 _atom_site_occupancy
  Na  Na0  1  -0.00000000  -0.00000000  0.49448469  1
  Na  Na1  1  -0.00000000  -0.00000000  0.99448469  1
  Na  Na2  1  0.66666700  0.33333300  0.82484919  1
  Na  Na3  1  0.66666700  0.33333300  0.32484919  1
  Na  Na4  1  0.33333300  0.66666700  0.16697178  1
  Na  Na5  1  0.33333300  0.66666700  0.66697178  1
  Nb  Nb6  1  -0.00000000  -0.00000000  0.64903463  1
  Nb  Nb7  1  -0.00000000  -0.00000000  0.14903463  1
  Nb  Nb8  1  0.66666700  0.33333300  0.97871090  1
  Nb  Nb9  1  0.66666700  0.33333300  0.47871090  1
  Nb  Nb10  1  0.33333300  0.66666700  0.02007498  1
  Nb  Nb11  1  0.33333300  0.66666700  0.52007498  1
  Nb  Nb12  1  0.33333300  0.66666700  0.30920769  1
  Nb  Nb13  1  0.33333300  0.66666700  0.80920769  1
  Zn  Zn14  1  -0.00000000  -0.00000000  0.35201590  1
  Zn  Zn15  1  -0.00000000  -0.00000000  0.85201590  1
  Zn  Zn16  1  0.66666700  0.33333300  0.68559143  1
  Zn  Zn17  1  0.66666700  0.33333300  0.18559143  1
  P  P18  1  0.29273088  0.00742728  0.25269636  1
  P  P19  1  0.71469640  0.70726912  0.25269636  1
  P  P20  1  0.99257272  0.28530360  0.25269636  1
  P  P21  1  0.29273088  0.28530360  0.75269636  1
  P  P22  1  0.99257272  0.70726912  0.75269636  1
  P  P23  1  0.71469640  0.00742728  0.75269636  1
  P  P24  1  0.95340084  0.33219053  0.58469576  1
  P  P25  1  0.37879070  0.04659916  0.58469576  1
  P  P26  1  0.66780947  0.62120930  0.58469576  1
  P  P27  1  0.95340084  0.62120930  0.08469576  1
  P  P28  1  0.66780947  0.04659916  0.08469576  1
  P  P29  1  0.37879070  0.33219053  0.08469576  1
  P  P30  1  0.62460513  0.67030530  0.91612212  1
  P  P31  1  0.04569917  0.37539487  0.91612212  1
  P  P32  1  0.32969470  0.95430083  0.91612212  1
  P  P33  1  0.62460513  0.95430083  0.41612212  1
  P  P34  1  0.32969470  0.37539487  0.41612212  1
  P  P35  1  0.04569917  0.67030530  0.41612212  1
  O  O36  1  0.20787080  0.02743439  0.30641991  1
  O  O37  1  0.81956359  0.79212920  0.30641991  1
  O  O38  1  0.97256561  0.18043641  0.30641991  1
  O  O39  1  0.20787080  0.18043641  0.80641991  1
  O  O40  1  0.97256561  0.79212920  0.80641991  1
  O  O41  1  0.81956359  0.02743439  0.80641991  1
  O  O42  1  0.80044664  0.97065282  0.69567954  1
  O  O43  1  0.17020618  0.19955336  0.69567954  1
  O  O44  1  0.02934718  0.82979382  0.69567954  1
  O  O45  1  0.80044664  0.82979382  0.19567954  1
  O  O46  1  0.02934718  0.19955336  0.19567954  1
  O  O47  1  0.17020618  0.97065282  0.19567954  1
  O  O48  1  0.88256715  0.37075686  0.63839475  1
  O  O49  1  0.48819071  0.11743285  0.63839475  1
  O  O50  1  0.62924314  0.51180929  0.63839475  1
  O  O51  1  0.88256715  0.51180929  0.13839475  1
  O  O52  1  0.62924314  0.11743285  0.13839475  1
  O  O53  1  0.48819071  0.37075686  0.13839475  1
  O  O54  1  0.46693193  0.30582225  0.02832503  1
  O  O55  1  0.83889132  0.53306807  0.02832503  1
  O  O56  1  0.69417775  0.16110868  0.02832503  1
  O  O57  1  0.46693193  0.16110868  0.52832503  1
  O  O58  1  0.69417775  0.53306807  0.52832503  1
  O  O59  1  0.83889132  0.30582225  0.52832503  1
  O  O60  1  0.52604739  0.68526518  0.97116680  1
  O  O61  1  0.15921679  0.47395261  0.97116680  1
  O  O62  1  0.31473482  0.84078321  0.97116680  1
  O  O63  1  0.52604739  0.84078321  0.47116680  1
  O  O64  1  0.31473482  0.47395261  0.47116680  1
  O  O65  1  0.15921679  0.68526518  0.47116680  1
  O  O66  1  0.13241388  0.63601412  0.36214397  1
  O  O67  1  0.50359924  0.86758612  0.36214397  1
  O  O68  1  0.36398588  0.49640076  0.36214397  1
  O  O69  1  0.13241388  0.49640076  0.86214397  1
  O  O70  1  0.36398588  0.86758612  0.86214397  1
  O  O71  1  0.50359924  0.63601412  0.86214397  1
  O  O72  1  0.02563880  0.82950335  0.41365690  1
  O  O73  1  0.80386454  0.97436120  0.41365690  1
  O  O74  1  0.17049665  0.19613546  0.41365690  1
  O  O75  1  0.02563880  0.19613546  0.91365690  1
  O  O76  1  0.17049665  0.97436120  0.91365690  1
  O  O77  1  0.80386454  0.82950335  0.91365690  1
  O  O78  1  0.97590052  0.16716663  0.58913307  1
  O  O79  1  0.19126610  0.02409948  0.58913307  1
  O  O80  1  0.83283337  0.80873390  0.58913307  1
  O  O81  1  0.97590052  0.80873390  0.08913307  1
  O  O82  1  0.83283337  0.02409948  0.08913307  1
  O  O83  1  0.19126610  0.16716663  0.08913307  1
  O  O84  1  0.68323551  0.15877483  0.74280139  1
  O  O85  1  0.47554031  0.31676449  0.74280139  1
  O  O86  1  0.84122517  0.52445969  0.74280139  1
  O  O87  1  0.68323551  0.52445969  0.24280139  1
  O  O88  1  0.84122517  0.31676449  0.24280139  1
  O  O89  1  0.47554031  0.15877483  0.24280139  1
  O  O90  1  0.63386147  0.49703689  0.92525048  1
  O  O91  1  0.86317643  0.36613853  0.92525048  1
  O  O92  1  0.50296311  0.13682357  0.92525048  1
  O  O93  1  0.63386147  0.13682357  0.42525048  1
  O  O94  1  0.50296311  0.36613853  0.42525048  1
  O  O95  1  0.86317643  0.49703689  0.42525048  1
  O  O96  1  0.35162777  0.49376456  0.07254608  1
  O  O97  1  0.14213579  0.64837223  0.07254608  1
  O  O98  1  0.50623544  0.85786421  0.07254608  1
  O  O99  1  0.35162777  0.85786421  0.57254608  1
  O  O100  1  0.50623544  0.64837223  0.57254608  1
  O  O101  1  0.14213579  0.49376456  0.57254608  1
  O  O102  1  0.30176051  0.82925630  0.25732078  1
  O  O103  1  0.52749480  0.69823949  0.25732078  1
  O  O104  1  0.17074370  0.47250520  0.25732078  1
  O  O105  1  0.30176051  0.47250520  0.75732078  1
  O  O106  1  0.17074370  0.69823949  0.75732078  1
  O  O107  1  0.52749480  0.82925630  0.75732078  1
