# generated using pymatgen
data_K5V3O10
_symmetry_space_group_name_H-M   'P 1'
_cell_length_a   8.14638573
_cell_length_b   8.14638573
_cell_length_c   18.73424471
_cell_angle_alpha   90.00000000
_cell_angle_beta   90.00000000
_cell_angle_gamma   90.00000000
_symmetry_Int_Tables_number   1
_chemical_formula_structural   K5V3O10
_chemical_formula_sum   'K20 V12 O40'
_cell_volume   1243.27193089
_cell_formula_units_Z   4
loop_
 _symmetry_equiv_pos_site_id
 _symmetry_equiv_pos_as_xyz
  1  'x, y, z'
loop_
 _atom_site_type_symbol
 _atom_site_label
 _atom_site_symmetry_multiplicity
 _atom_site_fract_x
 _atom_site_fract_y
 _atom_site_fract_z
 _atom_site_occupancy
  K  K0  1  0.23495907  0.23495907  0.00000000  1
  K  K1  1  0.26504093  0.73495907  0.25000000  1
  K  K2  1  0.73495907  0.26504093  0.75000000  1
  K  K3  1  0.76504093  0.76504093  0.50000000  1
  K  K4  1  0.00334309  0.97327379  0.11190493  1
  K  K5  1  0.52672621  0.50334309  0.36190493  1
  K  K6  1  0.47327379  0.49665691  0.86190493  1
  K  K7  1  0.50334309  0.52672621  0.63809507  1
  K  K8  1  0.49665691  0.47327379  0.13809507  1
  K  K9  1  0.99665691  0.02672621  0.61190493  1
  K  K10  1  0.97327379  0.00334309  0.88809507  1
  K  K11  1  0.02672621  0.99665691  0.38809507  1
  K  K12  1  0.51306448  0.02130363  0.38407294  1
  K  K13  1  0.48693552  0.97869637  0.88407294  1
  K  K14  1  0.02130363  0.51306448  0.61592706  1
  K  K15  1  0.52130363  0.98693552  0.13407294  1
  K  K16  1  0.47869637  0.01306448  0.63407294  1
  K  K17  1  0.98693552  0.52130363  0.86592706  1
  K  K18  1  0.01306448  0.47869637  0.36592706  1
  K  K19  1  0.97869637  0.48693552  0.11592706  1
  V  V20  1  0.80806371  0.19193629  0.25000000  1
  V  V21  1  0.30806371  0.30806371  0.50000000  1
  V  V22  1  0.69193629  0.69193629  0.00000000  1
  V  V23  1  0.19193629  0.80806371  0.75000000  1
  V  V24  1  0.23627055  0.22907683  0.23286887  1
  V  V25  1  0.27092317  0.73627055  0.48286887  1
  V  V26  1  0.72907683  0.26372945  0.98286887  1
  V  V27  1  0.73627055  0.27092317  0.51713113  1
  V  V28  1  0.26372945  0.72907683  0.01713113  1
  V  V29  1  0.76372945  0.77092317  0.73286887  1
  V  V30  1  0.22907683  0.23627055  0.76713113  1
  V  V31  1  0.77092317  0.76372945  0.26713113  1
  O  O32  1  0.59398488  0.68305642  0.23684277  1
  O  O33  1  0.40601512  0.31694358  0.73684277  1
  O  O34  1  0.68305642  0.59398488  0.76315723  1
  O  O35  1  0.18305642  0.90601512  0.98684277  1
  O  O36  1  0.81694358  0.09398488  0.48684277  1
  O  O37  1  0.90601512  0.18305642  0.01315723  1
  O  O38  1  0.09398488  0.81694358  0.51315723  1
  O  O39  1  0.31694358  0.40601512  0.26315723  1
  O  O40  1  0.94008495  0.66353102  0.23838056  1
  O  O41  1  0.05991505  0.33646898  0.73838056  1
  O  O42  1  0.66353102  0.94008495  0.76161944  1
  O  O43  1  0.16353102  0.55991505  0.98838056  1
  O  O44  1  0.83646898  0.44008495  0.48838056  1
  O  O45  1  0.55991505  0.16353102  0.01161944  1
  O  O46  1  0.44008495  0.83646898  0.51161944  1
  O  O47  1  0.33646898  0.05991505  0.26161944  1
  O  O48  1  0.76792849  0.76130077  0.35785301  1
  O  O49  1  0.71462259  0.25694266  0.32359748  1
  O  O50  1  0.23207151  0.23869923  0.85785301  1
  O  O51  1  0.26130077  0.73207151  0.10785301  1
  O  O52  1  0.73869923  0.26792849  0.60785301  1
  O  O53  1  0.73207151  0.26130077  0.89214699  1
  O  O54  1  0.26792849  0.73869923  0.39214699  1
  O  O55  1  0.23869923  0.23207151  0.14214699  1
  O  O56  1  0.77979434  0.97761926  0.23612145  1
  O  O57  1  0.22020566  0.02238074  0.73612145  1
  O  O58  1  0.97761926  0.77979434  0.76387855  1
  O  O59  1  0.47761926  0.72020566  0.98612145  1
  O  O60  1  0.52238074  0.27979434  0.48612145  1
  O  O61  1  0.72020566  0.47761926  0.01387855  1
  O  O62  1  0.27979434  0.52238074  0.51387855  1
  O  O63  1  0.02238074  0.22020566  0.26387855  1
  O  O64  1  0.74305734  0.28537741  0.17640252  1
  O  O65  1  0.21462259  0.24305734  0.42640252  1
  O  O66  1  0.78537741  0.75694266  0.92640252  1
  O  O67  1  0.24305734  0.21462259  0.57359748  1
  O  O68  1  0.75694266  0.78537741  0.07359748  1
  O  O69  1  0.25694266  0.71462259  0.67640252  1
  O  O70  1  0.28537741  0.74305734  0.82359748  1
  O  O71  1  0.76130077  0.76792849  0.64214699  1
