# generated using pymatgen
data_Na4ScAlSi2SO12
_symmetry_space_group_name_H-M   'P 1'
_cell_length_a   8.98347304
_cell_length_b   8.96911075
_cell_length_c   21.98543639
_cell_angle_alpha   89.67982933
_cell_angle_beta   90.17084592
_cell_angle_gamma   119.50411374
_symmetry_Int_Tables_number   1
_chemical_formula_structural   Na4ScAlSi2SO12
_chemical_formula_sum   'Na24 Sc6 Al6 Si12 S6 O72'
_cell_volume   1541.70429677
_cell_formula_units_Z   6
loop_
 _symmetry_equiv_pos_site_id
 _symmetry_equiv_pos_as_xyz
  1  'x, y, z'
loop_
 _atom_site_type_symbol
 _atom_site_label
 _atom_site_symmetry_multiplicity
 _atom_site_fract_x
 _atom_site_fract_y
 _atom_site_fract_z
 _atom_site_occupancy
  Na  Na0  1  0.64487540  0.99862546  0.25401556  1
  Na  Na1  1  0.36234335  0.37317202  0.24371032  1
  Na  Na2  1  0.99460225  0.62589529  0.25424254  1
  Na  Na3  1  0.62413405  0.63230187  0.74005894  1
  Na  Na4  1  0.00036321  0.35302622  0.75338849  1
  Na  Na5  1  0.37986542  0.00981967  0.75223082  1
  Na  Na6  1  0.31105164  0.33374471  0.58828433  1
  Na  Na7  1  0.03786242  0.71257885  0.57643841  1
  Na  Na8  1  0.65982509  0.95249812  0.58784252  1
  Na  Na9  1  0.28808203  0.96651652  0.07607602  1
  Na  Na10  1  0.67073049  0.68818650  0.08888162  1
  Na  Na11  1  0.04727427  0.34109316  0.08782858  1
  Na  Na12  1  0.98313211  0.66515550  0.92198737  1
  Na  Na13  1  0.69792829  0.04348749  0.90791205  1
  Na  Na14  1  0.32247138  0.28718071  0.92052890  1
  Na  Na15  1  0.95854044  0.30153924  0.41006245  1
  Na  Na16  1  0.33160660  0.01984835  0.42099489  1
  Na  Na17  1  0.70806226  0.67316994  0.42114717  1
  Na  Na18  1  0.99237395  0.98039558  0.49987632  1
  Na  Na19  1  0.02241641  0.00844364  0.00070344  1
  Na  Na20  1  0.65926763  0.31193229  0.83145902  1
  Na  Na21  1  0.68232800  0.33967260  0.33418730  1
  Na  Na22  1  0.32508366  0.64690501  0.16948179  1
  Na  Na23  1  0.35357247  0.67479521  0.66556992  1
  Sc  Sc24  1  0.01044169  0.01865124  0.84833693  1
  Sc  Sc25  1  0.99721715  0.00321601  0.15276614  1
  Sc  Sc26  1  0.66439844  0.33465582  0.98291228  1
  Sc  Sc27  1  0.31683256  0.65426165  0.02078932  1
  Sc  Sc28  1  0.34544958  0.68625869  0.51808962  1
  Sc  Sc29  1  0.33257358  0.66941819  0.81205797  1
  Al  Al30  1  0.96242142  0.97799866  0.35068953  1
  Al  Al31  1  0.99937586  0.99773016  0.64654873  1
  Al  Al32  1  0.63767700  0.31331582  0.68385196  1
  Al  Al33  1  0.68776366  0.36788931  0.18839601  1
  Al  Al34  1  0.66766647  0.33591372  0.48259836  1
  Al  Al35  1  0.32834005  0.66743880  0.31725274  1
  Si  Si36  1  0.69284353  0.70087195  0.25237162  1
  Si  Si37  1  0.00001103  0.29755588  0.25333164  1
  Si  Si38  1  0.29484252  0.29105026  0.74404345  1
  Si  Si39  1  0.71219412  0.00982965  0.74314190  1
  Si  Si40  1  0.37318859  0.04914048  0.58282413  1
  Si  Si41  1  0.67385757  0.61783846  0.58507238  1
  Si  Si42  1  0.95992957  0.62976319  0.08557246  1
  Si  Si43  1  0.37981669  0.33217773  0.08826898  1
  Si  Si44  1  0.03317757  0.36771835  0.91551149  1
  Si  Si45  1  0.33241227  0.96308261  0.91623428  1
  Si  Si46  1  0.62754010  0.96657173  0.41469623  1
  Si  Si47  1  0.03675291  0.67016575  0.41424872  1
  S  S48  1  0.29480031  0.99843869  0.25294973  1
  S  S49  1  0.99563553  0.70764184  0.74660615  1
  S  S50  1  0.94985324  0.32883658  0.58333374  1
  S  S51  1  0.66684818  0.04399456  0.08648374  1
  S  S52  1  0.62831392  0.66809542  0.91644237  1
  S  S53  1  0.33294562  0.37305564  0.41535477  1
  O  O54  1  0.21161696  0.02774269  0.30564783  1
  O  O55  1  0.82601825  0.79062424  0.30863844  1
  O  O56  1  0.97061168  0.16363859  0.30978672  1
  O  O57  1  0.22245932  0.17822114  0.80687723  1
  O  O58  1  0.96738795  0.78030825  0.80288965  1
  O  O59  1  0.81900347  0.03938779  0.80685904  1
  O  O60  1  0.81089011  0.97518550  0.68728665  1
  O  O61  1  0.16405280  0.18925357  0.68807118  1
  O  O62  1  0.02072093  0.81832710  0.69346653  1
  O  O63  1  0.77112670  0.82020230  0.19144025  1
  O  O64  1  0.04408257  0.22417741  0.19209036  1
  O  O65  1  0.19045949  0.96998363  0.19697137  1
  O  O66  1  0.87250324  0.35757059  0.63795818  1
  O  O67  1  0.49537881  0.13013697  0.64202524  1
  O  O68  1  0.65281728  0.49803795  0.64442643  1
  O  O69  1  0.86859662  0.50454640  0.14402992  1
  O  O70  1  0.64314612  0.12659501  0.14019377  1
  O  O71  1  0.50323078  0.34831302  0.14622224  1
  O  O72  1  0.45397330  0.29882405  0.02498705  1
  O  O73  1  0.84854104  0.54787942  0.02369065  1
  O  O74  1  0.69031547  0.14373591  0.02967952  1
  O  O75  1  0.46709664  0.17149840  0.52299722  1
  O  O76  1  0.70370929  0.53015598  0.52384594  1
  O  O77  1  0.84482750  0.30605167  0.52772037  1
  O  O78  1  0.55119494  0.69377925  0.97157512  1
  O  O79  1  0.15405897  0.45095123  0.97573770  1
  O  O80  1  0.31309552  0.84995195  0.97748859  1
  O  O81  1  0.55572920  0.84492963  0.47555579  1
  O  O82  1  0.30128586  0.44666229  0.47099110  1
  O  O83  1  0.15386831  0.70606327  0.47568395  1
  O  O84  1  0.13375578  0.63486675  0.35759680  1
  O  O85  1  0.49696392  0.86907482  0.35763125  1
  O  O86  1  0.35895259  0.48534500  0.36192425  1
  O  O87  1  0.12452993  0.48685721  0.85557723  1
  O  O88  1  0.36596642  0.87691051  0.85595921  1
  O  O89  1  0.52298446  0.64472412  0.86161598  1
  O  O90  1  0.02249260  0.84781251  0.40468746  1
  O  O91  1  0.82130425  0.98941385  0.40811705  1
  O  O92  1  0.18351711  0.19878965  0.40813947  1
  O  O93  1  0.00846713  0.17432664  0.91445059  1
  O  O94  1  0.15220208  0.96719452  0.91330681  1
  O  O95  1  0.80126114  0.81795452  0.91036009  1
  O  O96  1  0.96564690  0.17086177  0.58659164  1
  O  O97  1  0.17923819  0.02846438  0.58972065  1
  O  O98  1  0.84353353  0.81372789  0.59097943  1
  O  O99  1  0.97772976  0.81999931  0.08989845  1
  O  O100  1  0.82430540  0.02810675  0.08929927  1
  O  O101  1  0.18499700  0.16743464  0.09087630  1
  O  O102  1  0.69982697  0.18837062  0.73677084  1
  O  O103  1  0.48990403  0.31666418  0.74096475  1
  O  O104  1  0.84622438  0.53214226  0.74110923  1
  O  O105  1  0.67683069  0.50918180  0.24684718  1
  O  O106  1  0.81956879  0.30770104  0.24508311  1
  O  O107  1  0.46901887  0.14932926  0.24688115  1
  O  O108  1  0.64277747  0.51008294  0.91967832  1
  O  O109  1  0.84512269  0.35331449  0.91889386  1
  O  O110  1  0.49868360  0.15603339  0.91799717  1
  O  O111  1  0.64506257  0.15846271  0.42440811  1
  O  O112  1  0.49241707  0.36017134  0.41992242  1
  O  O113  1  0.84449122  0.49703741  0.42189359  1
  O  O114  1  0.37401007  0.51301233  0.08622523  1
  O  O115  1  0.15238684  0.65027692  0.08525610  1
  O  O116  1  0.51595304  0.86991840  0.08154542  1
  O  O117  1  0.34828377  0.85351180  0.58054375  1
  O  O118  1  0.49650160  0.63197400  0.58190356  1
  O  O119  1  0.12496500  0.47982933  0.57769450  1
  O  O120  1  0.31021780  0.83977136  0.25763055  1
  O  O121  1  0.50197580  0.68074491  0.26306759  1
  O  O122  1  0.16829938  0.49009812  0.26211433  1
  O  O123  1  0.31122294  0.48196751  0.74782066  1
  O  O124  1  0.15395299  0.69319751  0.74962587  1
  O  O125  1  0.51974157  0.84004555  0.74687064  1
