# generated using pymatgen
data_Na5Ta2Zn2SiP5O24
_symmetry_space_group_name_H-M   'P 1'
_cell_length_a   8.93182291
_cell_length_b   8.99348709
_cell_length_c   22.27792959
_cell_angle_alpha   89.83940810
_cell_angle_beta   89.91671525
_cell_angle_gamma   119.92303989
_symmetry_Int_Tables_number   1
_chemical_formula_structural   Na5Ta2Zn2SiP5O24
_chemical_formula_sum   'Na15 Ta6 Zn6 Si3 P15 O72'
_cell_volume   1550.97891905
_cell_formula_units_Z   3
loop_
 _symmetry_equiv_pos_site_id
 _symmetry_equiv_pos_as_xyz
  1  'x, y, z'
loop_
 _atom_site_type_symbol
 _atom_site_label
 _atom_site_symmetry_multiplicity
 _atom_site_fract_x
 _atom_site_fract_y
 _atom_site_fract_z
 _atom_site_occupancy
  Na  Na0  1  0.61888380  0.00263275  0.25120127  1
  Na  Na1  1  0.99872538  0.61370620  0.24914991  1
  Na  Na2  1  0.34707219  0.99959468  0.75167517  1
  Na  Na3  1  0.29613400  0.31153037  0.58551331  1
  Na  Na4  1  0.02249452  0.70844552  0.58814572  1
  Na  Na5  1  0.68305757  0.97718577  0.59053383  1
  Na  Na6  1  0.65086889  0.68794923  0.07718467  1
  Na  Na7  1  0.04200683  0.35161730  0.07919625  1
  Na  Na8  1  0.98019170  0.68138351  0.91135417  1
  Na  Na9  1  0.00615050  0.00091311  0.50601404  1
  Na  Na10  1  0.01144071  0.01255640  0.98702453  1
  Na  Na11  1  0.67035808  0.32819037  0.83249981  1
  Na  Na12  1  0.65491633  0.33551600  0.33978220  1
  Na  Na13  1  0.32742733  0.66635280  0.16439846  1
  Na  Na14  1  0.33816314  0.65807608  0.66990018  1
  Ta  Ta15  1  0.00387449  0.00274927  0.35821821  1
  Ta  Ta16  1  0.00409869  0.99854415  0.14442786  1
  Ta  Ta17  1  0.66769023  0.33014249  0.68564014  1
  Ta  Ta18  1  0.66351676  0.33086781  0.98070175  1
  Ta  Ta19  1  0.33426922  0.66955411  0.51492046  1
  Ta  Ta20  1  0.33946067  0.66683484  0.81593363  1
  Zn  Zn21  1  0.99722545  0.01175407  0.84680287  1
  Zn  Zn22  1  0.99730099  0.99860951  0.65682913  1
  Zn  Zn23  1  0.66531762  0.33538904  0.18526763  1
  Zn  Zn24  1  0.65867300  0.32818073  0.47973286  1
  Zn  Zn25  1  0.32865153  0.67438888  0.01657415  1
  Zn  Zn26  1  0.33400505  0.65992335  0.31592282  1
  Si  Si27  1  0.71161358  0.00026274  0.74908159  1
  Si  Si28  1  0.36878016  0.03953405  0.58081347  1
  Si  Si29  1  0.96289686  0.62458630  0.08698599  1
  P  P30  1  0.29264478  0.00436698  0.25109308  1
  P  P31  1  0.71007964  0.71207276  0.25143931  1
  P  P32  1  0.00358361  0.28935325  0.25031812  1
  P  P33  1  0.29545847  0.29685531  0.74890910  1
  P  P34  1  0.99802756  0.70026522  0.75197414  1
  P  P35  1  0.95871285  0.33569713  0.57923639  1
  P  P36  1  0.66569249  0.62168162  0.57951390  1
  P  P37  1  0.66382178  0.04147690  0.08742425  1
  P  P38  1  0.37749636  0.33149159  0.08558944  1
  P  P39  1  0.62651135  0.66554684  0.92182622  1
  P  P40  1  0.04149927  0.37001238  0.92066226  1
  P  P41  1  0.33295375  0.96191793  0.91734556  1
  P  P42  1  0.62584734  0.96254877  0.41144256  1
  P  P43  1  0.33647699  0.37670300  0.41354457  1
  P  P44  1  0.03650313  0.66258187  0.41196973  1
  O  O45  1  0.19165973  0.01572894  0.30683188  1
  O  O46  1  0.83120223  0.81738632  0.30535202  1
  O  O47  1  0.99066658  0.17186765  0.30513188  1
  O  O48  1  0.22454479  0.17313219  0.80121697  1
  O  O49  1  0.96855365  0.77387890  0.80874075  1
  O  O50  1  0.82304582  0.03751900  0.80743490  1
  O  O51  1  0.77437311  0.96437931  0.68601301  1
  O  O52  1  0.19795922  0.23513874  0.68989080  1
  O  O53  1  0.04579765  0.81350209  0.69560470  1
  O  O54  1  0.80962736  0.82704011  0.19337597  1
  O  O55  1  0.01509824  0.19249310  0.19251777  1
  O  O56  1  0.17429800  0.98832962  0.19483333  1
  O  O57  1  0.87158407  0.36808196  0.63670056  1
  O  O58  1  0.49727044  0.13140179  0.64131519  1
  O  O59  1  0.63492316  0.50422231  0.63664895  1
  O  O60  1  0.87941066  0.51306235  0.14650404  1
  O  O61  1  0.63980849  0.11554609  0.14498116  1
  O  O62  1  0.48684731  0.36019893  0.14013033  1
  O  O63  1  0.46401566  0.30021341  0.02821470  1
  O  O64  1  0.82736093  0.52571101  0.02751118  1
  O  O65  1  0.69243803  0.16549936  0.03187572  1
  O  O66  1  0.45471194  0.16402782  0.52587018  1
  O  O67  1  0.70012517  0.54422083  0.52571263  1
  O  O68  1  0.84832599  0.30787532  0.52556560  1
  O  O69  1  0.54419487  0.68174259  0.97891861  1
  O  O70  1  0.13563199  0.45049160  0.97864533  1
  O  O71  1  0.30236770  0.84962979  0.97163753  1
  O  O72  1  0.52997259  0.83786102  0.46866755  1
  O  O73  1  0.30662869  0.46462374  0.47221644  1
  O  O74  1  0.16154376  0.69088485  0.46907125  1
  O  O75  1  0.12169033  0.64827532  0.35529208  1
  O  O76  1  0.52363655  0.87891446  0.35530560  1
  O  O77  1  0.35190928  0.48090940  0.35904573  1
  O  O78  1  0.13640639  0.49871896  0.86648585  1
  O  O79  1  0.35949473  0.87155133  0.85978985  1
  O  O80  1  0.50744487  0.64621866  0.86614466  1
  O  O81  1  0.03156349  0.83784742  0.41140764  1
  O  O82  1  0.80665189  0.96694975  0.41057831  1
  O  O83  1  0.16198232  0.19353408  0.41168096  1
  O  O84  1  0.01654985  0.19371903  0.91156413  1
  O  O85  1  0.17637310  0.98384846  0.90775226  1
  O  O86  1  0.81073826  0.81057351  0.91357672  1
  O  O87  1  0.99096797  0.18557727  0.58847046  1
  O  O88  1  0.17446624  0.00396951  0.59183713  1
  O  O89  1  0.81448879  0.80514161  0.58805147  1
  O  O90  1  0.96466420  0.81355782  0.08928967  1
  O  O91  1  0.84420834  0.04200953  0.08844119  1
  O  O92  1  0.19210476  0.16515020  0.08883192  1
  O  O93  1  0.67271294  0.16727360  0.74164777  1
  O  O94  1  0.48590975  0.32731815  0.74012549  1
  O  O95  1  0.83944660  0.51754063  0.74071053  1
  O  O96  1  0.70608562  0.54176166  0.25037894  1
  O  O97  1  0.83374219  0.29254570  0.25136035  1
  O  O98  1  0.46970680  0.16330275  0.24851919  1
  O  O99  1  0.63369117  0.49048176  0.92268376  1
  O  O100  1  0.85782594  0.36479616  0.92318528  1
  O  O101  1  0.50448675  0.14110249  0.92264861  1
  O  O102  1  0.65517375  0.13975928  0.42115893  1
  O  O103  1  0.48732581  0.34799739  0.42079912  1
  O  O104  1  0.85915028  0.51317102  0.42220504  1
  O  O105  1  0.34908121  0.48368233  0.07699424  1
  O  O106  1  0.15071293  0.64810612  0.07822885  1
  O  O107  1  0.52322608  0.85741788  0.07792027  1
  O  O108  1  0.36216843  0.84729592  0.57508932  1
  O  O109  1  0.49051209  0.62937831  0.57535589  1
  O  O110  1  0.14160599  0.50821820  0.57593559  1
  O  O111  1  0.29625882  0.83617435  0.24984585  1
  O  O112  1  0.53919000  0.71066648  0.25135009  1
  O  O113  1  0.16189046  0.46742449  0.25038578  1
  O  O114  1  0.32068229  0.47992672  0.76230673  1
  O  O115  1  0.16078199  0.67384885  0.76079228  1
  O  O116  1  0.50539624  0.83244178  0.75931282  1
