# generated using pymatgen
data_Na6Mg2Si3Sn2(SO8)3
_symmetry_space_group_name_H-M   'P 1'
_cell_length_a   9.02422787
_cell_length_b   9.03936021
_cell_length_c   22.39479976
_cell_angle_alpha   89.86374391
_cell_angle_beta   90.77736430
_cell_angle_gamma   119.57048796
_symmetry_Int_Tables_number   1
_chemical_formula_structural   Na6Mg2Si3Sn2(SO8)3
_chemical_formula_sum   'Na18 Mg6 Si9 Sn6 S9 O72'
_cell_volume   1588.70645623
_cell_formula_units_Z   3
loop_
 _symmetry_equiv_pos_site_id
 _symmetry_equiv_pos_as_xyz
  1  'x, y, z'
loop_
 _atom_site_type_symbol
 _atom_site_label
 _atom_site_symmetry_multiplicity
 _atom_site_fract_x
 _atom_site_fract_y
 _atom_site_fract_z
 _atom_site_occupancy
  Na  Na0  1  0.37519543  0.35365201  0.24468934  1
  Na  Na1  1  0.00423027  0.64031974  0.23291191  1
  Na  Na2  1  0.99040154  0.34921749  0.73936761  1
  Na  Na3  1  0.38975742  0.02887073  0.74396289  1
  Na  Na4  1  0.29585893  0.33250083  0.58360938  1
  Na  Na5  1  0.65433907  0.98280603  0.59757747  1
  Na  Na6  1  0.29687588  0.96070852  0.06840863  1
  Na  Na7  1  0.65551607  0.67665756  0.07995612  1
  Na  Na8  1  0.98771011  0.68501548  0.91938993  1
  Na  Na9  1  0.32410643  0.28298083  0.90643544  1
  Na  Na10  1  0.98833523  0.30461342  0.43384878  1
  Na  Na11  1  0.32248809  0.03942824  0.41708303  1
  Na  Na12  1  0.00925425  0.99703333  0.50548478  1
  Na  Na13  1  0.01042541  0.01413821  0.99392799  1
  Na  Na14  1  0.64992954  0.31023674  0.82370582  1
  Na  Na15  1  0.64437321  0.31958839  0.33116781  1
  Na  Na16  1  0.31659091  0.65057409  0.15501689  1
  Na  Na17  1  0.32137771  0.66680843  0.66072174  1
  Mg  Mg18  1  0.01846949  0.01186863  0.35203038  1
  Mg  Mg19  1  0.01615516  0.00990303  0.84650603  1
  Mg  Mg20  1  0.66014385  0.32213180  0.68560064  1
  Mg  Mg21  1  0.65475288  0.32465697  0.18181675  1
  Mg  Mg22  1  0.30961378  0.65601672  0.02105640  1
  Mg  Mg23  1  0.31429047  0.65416218  0.52359442  1
  Si  Si24  1  0.30710984  0.99696029  0.25499953  1
  Si  Si25  1  0.30777009  0.30873576  0.75428868  1
  Si  Si26  1  0.71178212  0.00014703  0.75089877  1
  Si  Si27  1  0.95785692  0.33544562  0.58592441  1
  Si  Si28  1  0.35693744  0.02479894  0.58612788  1
  Si  Si29  1  0.95503089  0.61913405  0.08786235  1
  Si  Si30  1  0.36628073  0.33762779  0.08661532  1
  Si  Si31  1  0.33636612  0.96259460  0.91994915  1
  Si  Si32  1  0.33936253  0.37643118  0.41808149  1
  Sn  Sn33  1  0.00404841  0.01924724  0.65123847  1
  Sn  Sn34  1  0.01600575  0.99497774  0.14696876  1
  Sn  Sn35  1  0.65631022  0.32228904  0.98558850  1
  Sn  Sn36  1  0.64526461  0.32831461  0.49114502  1
  Sn  Sn37  1  0.34115969  0.66694074  0.31828556  1
  Sn  Sn38  1  0.35548468  0.68753846  0.81185786  1
  S  S39  1  0.71076949  0.71664090  0.25176081  1
  S  S40  1  0.99679874  0.28898787  0.25268175  1
  S  S41  1  0.99877324  0.70817862  0.75320397  1
  S  S42  1  0.67352290  0.63198679  0.58431418  1
  S  S43  1  0.67420622  0.04064852  0.08628333  1
  S  S44  1  0.63119211  0.66611444  0.92071603  1
  S  S45  1  0.03535562  0.37424768  0.91733406  1
  S  S46  1  0.63528559  0.96513311  0.41770684  1
  S  S47  1  0.03411479  0.66373240  0.41469886  1
  O  O48  1  0.21465298  0.02005057  0.31222997  1
  O  O49  1  0.81355133  0.81899660  0.30257414  1
  O  O50  1  0.98430613  0.19674191  0.30753377  1
  O  O51  1  0.22597061  0.18958486  0.81186966  1
  O  O52  1  0.98811518  0.78458502  0.80968637  1
  O  O53  1  0.82877889  0.00708385  0.80554273  1
  O  O54  1  0.78252266  0.96424655  0.68630180  1
  O  O55  1  0.18041576  0.23044652  0.69296697  1
  O  O56  1  0.02859137  0.82303962  0.70094432  1
  O  O57  1  0.78068882  0.80898272  0.19379280  1
  O  O58  1  0.01720991  0.20081510  0.19903392  1
  O  O59  1  0.17664389  0.94753801  0.19432633  1
  O  O60  1  0.86251767  0.35014718  0.64225251  1
  O  O61  1  0.47950136  0.12332577  0.64133477  1
  O  O62  1  0.65231872  0.51940231  0.63348110  1
  O  O63  1  0.86284938  0.51552034  0.14687910  1
  O  O64  1  0.65215393  0.12848461  0.13696641  1
  O  O65  1  0.47282425  0.35938582  0.14749372  1
  O  O66  1  0.44595865  0.28420799  0.02808544  1
  O  O67  1  0.83699707  0.53194466  0.02574737  1
  O  O68  1  0.70743763  0.14063137  0.02954073  1
  O  O69  1  0.42247868  0.15016459  0.52305125  1
  O  O70  1  0.70135935  0.56236426  0.52545927  1
  O  O71  1  0.84242415  0.30882689  0.52078667  1
  O  O72  1  0.54920199  0.67898835  0.97482704  1
  O  O73  1  0.14487512  0.45957599  0.96931155  1
  O  O74  1  0.31929338  0.84966819  0.97757975  1
  O  O75  1  0.55295162  0.86753705  0.47046003  1
  O  O76  1  0.31622669  0.48104534  0.47053493  1
  O  O77  1  0.15128892  0.69479295  0.46478047  1
  O  O78  1  0.10934977  0.63339019  0.35751495  1
  O  O79  1  0.52097379  0.88777130  0.36217984  1
  O  O80  1  0.36749420  0.47867278  0.35126320  1
  O  O81  1  0.10872614  0.47682544  0.86189990  1
  O  O82  1  0.35478521  0.87502603  0.85706908  1
  O  O83  1  0.51719590  0.63243222  0.86684259  1
  O  O84  1  0.01101341  0.81300762  0.40783616  1
  O  O85  1  0.80448648  0.98418992  0.40873595  1
  O  O86  1  0.16822012  0.18726061  0.41402326  1
  O  O87  1  0.01403188  0.20239389  0.91312864  1
  O  O88  1  0.16518560  0.98342600  0.91559165  1
  O  O89  1  0.80214672  0.81321479  0.91425799  1
  O  O90  1  0.96134712  0.15005768  0.58260795  1
  O  O91  1  0.16536558  0.00694292  0.59144765  1
  O  O92  1  0.82657136  0.80313608  0.58805620  1
  O  O93  1  0.95421100  0.80810173  0.08614488  1
  O  O94  1  0.82637495  0.01699333  0.09322834  1
  O  O95  1  0.17404790  0.16118692  0.08775384  1
  O  O96  1  0.69554081  0.17165122  0.74805765  1
  O  O97  1  0.49367470  0.33329745  0.74351086  1
  O  O98  1  0.85060081  0.53921697  0.74532677  1
  O  O99  1  0.70280363  0.54949570  0.25211513  1
  O  O100  1  0.85244019  0.31949949  0.24679397  1
  O  O101  1  0.48976441  0.16574771  0.24613552  1
  O  O102  1  0.64815283  0.50583342  0.92107113  1
  O  O103  1  0.86443770  0.36695001  0.92270549  1
  O  O104  1  0.50955623  0.15964555  0.92075179  1
  O  O105  1  0.65183311  0.14078885  0.41845865  1
  O  O106  1  0.51204694  0.34968663  0.42025611  1
  O  O107  1  0.86771124  0.50374939  0.41962684  1
  O  O108  1  0.36052625  0.51059361  0.07533556  1
  O  O109  1  0.15111487  0.66706523  0.08219080  1
  O  O110  1  0.52259304  0.87070845  0.08003027  1
  O  O111  1  0.35958170  0.85089194  0.57355114  1
  O  O112  1  0.51934414  0.64900420  0.57771944  1
  O  O113  1  0.15267212  0.48474243  0.58012465  1
  O  O114  1  0.30859949  0.80934129  0.25727854  1
  O  O115  1  0.53013154  0.68605372  0.25250308  1
  O  O116  1  0.16117023  0.46228660  0.25254175  1
  O  O117  1  0.29510595  0.48758922  0.76006824  1
  O  O118  1  0.15767406  0.68973691  0.75354970  1
  O  O119  1  0.50971092  0.83822674  0.74893818  1
