# generated using pymatgen
data_MgCu2GeS4
_symmetry_space_group_name_H-M   'P 1'
_cell_length_a   5.75678969
_cell_length_b   5.75678980
_cell_length_c   6.41822169
_cell_angle_alpha   115.96158530
_cell_angle_beta   115.96158924
_cell_angle_gamma   91.35736730
_symmetry_Int_Tables_number   1
_chemical_formula_structural   MgCu2GeS4
_chemical_formula_sum   'Mg1 Cu2 Ge1 S4'
_cell_volume   165.72856452
_cell_formula_units_Z   1
loop_
 _symmetry_equiv_pos_site_id
 _symmetry_equiv_pos_as_xyz
  1  'x, y, z'
loop_
 _atom_site_type_symbol
 _atom_site_label
 _atom_site_symmetry_multiplicity
 _atom_site_fract_x
 _atom_site_fract_y
 _atom_site_fract_z
 _atom_site_occupancy
  Mg  Mg0  1  0.82110800  0.82110800  0.64164200  1
  Cu  Cu1  1  0.73948700  0.23958800  0.47967300  1
  Cu  Cu2  1  0.23958800  0.73948700  0.47967300  1
  Ge  Ge3  1  0.49887600  0.49887600  0.99932900  1
  S  S4  1  0.85524800  0.85524800  0.25856400  1
  S  S5  1  0.56383800  0.14267900  0.70706100  1
  S  S6  1  0.40167700  0.40167600  0.25824900  1
  S  S7  1  0.14267900  0.56383800  0.70706100  1
