# generated using pymatgen
data_Na14Mg6Zr2Si5S7O48
_symmetry_space_group_name_H-M   'P 1'
_cell_length_a   18.29105062
_cell_length_b   9.14188758
_cell_length_c   22.38167386
_cell_angle_alpha   90.02871125
_cell_angle_beta   89.99733484
_cell_angle_gamma   120.12158466
_symmetry_Int_Tables_number   1
_chemical_formula_structural   Na14Mg6Zr2Si5S7O48
_chemical_formula_sum   'Na42 Mg18 Zr6 Si15 S21 O144'
_cell_volume   3237.16076304
_cell_formula_units_Z   3
loop_
 _symmetry_equiv_pos_site_id
 _symmetry_equiv_pos_as_xyz
  1  'x, y, z'
loop_
 _atom_site_type_symbol
 _atom_site_label
 _atom_site_symmetry_multiplicity
 _atom_site_fract_x
 _atom_site_fract_y
 _atom_site_fract_z
 _atom_site_occupancy
  Na  Na0  1  0.81023096  0.00171631  0.25086274  1
  Na  Na1  1  0.68775983  0.35135558  0.24426520  1
  Na  Na2  1  0.50644410  0.64914296  0.24680809  1
  Na  Na3  1  0.30902054  0.61723050  0.75075936  1
  Na  Na4  1  0.00648177  0.37623100  0.74543836  1
  Na  Na5  1  0.17522169  0.00146726  0.74330525  1
  Na  Na6  1  0.15277684  0.32630152  0.57601653  1
  Na  Na7  1  0.66973563  0.36088962  0.58261772  1
  Na  Na8  1  0.01435694  0.69635721  0.57372904  1
  Na  Na9  1  0.52452419  0.68572888  0.58788980  1
  Na  Na10  1  0.32539483  0.99069430  0.58373754  1
  Na  Na11  1  0.82439592  0.95489727  0.58788073  1
  Na  Na12  1  0.16397525  0.97070737  0.07687283  1
  Na  Na13  1  0.65826076  0.98653379  0.06896382  1
  Na  Na14  1  0.32037838  0.69172086  0.08268115  1
  Na  Na15  1  0.82867793  0.66449084  0.07814621  1
  Na  Na16  1  0.02419157  0.36296337  0.08326786  1
  Na  Na17  1  0.51301432  0.32924070  0.06572002  1
  Na  Na18  1  0.49001364  0.66720558  0.91941617  1
  Na  Na19  1  0.98053511  0.66189323  0.91262701  1
  Na  Na20  1  0.35429464  0.04660569  0.92469151  1
  Na  Na21  1  0.84523970  0.04061531  0.91168406  1
  Na  Na22  1  0.16761713  0.29433596  0.91419088  1
  Na  Na23  1  0.66146019  0.28867349  0.92688812  1
  Na  Na24  1  0.48163549  0.30635328  0.42957047  1
  Na  Na25  1  0.99104327  0.31424383  0.42460340  1
  Na  Na26  1  0.15828231  0.02920104  0.43215491  1
  Na  Na27  1  0.67122012  0.04481567  0.42220353  1
  Na  Na28  1  0.34179524  0.65046724  0.41886052  1
  Na  Na29  1  0.85535522  0.66313091  0.42828048  1
  Na  Na30  1  0.00439154  0.98487129  0.49893151  1
  Na  Na31  1  0.50846363  0.01794298  0.50213669  1
  Na  Na32  1  0.00778134  0.99867224  0.99586120  1
  Na  Na33  1  0.50458889  0.02217529  0.99176642  1
  Na  Na34  1  0.33702883  0.33092473  0.83025370  1
  Na  Na35  1  0.82905237  0.33536319  0.82534571  1
  Na  Na36  1  0.31683231  0.32228961  0.33340778  1
  Na  Na37  1  0.84102454  0.34534270  0.33278457  1
  Na  Na38  1  0.16773534  0.67249628  0.15387945  1
  Na  Na39  1  0.66782954  0.66203676  0.16328443  1
  Na  Na40  1  0.15784554  0.67278548  0.67031488  1
  Na  Na41  1  0.67153610  0.66657035  0.65561151  1
  Mg  Mg42  1  0.00515378  0.00143328  0.35587251  1
  Mg  Mg43  1  0.50520662  0.00538490  0.34499846  1
  Mg  Mg44  1  0.00465239  0.99180282  0.83809490  1
  Mg  Mg45  1  0.50484984  0.00850928  0.85481250  1
  Mg  Mg46  1  0.32962598  0.31618515  0.68107870  1
  Mg  Mg47  1  0.83008927  0.34470870  0.68144589  1
  Mg  Mg48  1  0.32123038  0.31585827  0.17736329  1
  Mg  Mg49  1  0.83124713  0.34083257  0.18081613  1
  Mg  Mg50  1  0.33256452  0.31679024  0.98618194  1
  Mg  Mg51  1  0.82672450  0.33594837  0.98591001  1
  Mg  Mg52  1  0.32574213  0.31990362  0.48785587  1
  Mg  Mg53  1  0.83560802  0.35028040  0.48950243  1
  Mg  Mg54  1  0.16620964  0.66883297  0.02118158  1
  Mg  Mg55  1  0.66070646  0.65309004  0.01288996  1
  Mg  Mg56  1  0.15838167  0.66433179  0.51479156  1
  Mg  Mg57  1  0.66738346  0.66805635  0.52260184  1
  Mg  Mg58  1  0.66594064  0.67316385  0.31537604  1
  Mg  Mg59  1  0.16171782  0.65817365  0.81225300  1
  Zr  Zr60  1  0.00471101  0.98876518  0.65212834  1
  Zr  Zr61  1  0.50598540  0.01633532  0.64613991  1
  Zr  Zr62  1  0.00612885  0.99678026  0.14573554  1
  Zr  Zr63  1  0.50400725  0.00696140  0.14813415  1
  Zr  Zr64  1  0.16123371  0.65199294  0.31721668  1
  Zr  Zr65  1  0.66242819  0.67126784  0.81749988  1
  Si  Si66  1  0.65343899  0.00079636  0.25304314  1
  Si  Si67  1  0.15434868  0.30371311  0.75251272  1
  Si  Si68  1  0.99508367  0.68310355  0.75640978  1
  Si  Si69  1  0.47691916  0.33791365  0.58004525  1
  Si  Si70  1  0.18479340  0.02564155  0.58330387  1
  Si  Si71  1  0.69187312  0.04601652  0.58032051  1
  Si  Si72  1  0.83448827  0.63511085  0.58142669  1
  Si  Si73  1  0.97670373  0.61545506  0.08034710  1
  Si  Si74  1  0.33400592  0.03736708  0.08268119  1
  Si  Si75  1  0.18976234  0.33967389  0.07934982  1
  Si  Si76  1  0.68645008  0.34629776  0.08521857  1
  Si  Si77  1  0.51203761  0.36360826  0.91889025  1
  Si  Si78  1  0.66904522  0.97046295  0.92262918  1
  Si  Si79  1  0.16906234  0.36809404  0.42214484  1
  Si  Si80  1  0.01183811  0.66034701  0.41880171  1
  S  S81  1  0.15145807  0.00383480  0.25288087  1
  S  S82  1  0.35228119  0.70067230  0.25215794  1
  S  S83  1  0.85285987  0.70792265  0.25368210  1
  S  S84  1  0.99861368  0.28975297  0.25131821  1
  S  S85  1  0.49844645  0.29857632  0.25412551  1
  S  S86  1  0.65017766  0.29870872  0.75324356  1
  S  S87  1  0.49898588  0.70770292  0.75141298  1
  S  S88  1  0.35523452  0.00067130  0.75389389  1
  S  S89  1  0.85082604  0.99814322  0.75195138  1
  S  S90  1  0.98035512  0.33245040  0.58364865  1
  S  S91  1  0.33387879  0.62928882  0.58379793  1
  S  S92  1  0.47964113  0.62497275  0.08621063  1
  S  S93  1  0.83365791  0.03829653  0.08507956  1
  S  S94  1  0.31187079  0.66680695  0.91560550  1
  S  S95  1  0.81576545  0.67386695  0.91780651  1
  S  S96  1  0.01894541  0.36793727  0.91764701  1
  S  S97  1  0.16573478  0.95632422  0.91612723  1
  S  S98  1  0.31808552  0.96147815  0.41472938  1
  S  S99  1  0.81239661  0.95842586  0.41461130  1
  S  S100  1  0.66251736  0.37374806  0.41289273  1
  S  S101  1  0.51904680  0.67012787  0.41492322  1
  O  O102  1  0.10563660  0.01302752  0.30523855  1
  O  O103  1  0.60779191  0.02977092  0.31069512  1
  O  O104  1  0.40268789  0.79120424  0.30601600  1
  O  O105  1  0.90329967  0.80228215  0.30572186  1
  O  O106  1  0.48617954  0.19405596  0.30755273  1
  O  O107  1  0.99250996  0.18878074  0.30442562  1
  O  O108  1  0.10923461  0.18777280  0.81155970  1
  O  O109  1  0.60351320  0.19778593  0.80594154  1
  O  O110  1  0.49286522  0.79642247  0.80472169  1
  O  O111  1  0.98270140  0.76956717  0.81603814  1
  O  O112  1  0.40699190  0.01128259  0.80582012  1
  O  O113  1  0.90152940  0.01270033  0.80626277  1
  O  O114  1  0.39518524  0.97689423  0.69803853  1
  O  O115  1  0.89333718  0.98240163  0.69743253  1
  O  O116  1  0.09082214  0.20787517  0.69393681  1
  O  O117  1  0.59710256  0.21543787  0.69757736  1
  O  O118  1  0.00834715  0.81302162  0.69868228  1
  O  O119  1  0.50709873  0.80800505  0.69611477  1
  O  O120  1  0.39481113  0.80199378  0.19761306  1
  O  O121  1  0.89198579  0.81133786  0.19794100  1
  O  O122  1  0.00620947  0.20552782  0.19598995  1
  O  O123  1  0.50773595  0.21067862  0.20018387  1
  O  O124  1  0.10022230  0.98452930  0.19694349  1
  O  O125  1  0.58922041  0.97188866  0.19484295  1
  O  O126  1  0.43203795  0.37489638  0.63498986  1
  O  O127  1  0.94015452  0.35168006  0.63742689  1
  O  O128  1  0.24114998  0.11047907  0.64274638  1
  O  O129  1  0.75297384  0.13512065  0.63607626  1
  O  O130  1  0.32298982  0.52809295  0.63766459  1
  O  O131  1  0.81658789  0.50809424  0.63588084  1
  O  O132  1  0.43991781  0.52901628  0.14134948  1
  O  O133  1  0.93323499  0.49118729  0.13639364  1
  O  O134  1  0.32037425  0.12877747  0.13946651  1
  O  O135  1  0.82248085  0.11607241  0.13944050  1
  O  O136  1  0.24932998  0.37936843  0.13699236  1
  O  O137  1  0.74006729  0.37086769  0.14588256  1
  O  O138  1  0.22325175  0.28832302  0.01979561  1
  O  O139  1  0.72292226  0.29941999  0.02642193  1
  O  O140  1  0.42928868  0.54426024  0.03199870  1
  O  O141  1  0.91987673  0.55230684  0.01966060  1
  O  O142  1  0.36045393  0.15312080  0.02219222  1
  O  O143  1  0.84908056  0.14288022  0.03114442  1
  O  O144  1  0.22327882  0.14170338  0.52355904  1
  O  O145  1  0.72257230  0.15754322  0.51845342  1
  O  O146  1  0.35038359  0.55707649  0.52935884  1
  O  O147  1  0.85846684  0.56923343  0.52033943  1
  O  O148  1  0.42112350  0.29121772  0.51858885  1
  O  O149  1  0.93076185  0.31355597  0.52843895  1
  O  O150  1  0.27300224  0.69229321  0.96979073  1
  O  O151  1  0.77516827  0.68926900  0.97293213  1
  O  O152  1  0.07140073  0.45015404  0.97123210  1
  O  O153  1  0.57038134  0.44489821  0.97758897  1
  O  O154  1  0.15886286  0.85850637  0.97066901  1
  O  O155  1  0.65660780  0.85448364  0.98116984  1
  O  O156  1  0.28080250  0.86337261  0.46988118  1
  O  O157  1  0.77096461  0.85154600  0.46740379  1
  O  O158  1  0.15889798  0.46244473  0.48013943  1
  O  O159  1  0.65484175  0.45822280  0.46686131  1
  O  O160  1  0.07113253  0.69675089  0.47673719  1
  O  O161  1  0.57222815  0.69357487  0.46776906  1
  O  O162  1  0.06793320  0.64057604  0.36165086  1
  O  O163  1  0.55918363  0.65018567  0.35988513  1
  O  O164  1  0.26324665  0.87080686  0.36207215  1
  O  O165  1  0.76110419  0.87656891  0.35975908  1
  O  O166  1  0.18355726  0.49921041  0.36383523  1
  O  O167  1  0.66877773  0.47222931  0.35834125  1
  O  O168  1  0.06043851  0.46851901  0.86339343  1
  O  O169  1  0.56919824  0.49586458  0.86297957  1
  O  O170  1  0.17240770  0.87009805  0.86230853  1
  O  O171  1  0.68266526  0.86611517  0.86522953  1
  O  O172  1  0.25995794  0.64754521  0.86195585  1
  O  O173  1  0.76182846  0.65548068  0.86475247  1
  O  O174  1  0.00051815  0.82473689  0.40915037  1
  O  O175  1  0.50792698  0.82279703  0.41114352  1
  O  O176  1  0.40371161  0.97788535  0.40763776  1
  O  O177  1  0.89847187  0.97934920  0.40935243  1
  O  O178  1  0.08288544  0.18566370  0.41234351  1
  O  O179  1  0.58292648  0.20100438  0.41122050  1
  O  O180  1  0.00688950  0.19256198  0.91393404  1
  O  O181  1  0.50054082  0.17606562  0.90963137  1
  O  O182  1  0.08826746  0.97433429  0.91499105  1
  O  O183  1  0.58263932  0.98032520  0.91277274  1
  O  O184  1  0.39882571  0.81819387  0.91017608  1
  O  O185  1  0.89982254  0.83154430  0.91322818  1
  O  O186  1  0.48312517  0.15811012  0.59113572  1
  O  O187  1  0.98792747  0.17630853  0.58666673  1
  O  O188  1  0.08939864  0.00922627  0.58812207  1
  O  O189  1  0.59215498  0.02231279  0.59109959  1
  O  O190  1  0.41233643  0.80463182  0.59002035  1
  O  O191  1  0.91620097  0.83153966  0.59028065  1
  O  O192  1  0.48670144  0.79804983  0.08883160  1
  O  O193  1  0.98411840  0.80894811  0.09231833  1
  O  O194  1  0.41581562  0.00327987  0.09260104  1
  O  O195  1  0.91150694  0.01910095  0.09121298  1
  O  O196  1  0.09096977  0.16349559  0.09056526  1
  O  O197  1  0.58880053  0.17340937  0.09119453  1
  O  O198  1  0.34786267  0.15350897  0.74961595  1
  O  O199  1  0.84247762  0.14879068  0.74861906  1
  O  O200  1  0.24808303  0.32041507  0.74486458  1
  O  O201  1  0.73136037  0.30900338  0.74845039  1
  O  O202  1  0.42249086  0.54045471  0.74762865  1
  O  O203  1  0.91782940  0.49121546  0.74610602  1
  O  O204  1  0.34904520  0.53523989  0.24953035  1
  O  O205  1  0.84565930  0.54004798  0.25020490  1
  O  O206  1  0.42804796  0.33231842  0.24796578  1
  O  O207  1  0.92227820  0.30452051  0.24789968  1
  O  O208  1  0.23476564  0.15841031  0.24875320  1
  O  O209  1  0.74769992  0.16835508  0.24528350  1
  O  O210  1  0.32035952  0.51314764  0.92002569  1
  O  O211  1  0.82414976  0.52097667  0.91782146  1
  O  O212  1  0.42186809  0.36204043  0.91763982  1
  O  O213  1  0.93373012  0.35202669  0.92218814  1
  O  O214  1  0.24273209  0.12856988  0.91779180  1
  O  O215  1  0.75480913  0.15780255  0.92140406  1
  O  O216  1  0.32662581  0.13136770  0.41512780  1
  O  O217  1  0.82090769  0.12854850  0.41939277  1
  O  O218  1  0.25522472  0.35346591  0.42076859  1
  O  O219  1  0.73788836  0.35304344  0.41435730  1
  O  O220  1  0.43369935  0.51647553  0.41960232  1
  O  O221  1  0.92156268  0.48135601  0.41793093  1
  O  O222  1  0.16962830  0.49327227  0.07322114  1
  O  O223  1  0.67480454  0.51224635  0.07914382  1
  O  O224  1  0.07462771  0.66161480  0.07459364  1
  O  O225  1  0.56642826  0.65182432  0.08270910  1
  O  O226  1  0.25165357  0.84877280  0.07573456  1
  O  O227  1  0.75958294  0.86586406  0.07954613  1
  O  O228  1  0.17342620  0.83593979  0.57823428  1
  O  O229  1  0.67053710  0.85022210  0.57470070  1
  O  O230  1  0.26043707  0.65347400  0.57778718  1
  O  O231  1  0.75219550  0.65988917  0.57461302  1
  O  O232  1  0.06723501  0.48261936  0.57997825  1
  O  O233  1  0.57490639  0.48863801  0.57401732  1
  O  O234  1  0.16059766  0.85062330  0.25436005  1
  O  O235  1  0.65873307  0.82521112  0.25387944  1
  O  O236  1  0.26680374  0.68130076  0.25375447  1
  O  O237  1  0.76563672  0.68542453  0.25637683  1
  O  O238  1  0.07705793  0.46107435  0.25260152  1
  O  O239  1  0.57993457  0.46412242  0.25683739  1
  O  O240  1  0.16398613  0.49221224  0.75402243  1
  O  O241  1  0.65876456  0.47018641  0.75492637  1
  O  O242  1  0.08655305  0.68792978  0.75545865  1
  O  O243  1  0.57721686  0.69353145  0.75320270  1
  O  O244  1  0.26990119  0.84734757  0.75710158  1
  O  O245  1  0.76574151  0.84004671  0.75424317  1
