# generated using pymatgen
data_Na7ZnIn3(PO4)6
_symmetry_space_group_name_H-M   'P 1'
_cell_length_a   9.12858822
_cell_length_b   9.12574376
_cell_length_c   22.54882311
_cell_angle_alpha   89.86155981
_cell_angle_beta   90.02225555
_cell_angle_gamma   120.01591837
_symmetry_Int_Tables_number   1
_chemical_formula_structural   Na7ZnIn3(PO4)6
_chemical_formula_sum   'Na21 Zn3 In9 P18 O72'
_cell_volume   1626.50443175
_cell_formula_units_Z   3
loop_
 _symmetry_equiv_pos_site_id
 _symmetry_equiv_pos_as_xyz
  1  'x, y, z'
loop_
 _atom_site_type_symbol
 _atom_site_label
 _atom_site_symmetry_multiplicity
 _atom_site_fract_x
 _atom_site_fract_y
 _atom_site_fract_z
 _atom_site_occupancy
  Na  Na0  1  0.63676491  0.00917699  0.24573401  1
  Na  Na1  1  0.37153253  0.36239020  0.24582862  1
  Na  Na2  1  0.99026440  0.62741525  0.24495540  1
  Na  Na3  1  0.63600261  0.62623713  0.74653454  1
  Na  Na4  1  0.99093137  0.36410051  0.74733857  1
  Na  Na5  1  0.37463408  0.00965592  0.74675417  1
  Na  Na6  1  0.02927399  0.69793616  0.58470398  1
  Na  Na7  1  0.66536162  0.96908058  0.58426560  1
  Na  Na8  1  0.30394936  0.96956332  0.08489842  1
  Na  Na9  1  0.66911557  0.69693991  0.08520827  1
  Na  Na10  1  0.69783618  0.03305198  0.91977427  1
  Na  Na11  1  0.33253048  0.30087516  0.91913054  1
  Na  Na12  1  0.96857608  0.29249871  0.41303258  1
  Na  Na13  1  0.32414292  0.03184608  0.41349232  1
  Na  Na14  1  0.70843840  0.67650828  0.41284795  1
  Na  Na15  1  0.01090986  0.01153836  0.49825209  1
  Na  Na16  1  0.99995289  0.99978045  0.00240254  1
  Na  Na17  1  0.67751552  0.34492475  0.83284593  1
  Na  Na18  1  0.66669183  0.33330876  0.32704194  1
  Na  Na19  1  0.32129856  0.65410461  0.16393499  1
  Na  Na20  1  0.33245575  0.65450307  0.66420698  1
  Zn  Zn21  1  0.00045606  0.00057197  0.34270460  1
  Zn  Zn22  1  0.66359310  0.33325812  0.67719692  1
  Zn  Zn23  1  0.67034511  0.33356196  0.17728998  1
  In  In24  1  0.99978019  0.99307920  0.84919888  1
  In  In25  1  0.00681988  0.00709753  0.65063655  1
  In  In26  1  0.00055312  0.00772200  0.15184527  1
  In  In27  1  0.67677147  0.34051478  0.98613920  1
  In  In28  1  0.66348168  0.33347441  0.48725085  1
  In  In29  1  0.32310888  0.65933074  0.01679498  1
  In  In30  1  0.33284131  0.65960900  0.51680935  1
  In  In31  1  0.33356353  0.66702922  0.31889671  1
  In  In32  1  0.33013004  0.66666426  0.81980181  1
  P  P33  1  0.29843189  0.00090669  0.25127762  1
  P  P34  1  0.70220072  0.70164134  0.25158599  1
  P  P35  1  0.99904791  0.29798409  0.25313456  1
  P  P36  1  0.30090912  0.30047093  0.75165755  1
  P  P37  1  0.99912365  0.69904110  0.74824973  1
  P  P38  1  0.70049723  0.00047345  0.75001166  1
  P  P39  1  0.96232572  0.33317650  0.58468500  1
  P  P40  1  0.36751498  0.03306982  0.58407917  1
  P  P41  1  0.66792204  0.63389278  0.58533269  1
  P  P42  1  0.96507356  0.63399416  0.08696093  1
  P  P43  1  0.66563921  0.03350543  0.08368162  1
  P  P44  1  0.37170737  0.33307807  0.08410776  1
  P  P45  1  0.63076758  0.66606331  0.91701210  1
  P  P46  1  0.03181108  0.36430858  0.91439568  1
  P  P47  1  0.33523495  0.96918095  0.91740513  1
  P  P48  1  0.63385469  0.96718132  0.41742493  1
  P  P49  1  0.33285420  0.36548065  0.41561512  1
  P  P50  1  0.03311531  0.66692436  0.41759743  1
  O  O51  1  0.21636729  0.02667358  0.30715881  1
  O  O52  1  0.81069471  0.78432957  0.30732176  1
  O  O53  1  0.97148933  0.19227287  0.30991532  1
  O  O54  1  0.22445820  0.19314907  0.80869512  1
  O  O55  1  0.96553870  0.78208647  0.80200461  1
  O  O56  1  0.81068832  0.02980878  0.80594715  1
  O  O57  1  0.77944701  0.96613070  0.69445078  1
  O  O58  1  0.18053208  0.21894679  0.69848891  1
  O  O59  1  0.03456300  0.80946489  0.69173020  1
  O  O60  1  0.77975154  0.81180720  0.19512159  1
  O  O61  1  0.03721792  0.21900551  0.19904912  1
  O  O62  1  0.18784658  0.96773434  0.19503188  1
  O  O63  1  0.87941658  0.35930817  0.63997477  1
  O  O64  1  0.47706813  0.11675618  0.63906535  1
  O  O65  1  0.64690631  0.52864432  0.64098284  1
  O  O66  1  0.88568907  0.53151877  0.14368653  1
  O  O67  1  0.63983775  0.11737550  0.13872411  1
  O  O68  1  0.48081086  0.35962541  0.13964808  1
  O  O69  1  0.44796874  0.30408326  0.02640733  1
  O  O70  1  0.85374405  0.55592580  0.03157216  1
  O  O71  1  0.68850295  0.13326460  0.02550119  1
  O  O72  1  0.44322087  0.13246647  0.52590347  1
  O  O73  1  0.69716122  0.55841703  0.52786905  1
  O  O74  1  0.85776720  0.30374825  0.52689533  1
  O  O75  1  0.54797339  0.69530920  0.97225551  1
  O  O76  1  0.15038703  0.44923944  0.96720937  1
  O  O77  1  0.31215213  0.86239019  0.97315413  1
  O  O78  1  0.55209939  0.85648576  0.47336415  1
  O  O79  1  0.29858053  0.44861306  0.46921316  1
  O  O80  1  0.14402320  0.69661836  0.47343107  1
  O  O81  1  0.11096241  0.63245549  0.36203025  1
  O  O82  1  0.52145489  0.88897719  0.36186042  1
  O  O83  1  0.36958466  0.47553252  0.35903733  1
  O  O84  1  0.10391976  0.46344434  0.85600723  1
  O  O85  1  0.36437530  0.89158023  0.86054052  1
  O  O86  1  0.52398097  0.63573361  0.85979616  1
  O  O87  1  0.01514726  0.82651923  0.41203956  1
  O  O88  1  0.81094318  0.98459174  0.41219494  1
  O  O89  1  0.17438814  0.18686606  0.41092718  1
  O  O90  1  0.01578039  0.18477034  0.91197750  1
  O  O91  1  0.18034655  0.99584184  0.91355738  1
  O  O92  1  0.80471352  0.83155652  0.91251452  1
  O  O93  1  0.97322716  0.16830647  0.58818728  1
  O  O94  1  0.18451384  0.00377326  0.58729282  1
  O  O95  1  0.83160686  0.81373679  0.58808621  1
  O  O96  1  0.98312984  0.81478748  0.08929391  1
  O  O97  1  0.81914816  0.00377521  0.08730485  1
  O  O98  1  0.19580885  0.16850172  0.08790394  1
  O  O99  1  0.68190659  0.15941403  0.74458330  1
  O  O100  1  0.47726869  0.31761261  0.74481951  1
  O  O101  1  0.84100955  0.52052820  0.74393753  1
  O  O102  1  0.68267642  0.52308271  0.24649572  1
  O  O103  1  0.83926257  0.31523707  0.24625834  1
  O  O104  1  0.47686100  0.16014045  0.24576867  1
  O  O105  1  0.64105932  0.50162613  0.92197118  1
  O  O106  1  0.85080391  0.33747754  0.92062210  1
  O  O107  1  0.49898881  0.14773781  0.92110738  1
  O  O108  1  0.64976955  0.14580553  0.42174047  1
  O  O109  1  0.49573678  0.35078581  0.42176906  1
  O  O110  1  0.85444158  0.50427229  0.42227683  1
  O  O111  1  0.36221298  0.49890921  0.07945153  1
  O  O112  1  0.14729960  0.66095739  0.08152110  1
  O  O113  1  0.50041039  0.85393304  0.08037334  1
  O  O114  1  0.35360383  0.85374887  0.58082812  1
  O  O115  1  0.51298988  0.66153150  0.58130156  1
  O  O116  1  0.13744802  0.49903013  0.58023189  1
  O  O117  1  0.31521587  0.83764924  0.25479699  1
  O  O118  1  0.52251788  0.68540211  0.25480594  1
  O  O119  1  0.16132087  0.47906560  0.25562909  1
  O  O120  1  0.31887026  0.48037384  0.75516597  1
  O  O121  1  0.16266159  0.68517394  0.75418939  1
  O  O122  1  0.52170675  0.83749946  0.75473366  1
