# generated using pymatgen
data_Na6CaSi2Sn3(PO6)4
_symmetry_space_group_name_H-M   'P 1'
_cell_length_a   15.81157713
_cell_length_b   9.08853523
_cell_length_c   9.16338780
_cell_angle_alpha   89.66124170
_cell_angle_beta   125.11512530
_cell_angle_gamma   90.27544403
_symmetry_Int_Tables_number   1
_chemical_formula_structural   Na6CaSi2Sn3(PO6)4
_chemical_formula_sum   'Na12 Ca2 Si4 Sn6 P8 O48'
_cell_volume   1077.13244009
_cell_formula_units_Z   2
loop_
 _symmetry_equiv_pos_site_id
 _symmetry_equiv_pos_as_xyz
  1  'x, y, z'
loop_
 _atom_site_type_symbol
 _atom_site_label
 _atom_site_symmetry_multiplicity
 _atom_site_fract_x
 _atom_site_fract_y
 _atom_site_fract_z
 _atom_site_occupancy
  Na  Na0  1  0.25151320  0.74779942  0.00070949  1
  Na  Na1  1  0.74794965  0.74464943  0.48799077  1
  Na  Na2  1  0.75151320  0.24779942  0.00070949  1
  Na  Na3  1  0.24794965  0.24464943  0.48799077  1
  Na  Na4  1  0.50742924  0.08938234  0.75753578  1
  Na  Na5  1  0.50057804  0.89303805  0.24246172  1
  Na  Na6  1  0.00742924  0.58938234  0.75753578  1
  Na  Na7  1  0.00057804  0.39303805  0.24246172  1
  Na  Na8  1  0.80161645  0.92021850  0.20927458  1
  Na  Na9  1  0.18324455  0.08280440  0.80188566  1
  Na  Na10  1  0.30161645  0.42021850  0.20927458  1
  Na  Na11  1  0.68324455  0.58280440  0.80188566  1
  Ca  Ca12  1  0.10068226  0.24318197  0.05968033  1
  Ca  Ca13  1  0.60068226  0.74318197  0.05968033  1
  Si  Si14  1  0.65414782  0.90151238  0.74765819  1
  Si  Si15  1  0.35719275  0.09594407  0.25719646  1
  Si  Si16  1  0.15414782  0.40151238  0.74765819  1
  Si  Si17  1  0.85719275  0.59594407  0.25719646  1
  Sn  Sn18  1  0.10468692  0.74951206  0.55774670  1
  Sn  Sn19  1  0.89754053  0.75347015  0.93965847  1
  Sn  Sn20  1  0.89827171  0.25090547  0.44632122  1
  Sn  Sn21  1  0.60468692  0.24951206  0.55774670  1
  Sn  Sn22  1  0.39754053  0.25347015  0.93965847  1
  Sn  Sn23  1  0.39827171  0.75090547  0.44632122  1
  P  P24  1  0.99496717  0.94698626  0.73884968  1
  P  P25  1  0.99719067  0.04286555  0.26092519  1
  P  P26  1  0.49496717  0.44698626  0.73884968  1
  P  P27  1  0.49719067  0.54286555  0.26092519  1
  P  P28  1  0.35001360  0.90363902  0.75467973  1
  P  P29  1  0.64886306  0.11646211  0.24858246  1
  P  P30  1  0.85001360  0.40363902  0.75467973  1
  P  P31  1  0.14886306  0.61646211  0.24858246  1
  O  O32  1  0.16165285  0.58251203  0.73766536  1
  O  O33  1  0.84889961  0.57694118  0.74949337  1
  O  O34  1  0.85372682  0.41262215  0.25614836  1
  O  O35  1  0.15417049  0.44864807  0.25378142  1
  O  O36  1  0.66165285  0.08251203  0.73766536  1
  O  O37  1  0.34889961  0.07694118  0.74949337  1
  O  O38  1  0.35372682  0.91262215  0.25614836  1
  O  O39  1  0.65417049  0.94864807  0.25378142  1
  O  O40  1  0.42320419  0.53791176  0.56271045  1
  O  O41  1  0.56119691  0.54287561  0.89903633  1
  O  O42  1  0.56034180  0.45079723  0.43435965  1
  O  O43  1  0.43747773  0.44142684  0.09383733  1
  O  O44  1  0.92320419  0.03791176  0.56271045  1
  O  O45  1  0.06119691  0.04287561  0.89903633  1
  O  O46  1  0.06034180  0.95079723  0.43435965  1
  O  O47  1  0.93747773  0.94142684  0.09383733  1
  O  O48  1  0.24817539  0.85370980  0.73094502  1
  O  O49  1  0.74808389  0.81721395  0.75146703  1
  O  O50  1  0.74215656  0.18165834  0.25435752  1
  O  O51  1  0.26901321  0.17892957  0.25891441  1
  O  O52  1  0.74817539  0.35370980  0.73094502  1
  O  O53  1  0.24808389  0.31721395  0.75146703  1
  O  O54  1  0.24215656  0.68165834  0.25435752  1
  O  O55  1  0.76901321  0.67892957  0.25891441  1
  O  O56  1  0.35562978  0.86096376  0.59509728  1
  O  O57  1  0.65608366  0.87422136  0.92263502  1
  O  O58  1  0.65083488  0.16988534  0.40909802  1
  O  O59  1  0.35485617  0.13002896  0.07407508  1
  O  O60  1  0.85562978  0.36096376  0.59509728  1
  O  O61  1  0.15608366  0.37422136  0.92263502  1
  O  O62  1  0.15083488  0.66988534  0.40909802  1
  O  O63  1  0.85485617  0.63002896  0.07407508  1
  O  O64  1  0.43997988  0.84673052  0.93220393  1
  O  O65  1  0.54744446  0.82368386  0.57138617  1
  O  O66  1  0.54933807  0.17189813  0.06820709  1
  O  O67  1  0.46850628  0.14857811  0.43452315  1
  O  O68  1  0.93997988  0.34673052  0.93220393  1
  O  O69  1  0.04744446  0.32368386  0.57138617  1
  O  O70  1  0.04933807  0.67189813  0.06820709  1
  O  O71  1  0.96850628  0.64857811  0.43452315  1
  O  O72  1  0.07427926  0.84866239  0.73136616  1
  O  O73  1  0.92286951  0.83770647  0.75103056  1
  O  O74  1  0.90802441  0.12538243  0.25614552  1
  O  O75  1  0.06816659  0.15464092  0.26035933  1
  O  O76  1  0.57427926  0.34866239  0.73136616  1
  O  O77  1  0.42286951  0.33770647  0.75103056  1
  O  O78  1  0.40802441  0.62538243  0.25614552  1
  O  O79  1  0.56816659  0.65464092  0.26035933  1
