# generated using pymatgen
data_Na9Mg4Nb2(PO4)9
_symmetry_space_group_name_H-M   'P 1'
_cell_length_a   9.00076963
_cell_length_b   26.91124124
_cell_length_c   22.08760166
_cell_angle_alpha   90.01611890
_cell_angle_beta   89.96345556
_cell_angle_gamma   120.08585057
_symmetry_Int_Tables_number   1
_chemical_formula_structural   Na9Mg4Nb2(PO4)9
_chemical_formula_sum   'Na54 Mg24 Nb12 P54 O216'
_cell_volume   4629.30853956
_cell_formula_units_Z   6
loop_
 _symmetry_equiv_pos_site_id
 _symmetry_equiv_pos_as_xyz
  1  'x, y, z'
loop_
 _atom_site_type_symbol
 _atom_site_label
 _atom_site_symmetry_multiplicity
 _atom_site_fract_x
 _atom_site_fract_y
 _atom_site_fract_z
 _atom_site_occupancy
  Na  Na0  1  0.02377063  0.00419144  0.49133003  1
  Na  Na1  1  0.00966458  0.33174593  0.49243600  1
  Na  Na2  1  0.98454664  0.66953255  0.50603983  1
  Na  Na3  1  0.99653631  0.00362769  0.99528404  1
  Na  Na4  1  0.01625066  0.33747499  0.00794169  1
  Na  Na5  1  0.99956494  0.66240664  0.00993990  1
  Na  Na6  1  0.65075881  0.10618266  0.82990314  1
  Na  Na7  1  0.68190257  0.44915455  0.83681698  1
  Na  Na8  1  0.66732991  0.77804974  0.83318586  1
  Na  Na9  1  0.65403664  0.10414080  0.32224016  1
  Na  Na10  1  0.67728517  0.45055045  0.34407500  1
  Na  Na11  1  0.69638720  0.78368680  0.33274901  1
  Na  Na12  1  0.32345017  0.22312025  0.17434945  1
  Na  Na13  1  0.30964924  0.55066023  0.17473023  1
  Na  Na14  1  0.33733033  0.89235100  0.16073973  1
  Na  Na15  1  0.31647844  0.21761202  0.65868869  1
  Na  Na16  1  0.33740878  0.55205181  0.67226954  1
  Na  Na17  1  0.33220847  0.89288479  0.65621624  1
  Na  Na18  1  0.64381561  0.32772202  0.26176899  1
  Na  Na19  1  0.62072154  0.66568096  0.24554120  1
  Na  Na20  1  0.37589533  0.12511565  0.25549090  1
  Na  Na21  1  0.34782779  0.45213317  0.25729181  1
  Na  Na22  1  0.36736946  0.78622494  0.23722117  1
  Na  Na23  1  0.99546970  0.21202349  0.24845745  1
  Na  Na24  1  0.62626579  0.20873996  0.74919245  1
  Na  Na25  1  0.62658483  0.54323537  0.74431471  1
  Na  Na26  1  0.64296803  0.87574206  0.74292651  1
  Na  Na27  1  0.00094953  0.12546533  0.74946655  1
  Na  Na28  1  0.99622138  0.45591912  0.75557850  1
  Na  Na29  1  0.37848192  0.33382383  0.74952399  1
  Na  Na30  1  0.37762828  0.66676038  0.74654150  1
  Na  Na31  1  0.29644218  0.77851268  0.58238768  1
  Na  Na32  1  0.01697036  0.56692981  0.58717793  1
  Na  Na33  1  0.01919900  0.89020009  0.57543493  1
  Na  Na34  1  0.65236438  0.32135742  0.57161830  1
  Na  Na35  1  0.68533665  0.66622128  0.58964946  1
  Na  Na36  1  0.31433957  0.66526996  0.09106951  1
  Na  Na37  1  0.31633357  0.98935628  0.07938084  1
  Na  Na38  1  0.68092157  0.23383746  0.09545114  1
  Na  Na39  1  0.64959705  0.89102823  0.07637767  1
  Na  Na40  1  0.03606876  0.77781161  0.08356153  1
  Na  Na41  1  0.95475817  0.22159227  0.91725223  1
  Na  Na42  1  0.95579375  0.88902247  0.92027258  1
  Na  Na43  1  0.70663811  0.01229793  0.92254827  1
  Na  Na44  1  0.70656511  0.34653231  0.91759754  1
  Na  Na45  1  0.69049071  0.67999278  0.92334290  1
  Na  Na46  1  0.33725991  0.09960718  0.91136254  1
  Na  Na47  1  0.33237497  0.42989900  0.91706242  1
  Na  Na48  1  0.98442818  0.10284835  0.40876194  1
  Na  Na49  1  0.95644418  0.42993139  0.41139560  1
  Na  Na50  1  0.33718931  0.34290603  0.41847271  1
  Na  Na51  1  0.35127960  0.68149149  0.42149369  1
  Na  Na52  1  0.68925149  0.22756537  0.40487111  1
  Na  Na53  1  0.70902796  0.88919046  0.41930742  1
  Mg  Mg54  1  0.00500786  0.99989719  0.35236120  1
  Mg  Mg55  1  0.99851496  0.33416346  0.34820341  1
  Mg  Mg56  1  0.00359883  0.00097070  0.85115225  1
  Mg  Mg57  1  0.99941415  0.33332922  0.85427205  1
  Mg  Mg58  1  0.00124298  0.66879522  0.64932190  1
  Mg  Mg59  1  0.00555976  0.33407468  0.14850313  1
  Mg  Mg60  1  0.99777748  0.66584628  0.14802862  1
  Mg  Mg61  1  0.66018341  0.10923965  0.68555138  1
  Mg  Mg62  1  0.66319513  0.44547713  0.68246262  1
  Mg  Mg63  1  0.68275840  0.77734295  0.68422348  1
  Mg  Mg64  1  0.67368629  0.11152410  0.18222569  1
  Mg  Mg65  1  0.66675224  0.77877451  0.18408018  1
  Mg  Mg66  1  0.67008751  0.10994851  0.98431133  1
  Mg  Mg67  1  0.67294560  0.44617316  0.98107087  1
  Mg  Mg68  1  0.65251429  0.77889913  0.98232482  1
  Mg  Mg69  1  0.65877627  0.44382428  0.48438667  1
  Mg  Mg70  1  0.68619836  0.77918216  0.48231638  1
  Mg  Mg71  1  0.33266037  0.88689540  0.01743957  1
  Mg  Mg72  1  0.32732453  0.22133636  0.51818808  1
  Mg  Mg73  1  0.33196061  0.88846220  0.51784810  1
  Mg  Mg74  1  0.33464788  0.22117247  0.31857823  1
  Mg  Mg75  1  0.32696472  0.55448515  0.31404499  1
  Mg  Mg76  1  0.33395907  0.22218429  0.81246821  1
  Mg  Mg77  1  0.32973382  0.55457334  0.81556925  1
  Nb  Nb78  1  0.99481994  0.66343855  0.35301850  1
  Nb  Nb79  1  0.99992953  0.66526106  0.85370138  1
  Nb  Nb80  1  0.00336221  0.00218008  0.64522807  1
  Nb  Nb81  1  0.00541521  0.33181325  0.64662624  1
  Nb  Nb82  1  0.99300497  0.00018178  0.14965091  1
  Nb  Nb83  1  0.67315461  0.44529402  0.18359112  1
  Nb  Nb84  1  0.65992742  0.11004803  0.48297450  1
  Nb  Nb85  1  0.32792868  0.22352723  0.02002326  1
  Nb  Nb86  1  0.33000698  0.55329846  0.02124228  1
  Nb  Nb87  1  0.33969074  0.55424378  0.51822043  1
  Nb  Nb88  1  0.33168451  0.89365505  0.31438341  1
  Nb  Nb89  1  0.33349201  0.89046221  0.81269330  1
  P  P90  1  0.29231064  0.00116424  0.24963782  1
  P  P91  1  0.29515933  0.33375813  0.25127729  1
  P  P92  1  0.29437561  0.66485245  0.24774660  1
  P  P93  1  0.70238413  0.23317779  0.24873048  1
  P  P94  1  0.70502032  0.56908515  0.24691100  1
  P  P95  1  0.70280554  0.90088114  0.25513564  1
  P  P96  1  0.99640634  0.09871765  0.25586198  1
  P  P97  1  0.00246540  0.43207465  0.24949396  1
  P  P98  1  0.99913473  0.76438753  0.24887941  1
  P  P99  1  0.29666951  0.09853329  0.75366664  1
  P  P100  1  0.29605695  0.43058433  0.75358964  1
  P  P101  1  0.29397338  0.76465199  0.74861532  1
  P  P102  1  0.99623887  0.23404130  0.75501162  1
  P  P103  1  0.00279551  0.56882443  0.74630265  1
  P  P104  1  0.00053395  0.90255649  0.75153379  1
  P  P105  1  0.71011695  0.00133615  0.75400653  1
  P  P106  1  0.70836086  0.33442109  0.75109491  1
  P  P107  1  0.70245134  0.66589716  0.74904309  1
  P  P108  1  0.96078114  0.11282547  0.58756785  1
  P  P109  1  0.96023661  0.44457021  0.58401492  1
  P  P110  1  0.96860198  0.77773762  0.58357029  1
  P  P111  1  0.37209191  0.01225522  0.58762471  1
  P  P112  1  0.37443601  0.34487141  0.58399727  1
  P  P113  1  0.37263966  0.67996938  0.58176372  1
  P  P114  1  0.66347687  0.20887636  0.58802622  1
  P  P115  1  0.66969120  0.54314272  0.58498822  1
  P  P116  1  0.66302289  0.87472264  0.58514726  1
  P  P117  1  0.95911409  0.21071330  0.08250961  1
  P  P118  1  0.96149221  0.54323010  0.07914528  1
  P  P119  1  0.96043894  0.87545881  0.08212973  1
  P  P120  1  0.66426537  0.01224313  0.08173625  1
  P  P121  1  0.66972617  0.34654304  0.07850169  1
  P  P122  1  0.66946309  0.68074502  0.08168598  1
  P  P123  1  0.37191223  0.11069713  0.08250120  1
  P  P124  1  0.37263579  0.44275928  0.07912466  1
  P  P125  1  0.36425728  0.77752799  0.08575893  1
  P  P126  1  0.62540622  0.22126523  0.91559294  1
  P  P127  1  0.62341970  0.55422593  0.91259476  1
  P  P128  1  0.62999893  0.88944051  0.91752728  1
  P  P129  1  0.03725142  0.12502786  0.91310916  1
  P  P130  1  0.03658129  0.45698741  0.91295912  1
  P  P131  1  0.04000510  0.79092823  0.91805970  1
  P  P132  1  0.33746947  0.32145929  0.91172011  1
  P  P133  1  0.33242090  0.65294288  0.91529509  1
  P  P134  1  0.33047258  0.98674940  0.92008524  1
  P  P135  1  0.63070762  0.32231428  0.41792957  1
  P  P136  1  0.62822111  0.65396143  0.41272683  1
  P  P137  1  0.62774734  0.98629424  0.42020010  1
  P  P138  1  0.33080400  0.12347689  0.41724445  1
  P  P139  1  0.33654206  0.45656576  0.41092202  1
  P  P140  1  0.33345601  0.79166886  0.41613378  1
  P  P141  1  0.03817417  0.22186225  0.41544978  1
  P  P142  1  0.04051462  0.55491004  0.41708004  1
  P  P143  1  0.03556338  0.88990294  0.42130436  1
  O  O144  1  0.20130223  0.00728658  0.30385053  1
  O  O145  1  0.23426289  0.34957738  0.30991305  1
  O  O146  1  0.18275371  0.66619337  0.30504521  1
  O  O147  1  0.81136318  0.26346204  0.30560944  1
  O  O148  1  0.81593877  0.59871548  0.30669106  1
  O  O149  1  0.79918217  0.93009942  0.31229885  1
  O  O150  1  0.98636881  0.06667666  0.31376683  1
  O  O151  1  0.95996602  0.39782235  0.30916176  1
  O  O152  1  0.98461472  0.72238066  0.30285382  1
  O  O153  1  0.21259097  0.06635005  0.81202947  1
  O  O154  1  0.21421031  0.39682947  0.81155443  1
  O  O155  1  0.18439267  0.72505977  0.80342956  1
  O  O156  1  0.97552333  0.26221746  0.81197952  1
  O  O157  1  0.99245911  0.60501094  0.80293512  1
  O  O158  1  0.98160118  0.93118292  0.80818382  1
  O  O159  1  0.80717713  0.00648259  0.81222538  1
  O  O160  1  0.81599285  0.34234894  0.80797829  1
  O  O161  1  0.81545526  0.66777366  0.80663468  1
  O  O162  1  0.80887064  0.32909952  0.69396046  1
  O  O163  1  0.78887290  0.65941365  0.69251201  1
  O  O164  1  0.80676952  0.99158621  0.69951046  1
  O  O165  1  0.17285196  0.06089614  0.69855575  1
  O  O166  1  0.17551207  0.39388190  0.69841082  1
  O  O167  1  0.19974776  0.74036949  0.68977187  1
  O  O168  1  0.00501544  0.27354077  0.69871185  1
  O  O169  1  0.02163943  0.60400399  0.68970939  1
  O  O170  1  0.02603675  0.94048694  0.69375560  1
  O  O171  1  0.78683633  0.26870361  0.19125947  1
  O  O172  1  0.79716245  0.60809193  0.19446167  1
  O  O173  1  0.79934019  0.93869274  0.19704604  1
  O  O174  1  0.00558909  0.05930533  0.20127964  1
  O  O175  1  0.02170274  0.39985861  0.19672621  1
  O  O176  1  0.03727555  0.74219758  0.19104790  1
  O  O177  1  0.18088818  0.32579731  0.19766063  1
  O  O178  1  0.19599475  0.66262048  0.19095052  1
  O  O179  1  0.18085776  0.99197340  0.19043128  1
  O  O180  1  0.87602383  0.11699771  0.64514504  1
  O  O181  1  0.89211053  0.45865855  0.64120904  1
  O  O182  1  0.88355295  0.78631017  0.63982097  1
  O  O183  1  0.47400743  0.04137766  0.64331030  1
  O  O184  1  0.48165042  0.37524703  0.64032000  1
  O  O185  1  0.47913162  0.70356067  0.64013620  1
  O  O186  1  0.65475131  0.17702757  0.64553369  1
  O  O187  1  0.64020904  0.51268156  0.64604987  1
  O  O188  1  0.64202624  0.83862791  0.64210255  1
  O  O189  1  0.88935539  0.17680946  0.14113878  1
  O  O190  1  0.86516240  0.50490914  0.13652691  1
  O  O191  1  0.86747718  0.83559037  0.13501426  1
  O  O192  1  0.63882325  0.04418400  0.13334085  1
  O  O193  1  0.65180209  0.37987502  0.13538172  1
  O  O194  1  0.62639729  0.70339956  0.13945639  1
  O  O195  1  0.48255458  0.12240321  0.13852290  1
  O  O196  1  0.49341891  0.45204728  0.13600671  1
  O  O197  1  0.46733788  0.78489414  0.14454548  1
  O  O198  1  0.44115159  0.09702304  0.02519485  1
  O  O199  1  0.45742916  0.43866740  0.02155903  1
  O  O200  1  0.46012115  0.77035150  0.03212918  1
  O  O201  1  0.85144523  0.18057649  0.02617668  1
  O  O202  1  0.85933264  0.51417982  0.02333627  1
  O  O203  1  0.86021745  0.85471451  0.02196539  1
  O  O204  1  0.69426793  0.04275626  0.02056860  1
  O  O205  1  0.67902924  0.37865570  0.02115090  1
  O  O206  1  0.69152943  0.71704374  0.02482837  1
  O  O207  1  0.46847378  0.05067967  0.53020712  1
  O  O208  1  0.44385239  0.37882819  0.52530624  1
  O  O209  1  0.45866362  0.71595587  0.52500507  1
  O  O210  1  0.68160493  0.17583732  0.53111421  1
  O  O211  1  0.69451280  0.51122884  0.53322522  1
  O  O212  1  0.70568816  0.85188791  0.52743599  1
  O  O213  1  0.84008227  0.10368938  0.53081514  1
  O  O214  1  0.85085652  0.43345925  0.52780865  1
  O  O215  1  0.85366499  0.76710041  0.52795938  1
  O  O216  1  0.52445688  0.22651430  0.97259241  1
  O  O217  1  0.52632998  0.56389278  0.96710161  1
  O  O218  1  0.54344537  0.89548759  0.97428704  1
  O  O219  1  0.15804572  0.16176156  0.96825729  1
  O  O220  1  0.16050554  0.49475258  0.96807085  1
  O  O221  1  0.13416636  0.81470941  0.97715114  1
  O  O222  1  0.32861086  0.28198415  0.96787630  1
  O  O223  1  0.30732704  0.61502014  0.97311175  1
  O  O224  1  0.31228213  0.95154879  0.97653226  1
  O  O225  1  0.54627472  0.28709406  0.47550142  1
  O  O226  1  0.53455699  0.61578842  0.47091130  1
  O  O227  1  0.53428226  0.94755128  0.47268175  1
  O  O228  1  0.31207148  0.15579722  0.47004636  1
  O  O229  1  0.32626397  0.49564506  0.46565149  1
  O  O230  1  0.30827567  0.81515131  0.47497875  1
  O  O231  1  0.15302876  0.23020778  0.46903328  1
  O  O232  1  0.15692174  0.56545063  0.47534428  1
  O  O233  1  0.13267952  0.89321673  0.47861631  1
  O  O234  1  0.09990298  0.20637367  0.35681436  1
  O  O235  1  0.13220185  0.54944599  0.36257412  1
  O  O236  1  0.15340906  0.88970301  0.36485046  1
  O  O237  1  0.52167805  0.29215153  0.36105341  1
  O  O238  1  0.52434022  0.62442341  0.35659593  1
  O  O239  1  0.51656007  0.95674606  0.36036214  1
  O  O240  1  0.37414621  0.15793739  0.35767911  1
  O  O241  1  0.34739082  0.48865537  0.35297526  1
  O  O242  1  0.34735751  0.83139711  0.36102863  1
  O  O243  1  0.11878265  0.15883210  0.85514402  1
  O  O244  1  0.12087449  0.48925973  0.85466398  1
  O  O245  1  0.14901825  0.83036090  0.86326512  1
  O  O246  1  0.35839382  0.29354337  0.85458728  1
  O  O247  1  0.35227823  0.62453493  0.85865419  1
  O  O248  1  0.34051798  0.95052039  0.86336139  1
  O  O249  1  0.51802115  0.21346107  0.85871112  1
  O  O250  1  0.52610301  0.54903624  0.85443047  1
  O  O251  1  0.51749915  0.88781037  0.85997737  1
  O  O252  1  0.01025135  0.27382823  0.40967685  1
  O  O253  1  0.03107296  0.61255655  0.41406713  1
  O  O254  1  0.01306071  0.94239161  0.41408539  1
  O  O255  1  0.81276759  0.32872692  0.41298739  1
  O  O256  1  0.80976116  0.65820709  0.41164803  1
  O  O257  1  0.80897804  0.99559692  0.41346395  1
  O  O258  1  0.17396014  0.06312878  0.41326898  1
  O  O259  1  0.16663588  0.39907040  0.41732238  1
  O  O260  1  0.17258554  0.72921421  0.40567596  1
  O  O261  1  0.02990489  0.06649623  0.91755202  1
  O  O262  1  0.03294322  0.39900344  0.91906086  1
  O  O263  1  0.01543597  0.72911666  0.90779236  1
  O  O264  1  0.16856834  0.32273522  0.91628921  1
  O  O265  1  0.16434871  0.65813256  0.91137121  1
  O  O266  1  0.16975741  0.99244603  0.91353533  1
  O  O267  1  0.80182499  0.27715058  0.91692959  1
  O  O268  1  0.80539269  0.61198479  0.91247502  1
  O  O269  1  0.80871259  0.94446315  0.91233144  1
  O  O270  1  0.96955651  0.05455206  0.59041612  1
  O  O271  1  0.98375985  0.39079556  0.59217322  1
  O  O272  1  0.99257012  0.72424934  0.58836081  1
  O  O273  1  0.18930424  0.00941932  0.58747999  1
  O  O274  1  0.18639119  0.33777884  0.59314888  1
  O  O275  1  0.18750407  0.66895143  0.58555057  1
  O  O276  1  0.83459167  0.27063292  0.58669374  1
  O  O277  1  0.82117371  0.60578817  0.58571897  1
  O  O278  1  0.83299832  0.93680022  0.59458954  1
  O  O279  1  0.98441877  0.27145438  0.08571276  1
  O  O280  1  0.00169630  0.60471673  0.08768236  1
  O  O281  1  0.97800012  0.93769286  0.09226029  1
  O  O282  1  0.82877692  0.00405619  0.09208953  1
  O  O283  1  0.81832967  0.33562327  0.08671777  1
  O  O284  1  0.82485832  0.67235706  0.08706619  1
  O  O285  1  0.18450028  0.05730621  0.09183449  1
  O  O286  1  0.19350229  0.39333200  0.08905229  1
  O  O287  1  0.18108063  0.72387818  0.08786669  1
  O  O288  1  0.68962521  0.05341332  0.74558843  1
  O  O289  1  0.69075438  0.38834870  0.74352421  1
  O  O290  1  0.68414695  0.71946522  0.75224523  1
  O  O291  1  0.47704800  0.10720052  0.74694802  1
  O  O292  1  0.47527222  0.43749590  0.74599616  1
  O  O293  1  0.47140986  0.76992139  0.75271728  1
  O  O294  1  0.83830512  0.17380586  0.74808490  1
  O  O295  1  0.83571801  0.51060789  0.75046405  1
  O  O296  1  0.84176286  0.84313306  0.74474491  1
  O  O297  1  0.68138266  0.17202120  0.24598150  1
  O  O298  1  0.68915447  0.50815459  0.24375180  1
  O  O299  1  0.67372631  0.84027008  0.24719622  1
  O  O300  1  0.84138376  0.10631827  0.24663942  1
  O  O301  1  0.83521026  0.43855197  0.23881725  1
  O  O302  1  0.83294176  0.76617079  0.24981220  1
  O  O303  1  0.46995114  0.05316876  0.24130190  1
  O  O304  1  0.48552488  0.38908686  0.24006873  1
  O  O305  1  0.46866778  0.72139051  0.25330309  1
  O  O306  1  0.64222712  0.16724155  0.92318494  1
  O  O307  1  0.64350267  0.50207240  0.92110729  1
  O  O308  1  0.64714063  0.83560807  0.91420569  1
  O  O309  1  0.85832346  0.11830522  0.92082040  1
  O  O310  1  0.85642038  0.44843662  0.91970037  1
  O  O311  1  0.86211861  0.78534056  0.91401561  1
  O  O312  1  0.49770461  0.04493078  0.91595801  1
  O  O313  1  0.49555031  0.38169920  0.91873119  1
  O  O314  1  0.49061637  0.71249126  0.92259136  1
  O  O315  1  0.64449540  0.04747555  0.42301593  1
  O  O316  1  0.65244094  0.38365797  0.42045487  1
  O  O317  1  0.64575839  0.71283498  0.42082061  1
  O  O318  1  0.49818008  0.11697977  0.42792053  1
  O  O319  1  0.49202333  0.44922481  0.42010551  1
  O  O320  1  0.49391438  0.78538997  0.41336394  1
  O  O321  1  0.84822085  0.16661437  0.42661658  1
  O  O322  1  0.86388432  0.50282718  0.42529888  1
  O  O323  1  0.86052412  0.83465519  0.41510835  1
  O  O324  1  0.34851967  0.16465193  0.07413614  1
  O  O325  1  0.36368953  0.50100753  0.07637473  1
  O  O326  1  0.34358371  0.83161300  0.08119556  1
  O  O327  1  0.14720167  0.21783031  0.07367306  1
  O  O328  1  0.14417919  0.54616957  0.07929314  1
  O  O329  1  0.14661553  0.88716448  0.07933408  1
  O  O330  1  0.49864777  0.28495132  0.08006045  1
  O  O331  1  0.49982458  0.61864698  0.07233601  1
  O  O332  1  0.51160419  0.94968907  0.08060473  1
  O  O333  1  0.34839690  0.28407275  0.58120759  1
  O  O334  1  0.35393021  0.61717940  0.57473033  1
  O  O335  1  0.33216350  0.95083259  0.57907452  1
  O  O336  1  0.51523404  0.22001331  0.57995783  1
  O  O337  1  0.50336024  0.55054729  0.57491522  1
  O  O338  1  0.50795981  0.88329885  0.58009878  1
  O  O339  1  0.13980050  0.16227646  0.57763724  1
  O  O340  1  0.14771628  0.49815908  0.57434861  1
  O  O341  1  0.15109876  0.83137288  0.57828677  1
  O  O342  1  0.32290121  0.28180378  0.25694450  1
  O  O343  1  0.32044178  0.61308327  0.25323408  1
  O  O344  1  0.30742301  0.94470312  0.25319001  1
  O  O345  1  0.52024530  0.22671357  0.25377261  1
  O  O346  1  0.52415448  0.56019951  0.25376400  1
  O  O347  1  0.51835994  0.89607159  0.25415249  1
  O  O348  1  0.16641500  0.15627102  0.24934956  1
  O  O349  1  0.15944461  0.49251423  0.25319363  1
  O  O350  1  0.16134022  0.82475821  0.26180923  1
  O  O351  1  0.30046888  0.15658460  0.74756753  1
  O  O352  1  0.30400866  0.48922230  0.74914851  1
  O  O353  1  0.31827885  0.82634006  0.75883443  1
  O  O354  1  0.16512505  0.23279930  0.75039901  1
  O  O355  1  0.16359554  0.56314546  0.75300040  1
  O  O356  1  0.16856116  0.89722351  0.75537308  1
  O  O357  1  0.53191793  0.27866763  0.74987380  1
  O  O358  1  0.52348846  0.61090192  0.75439260  1
  O  O359  1  0.52774795  0.94357990  0.75420626  1
