# generated using pymatgen
data_Na3In2Ge2P5SO24
_symmetry_space_group_name_H-M   'P 1'
_cell_length_a   8.71766902
_cell_length_b   8.70501891
_cell_length_c   22.11549684
_cell_angle_alpha   90.32216658
_cell_angle_beta   90.00155851
_cell_angle_gamma   119.68517695
_symmetry_Int_Tables_number   1
_chemical_formula_structural   Na3In2Ge2P5SO24
_chemical_formula_sum   'Na9 In6 Ge6 P15 S3 O72'
_cell_volume   1457.99926568
_cell_formula_units_Z   3
loop_
 _symmetry_equiv_pos_site_id
 _symmetry_equiv_pos_as_xyz
  1  'x, y, z'
loop_
 _atom_site_type_symbol
 _atom_site_label
 _atom_site_symmetry_multiplicity
 _atom_site_fract_x
 _atom_site_fract_y
 _atom_site_fract_z
 _atom_site_occupancy
  Na  Na0  1  0.00698705  0.36238361  0.75031994  1
  Na  Na1  1  0.66990902  0.95483270  0.58375428  1
  Na  Na2  1  0.04831183  0.33178095  0.08379682  1
  Na  Na3  1  0.01219984  0.99452373  0.49803608  1
  Na  Na4  1  0.00614697  0.98974887  0.99745425  1
  Na  Na5  1  0.65313994  0.32445379  0.83515002  1
  Na  Na6  1  0.67693266  0.33599122  0.33395686  1
  Na  Na7  1  0.34992188  0.67399363  0.16886888  1
  Na  Na8  1  0.33480248  0.66867097  0.66818050  1
  In  In9  1  0.00994828  0.99913087  0.64453022  1
  In  In10  1  0.99524938  0.99100159  0.14498292  1
  In  In11  1  0.33399994  0.67355986  0.01708926  1
  In  In12  1  0.32407761  0.66719485  0.51716079  1
  In  In13  1  0.32883262  0.66556023  0.31959669  1
  In  In14  1  0.33451452  0.67635180  0.82074551  1
  Ge  Ge15  1  0.97441596  0.98458220  0.34849567  1
  Ge  Ge16  1  0.01284447  0.01055045  0.84710709  1
  Ge  Ge17  1  0.66463846  0.33783714  0.68792886  1
  Ge  Ge18  1  0.67528415  0.34069414  0.18677186  1
  Ge  Ge19  1  0.66396251  0.32482020  0.98221439  1
  Ge  Ge20  1  0.67534666  0.33658574  0.48189001  1
  P  P21  1  0.70319216  0.69574827  0.24873396  1
  P  P22  1  0.99069339  0.28733441  0.24842214  1
  P  P23  1  0.30153386  0.29278097  0.74995721  1
  P  P24  1  0.98960293  0.70416178  0.75042603  1
  P  P25  1  0.70922291  0.00396162  0.74745074  1
  P  P26  1  0.95115794  0.34034680  0.58560843  1
  P  P27  1  0.39335158  0.06232584  0.58216850  1
  P  P28  1  0.66268030  0.60940197  0.58273638  1
  P  P29  1  0.94277914  0.61083382  0.08159158  1
  P  P30  1  0.65980906  0.05113828  0.08505275  1
  P  P31  1  0.39276929  0.33621364  0.08420732  1
  P  P32  1  0.02096209  0.35306852  0.91686230  1
  P  P33  1  0.33224876  0.97997449  0.91712056  1
  P  P34  1  0.64026240  0.97654549  0.41851939  1
  P  P35  1  0.02110492  0.66893569  0.41595774  1
  S  S36  1  0.29807197  0.01066256  0.25086091  1
  S  S37  1  0.64538911  0.66824108  0.91684854  1
  S  S38  1  0.33068992  0.35290987  0.41621784  1
  O  O39  1  0.20554715  0.03046144  0.30489247  1
  O  O40  1  0.82393755  0.78355605  0.30587995  1
  O  O41  1  0.96315915  0.16081026  0.30332519  1
  O  O42  1  0.21491293  0.17197674  0.80625822  1
  O  O43  1  0.96565562  0.79902574  0.80683996  1
  O  O44  1  0.84389817  0.04248119  0.80099837  1
  O  O45  1  0.78015478  0.97740186  0.68732047  1
  O  O46  1  0.18213786  0.22185738  0.69440189  1
  O  O47  1  0.02566068  0.80709798  0.69236085  1
  O  O48  1  0.78129898  0.80376921  0.19213890  1
  O  O49  1  0.02294077  0.21822959  0.18869377  1
  O  O50  1  0.20006115  0.98393369  0.19432640  1
  O  O51  1  0.86617964  0.35847966  0.64595396  1
  O  O52  1  0.50491762  0.14612220  0.64070336  1
  O  O53  1  0.64465400  0.50575276  0.64168745  1
  O  O54  1  0.86298653  0.50176112  0.14052853  1
  O  O55  1  0.64142480  0.14085063  0.14356233  1
  O  O56  1  0.49968704  0.35773313  0.14309517  1
  O  O57  1  0.47998130  0.31774089  0.02601186  1
  O  O58  1  0.83453858  0.51950488  0.02408640  1
  O  O59  1  0.68673214  0.16148968  0.02710123  1
  O  O60  1  0.48334498  0.16584329  0.52411763  1
  O  O61  1  0.68097824  0.52056982  0.52468420  1
  O  O62  1  0.83752995  0.31440377  0.52844950  1
  O  O63  1  0.56787298  0.70192991  0.97147720  1
  O  O64  1  0.13677863  0.42933025  0.97393723  1
  O  O65  1  0.29248207  0.86326836  0.97289322  1
  O  O66  1  0.56993295  0.86563950  0.47636711  1
  O  O67  1  0.29652436  0.43016779  0.47092932  1
  O  O68  1  0.13673142  0.71223870  0.47266091  1
  O  O69  1  0.09476198  0.62233978  0.36089825  1
  O  O70  1  0.52153004  0.89411270  0.36382442  1
  O  O71  1  0.36700829  0.46493893  0.36288485  1
  O  O72  1  0.09999558  0.46743025  0.86062249  1
  O  O73  1  0.38104745  0.90990707  0.86140577  1
  O  O74  1  0.53305298  0.63195543  0.86316839  1
  O  O75  1  0.00444072  0.83869225  0.40511657  1
  O  O76  1  0.82970169  0.00117453  0.40767617  1
  O  O77  1  0.17304140  0.17446849  0.40713374  1
  O  O78  1  0.99657095  0.16394392  0.90610180  1
  O  O79  1  0.16267849  0.99493474  0.90644842  1
  O  O80  1  0.82231455  0.82650169  0.90874764  1
  O  O81  1  0.96274564  0.16968965  0.58531677  1
  O  O82  1  0.21215451  0.04839920  0.58210258  1
  O  O83  1  0.82742427  0.79570806  0.58295226  1
  O  O84  1  0.95930984  0.79346835  0.08204511  1
  O  O85  1  0.83061408  0.03981643  0.08518886  1
  O  O86  1  0.20680864  0.17043644  0.08514730  1
  O  O87  1  0.70035834  0.18107858  0.74538503  1
  O  O88  1  0.48254392  0.30126088  0.74347441  1
  O  O89  1  0.81637857  0.51793173  0.74665265  1
  O  O90  1  0.69397139  0.51112822  0.24444324  1
  O  O91  1  0.81469304  0.29635805  0.24514907  1
  O  O92  1  0.47353393  0.17575855  0.24838698  1
  O  O93  1  0.66750895  0.51001500  0.92413180  1
  O  O94  1  0.83312743  0.33197585  0.92518660  1
  O  O95  1  0.49321549  0.17018099  0.92652700  1
  O  O96  1  0.66595911  0.16682846  0.42579199  1
  O  O97  1  0.48850248  0.33030911  0.42383950  1
  O  O98  1  0.83167646  0.50683278  0.42554959  1
  O  O99  1  0.36994805  0.50139903  0.08113735  1
  O  O100  1  0.12480717  0.62215693  0.07950667  1
  O  O101  1  0.49417017  0.86951923  0.08214571  1
  O  O102  1  0.37957178  0.87846577  0.58090827  1
  O  O103  1  0.49659847  0.62976816  0.58013405  1
  O  O104  1  0.13168873  0.50697853  0.58241988  1
  O  O105  1  0.32418795  0.85596759  0.25613169  1
  O  O106  1  0.51938157  0.67180658  0.25764317  1
  O  O107  1  0.14774475  0.47206679  0.25783117  1
  O  O108  1  0.32335533  0.47667194  0.76017934  1
  O  O109  1  0.14339955  0.66636334  0.75782259  1
  O  O110  1  0.52748034  0.84566485  0.75705061  1
