# generated using pymatgen
data_MgMn2P2(HO5)2
_symmetry_space_group_name_H-M   'P 1'
_cell_length_a   5.55877773
_cell_length_b   7.31020881
_cell_length_c   5.20757189
_cell_angle_alpha   108.17774276
_cell_angle_beta   100.69238633
_cell_angle_gamma   106.95040114
_symmetry_Int_Tables_number   1
_chemical_formula_structural   MgMn2P2(HO5)2
_chemical_formula_sum   'Mg1 Mn2 P2 H2 O10'
_cell_volume   183.20275602
_cell_formula_units_Z   1
loop_
 _symmetry_equiv_pos_site_id
 _symmetry_equiv_pos_as_xyz
  1  'x, y, z'
loop_
 _atom_site_type_symbol
 _atom_site_label
 _atom_site_symmetry_multiplicity
 _atom_site_fract_x
 _atom_site_fract_y
 _atom_site_fract_z
 _atom_site_occupancy
  Mg  Mg0  1  0.59999300  0.15913100  0.24004500  1
  Mn  Mn1  1  0.00090600  0.50295000  0.99671900  1
  Mn  Mn2  1  0.98709900  0.98630500  0.99971900  1
  P  P3  1  0.36367400  0.23902900  0.67284000  1
  P  P4  1  0.62873200  0.75970100  0.34196400  1
  H  H5  1  0.07846700  0.34569100  0.35072600  1
  H  H6  1  0.96467000  0.66851700  0.64568700  1
  O  O7  1  0.04380200  0.72703800  0.85654400  1
  O  O8  1  0.20872800  0.38145200  0.69084500  1
  O  O9  1  0.33260300  0.64344500  0.29457300  1
  O  O10  1  0.25850400  0.06689100  0.36148500  1
  O  O11  1  0.35237600  0.14605400  0.89869400  1
  O  O12  1  0.66268400  0.89269900  0.15973200  1
  O  O13  1  0.74307800  0.92401400  0.65365600  1
  O  O14  1  0.66045000  0.33922200  0.67907600  1
  O  O15  1  0.77913900  0.61173000  0.29160500  1
  O  O16  1  0.94759400  0.27279800  0.15359000  1
