# generated using pymatgen
data_Ba2As2Se5
_symmetry_space_group_name_H-M   'P 1'
_cell_length_a   12.55397498
_cell_length_b   9.61102357
_cell_length_c   10.21009389
_cell_angle_alpha   62.58424326
_cell_angle_beta   90.00000000
_cell_angle_gamma   90.00000000
_symmetry_Int_Tables_number   1
_chemical_formula_structural   Ba2As2Se5
_chemical_formula_sum   'Ba8 As8 Se20'
_cell_volume   1093.55687200
_cell_formula_units_Z   4
loop_
 _symmetry_equiv_pos_site_id
 _symmetry_equiv_pos_as_xyz
  1  'x, y, z'
loop_
 _atom_site_type_symbol
 _atom_site_label
 _atom_site_symmetry_multiplicity
 _atom_site_fract_x
 _atom_site_fract_y
 _atom_site_fract_z
 _atom_site_occupancy
  Ba  Ba0  1  0.06897539  0.82420766  0.34597142  1
  Ba  Ba1  1  0.56897539  0.17579234  0.65402858  1
  Ba  Ba2  1  0.06514702  0.33164832  0.35443072  1
  Ba  Ba3  1  0.56514702  0.66835168  0.64556928  1
  Ba  Ba4  1  0.21918445  0.58487405  0.83955758  1
  Ba  Ba5  1  0.71918445  0.41512595  0.16044242  1
  Ba  Ba6  1  0.22660650  0.07706984  0.85820720  1
  Ba  Ba7  1  0.72660650  0.92293016  0.14179280  1
  As  As8  1  0.37594428  0.23120697  0.24912023  1
  As  As9  1  0.48947395  0.21871096  0.99127074  1
  As  As10  1  0.98947395  0.78128904  0.00872926  1
  As  As11  1  0.87594428  0.76879303  0.75087977  1
  As  As12  1  0.91770429  0.40385193  0.73716278  1
  As  As13  1  0.41770429  0.59614807  0.26283722  1
  As  As14  1  0.30181228  0.96471235  0.51204268  1
  As  As15  1  0.80181228  0.03528765  0.48795732  1
  Se  Se16  1  0.83557660  0.66412054  0.57211851  1
  Se  Se17  1  0.33557660  0.33587946  0.42788149  1
  Se  Se18  1  0.44678962  0.50464250  0.07557415  1
  Se  Se19  1  0.94678962  0.49535750  0.92442585  1
  Se  Se20  1  0.62130240  0.04549889  0.39699993  1
  Se  Se21  1  0.16803517  0.70187112  0.10037262  1
  Se  Se22  1  0.12130240  0.95450111  0.60300007  1
  Se  Se23  1  0.66803517  0.29812888  0.89962738  1
  Se  Se24  1  0.89537154  0.62918271  0.23568844  1
  Se  Se25  1  0.39537154  0.37081729  0.76431156  1
  Se  Se26  1  0.39562604  0.88625490  0.73687220  1
  Se  Se27  1  0.89562604  0.11374510  0.26312780  1
  Se  Se28  1  0.21010961  0.21685219  0.14040375  1
  Se  Se29  1  0.71010961  0.78314781  0.85959625  1
  Se  Se30  1  0.59183431  0.56293436  0.36673239  1
  Se  Se31  1  0.09183431  0.43706564  0.63326761  1
  Se  Se32  1  0.81657948  0.25848388  0.52549407  1
  Se  Se33  1  0.31657948  0.74151612  0.47450593  1
  Se  Se34  1  0.47922907  0.96194508  0.01446546  1
  Se  Se35  1  0.97922907  0.03805492  0.98553454  1
