# generated using pymatgen
data_Na4InGaSi2SO12
_symmetry_space_group_name_H-M   'P 1'
_cell_length_a   9.11586597
_cell_length_b   9.10054815
_cell_length_c   22.24695436
_cell_angle_alpha   89.87304892
_cell_angle_beta   90.00292604
_cell_angle_gamma   119.49662892
_symmetry_Int_Tables_number   1
_chemical_formula_structural   Na4InGaSi2SO12
_chemical_formula_sum   'Na24 In6 Ga6 Si12 S6 O72'
_cell_volume   1606.37117423
_cell_formula_units_Z   6
loop_
 _symmetry_equiv_pos_site_id
 _symmetry_equiv_pos_as_xyz
  1  'x, y, z'
loop_
 _atom_site_type_symbol
 _atom_site_label
 _atom_site_symmetry_multiplicity
 _atom_site_fract_x
 _atom_site_fract_y
 _atom_site_fract_z
 _atom_site_occupancy
  Na  Na0  1  0.64133849  0.99978455  0.25381307  1
  Na  Na1  1  0.36276476  0.37340785  0.24421143  1
  Na  Na2  1  0.99554953  0.62500141  0.25490681  1
  Na  Na3  1  0.62521723  0.63163276  0.73981112  1
  Na  Na4  1  0.99801003  0.35509594  0.75284678  1
  Na  Na5  1  0.37993480  0.01061881  0.75298293  1
  Na  Na6  1  0.30825788  0.33183239  0.58812167  1
  Na  Na7  1  0.03682361  0.71264546  0.57684823  1
  Na  Na8  1  0.66076457  0.95378799  0.58728854  1
  Na  Na9  1  0.28887316  0.96719148  0.07649968  1
  Na  Na10  1  0.67079075  0.69022284  0.08885659  1
  Na  Na11  1  0.04672846  0.34089305  0.08796598  1
  Na  Na12  1  0.98096324  0.66488683  0.92190614  1
  Na  Na13  1  0.69856077  0.04411538  0.90790304  1
  Na  Na14  1  0.32178598  0.28656118  0.92100549  1
  Na  Na15  1  0.95756356  0.30030969  0.40966490  1
  Na  Na16  1  0.33128582  0.02312241  0.42007086  1
  Na  Na17  1  0.70883961  0.67313560  0.42118134  1
  Na  Na18  1  0.99179164  0.98146369  0.49955994  1
  Na  Na19  1  0.02150537  0.01011425  0.00049230  1
  Na  Na20  1  0.65868607  0.31252169  0.83158677  1
  Na  Na21  1  0.68166581  0.33928300  0.33402601  1
  Na  Na22  1  0.32422648  0.64792863  0.16942073  1
  Na  Na23  1  0.35164677  0.67548219  0.66552539  1
  In  In24  1  0.01080484  0.01825325  0.84668476  1
  In  In25  1  0.99791515  0.00197238  0.15428493  1
  In  In26  1  0.66601972  0.33409878  0.98462975  1
  In  In27  1  0.31734204  0.65499868  0.01847024  1
  In  In28  1  0.34501167  0.68447130  0.51578588  1
  In  In29  1  0.33213810  0.66705303  0.81406881  1
  Ga  Ga30  1  0.96308208  0.97875651  0.34932153  1
  Ga  Ga31  1  0.00005427  0.00018691  0.64792883  1
  Ga  Ga32  1  0.63625198  0.31360368  0.68242247  1
  Ga  Ga33  1  0.68653619  0.36894711  0.18657249  1
  Ga  Ga34  1  0.66619209  0.33467708  0.48333261  1
  Ga  Ga35  1  0.32957384  0.66843825  0.31844270  1
  Si  Si36  1  0.69238082  0.69974802  0.25191819  1
  Si  Si37  1  0.00028551  0.29900678  0.25223214  1
  Si  Si38  1  0.29797780  0.29522596  0.74575578  1
  Si  Si39  1  0.70835591  0.00665884  0.74463547  1
  Si  Si40  1  0.36973424  0.04309652  0.58297176  1
  Si  Si41  1  0.67171733  0.62097177  0.58419274  1
  Si  Si42  1  0.96338124  0.63292316  0.08523747  1
  Si  Si43  1  0.37632689  0.33283097  0.08660254  1
  Si  Si44  1  0.03090519  0.36472151  0.91603180  1
  Si  Si45  1  0.33315946  0.96474300  0.91599851  1
  Si  Si46  1  0.63054702  0.96791674  0.41564963  1
  Si  Si47  1  0.03529396  0.66928809  0.41501079  1
  S  S48  1  0.29827426  0.99920384  0.25236519  1
  S  S49  1  0.99507245  0.70406650  0.74724120  1
  S  S50  1  0.95520419  0.33080024  0.58315239  1
  S  S51  1  0.66612062  0.03862041  0.08536659  1
  S  S52  1  0.63218495  0.66870430  0.91629238  1
  S  S53  1  0.33244861  0.37030212  0.41577693  1
  O  O54  1  0.21388596  0.02688694  0.30475443  1
  O  O55  1  0.82380394  0.78170111  0.30792706  1
  O  O56  1  0.96959503  0.16998067  0.30921409  1
  O  O57  1  0.23605561  0.18401362  0.80751568  1
  O  O58  1  0.96770337  0.77619415  0.80352870  1
  O  O59  1  0.81131485  0.03574610  0.80786218  1
  O  O60  1  0.80211436  0.97021792  0.68810882  1
  O  O61  1  0.17041515  0.19975086  0.68908422  1
  O  O62  1  0.02024450  0.81364686  0.69448111  1
  O  O63  1  0.76544006  0.81521791  0.19127148  1
  O  O64  1  0.04785230  0.23143432  0.19147073  1
  O  O65  1  0.19750185  0.96932635  0.19623294  1
  O  O66  1  0.87812348  0.35859807  0.63741856  1
  O  O67  1  0.49064494  0.11941564  0.64179838  1
  O  O68  1  0.64917529  0.50555658  0.64392454  1
  O  O69  1  0.87735150  0.50792493  0.14323455  1
  O  O70  1  0.64319403  0.12192778  0.13857234  1
  O  O71  1  0.49580319  0.35243839  0.14545007  1
  O  O72  1  0.44529846  0.29461204  0.02425522  1
  O  O73  1  0.85461365  0.55721796  0.02356346  1
  O  O74  1  0.68997050  0.13382760  0.02885378  1
  O  O75  1  0.45915441  0.16377910  0.52334423  1
  O  O76  1  0.70492319  0.53714328  0.52340452  1
  O  O77  1  0.85335497  0.30808323  0.52780020  1
  O  O78  1  0.55611389  0.69528778  0.97089039  1
  O  O79  1  0.15077344  0.43804647  0.97547922  1
  O  O80  1  0.31044874  0.85666548  0.97773020  1
  O  O81  1  0.57016770  0.84915122  0.47574975  1
  O  O82  1  0.30038261  0.44272440  0.47142701  1
  O  O83  1  0.14658497  0.70551402  0.47659261  1
  O  O84  1  0.12713049  0.63103303  0.35821047  1
  O  O85  1  0.50314216  0.87587379  0.35843493  1
  O  O86  1  0.35892780  0.48057299  0.36273385  1
  O  O87  1  0.11341511  0.47979307  0.85559886  1
  O  O88  1  0.37311464  0.88649345  0.85601215  1
  O  O89  1  0.53057246  0.64470925  0.86180595  1
  O  O90  1  0.02343752  0.84647388  0.40661115  1
  O  O91  1  0.82420501  0.99519256  0.40971694  1
  O  O92  1  0.18503352  0.19905897  0.40913477  1
  O  O93  1  0.00159233  0.17148244  0.91558526  1
  O  O94  1  0.15261971  0.96603316  0.91278307  1
  O  O95  1  0.80255703  0.81790686  0.91117092  1
  O  O96  1  0.97065385  0.17462125  0.58624452  1
  O  O97  1  0.17985768  0.02782818  0.58890002  1
  O  O98  1  0.83958297  0.81404777  0.58899996  1
  O  O99  1  0.97731113  0.82007177  0.08978688  1
  O  O100  1  0.82034408  0.02131443  0.08827342  1
  O  O101  1  0.18429985  0.16981434  0.08963727  1
  O  O102  1  0.69859875  0.18479870  0.73876847  1
  O  O103  1  0.49215491  0.32386932  0.74257939  1
  O  O104  1  0.84811435  0.53278478  0.74196479  1
  O  O105  1  0.67370939  0.50889619  0.24839872  1
  O  O106  1  0.82061930  0.30713172  0.24583760  1
  O  O107  1  0.46927118  0.14944099  0.24711081  1
  O  O108  1  0.64705739  0.51398564  0.91928503  1
  O  O109  1  0.84545006  0.35485262  0.91949685  1
  O  O110  1  0.49720505  0.15638032  0.91800163  1
  O  O111  1  0.64400099  0.15659655  0.42336140  1
  O  O112  1  0.49018936  0.35852427  0.42004641  1
  O  O113  1  0.84490201  0.49803640  0.42053778  1
  O  O114  1  0.37364674  0.51378404  0.08462917  1
  O  O115  1  0.15391813  0.65529075  0.08649912  1
  O  O116  1  0.51525186  0.86678166  0.08175558  1
  O  O117  1  0.34339740  0.85018688  0.58243429  1
  O  O118  1  0.49403782  0.63096418  0.58137422  1
  O  O119  1  0.12850724  0.48067305  0.57819729  1
  O  O120  1  0.31447406  0.84353580  0.25717500  1
  O  O121  1  0.50410954  0.68162012  0.26144979  1
  O  O122  1  0.16673493  0.48980524  0.26012563  1
  O  O123  1  0.31037946  0.48288079  0.74870776  1
  O  O124  1  0.15252272  0.69121502  0.74954227  1
  O  O125  1  0.51807728  0.83828819  0.74726791  1
