# generated using pymatgen
data_Na2SiSn2(PO6)2
_symmetry_space_group_name_H-M   'P 1'
_cell_length_a   8.86639613
_cell_length_b   8.86639584
_cell_length_c   22.85563226
_cell_angle_alpha   90.03121360
_cell_angle_beta   89.96878638
_cell_angle_gamma   119.82379533
_symmetry_Int_Tables_number   1
_chemical_formula_structural   Na2SiSn2(PO6)2
_chemical_formula_sum   'Na12 Si6 Sn12 P12 O72'
_cell_volume   1558.78569387
_cell_formula_units_Z   6
loop_
 _symmetry_equiv_pos_site_id
 _symmetry_equiv_pos_as_xyz
  1  'x, y, z'
loop_
 _atom_site_type_symbol
 _atom_site_label
 _atom_site_symmetry_multiplicity
 _atom_site_fract_x
 _atom_site_fract_y
 _atom_site_fract_z
 _atom_site_occupancy
  Na  Na0  1  0.00012890  0.63128373  0.25036100  1
  Na  Na1  1  0.36871627  0.99987110  0.75036100  1
  Na  Na2  1  0.66484034  0.96875945  0.58486301  1
  Na  Na3  1  0.03124055  0.33515966  0.08486301  1
  Na  Na4  1  0.97134314  0.66910112  0.91820684  1
  Na  Na5  1  0.33089888  0.02865686  0.41820684  1
  Na  Na6  1  0.00270817  0.99819093  0.50014599  1
  Na  Na7  1  0.00180907  0.99729183  0.00014599  1
  Na  Na8  1  0.66490725  0.32809787  0.83349005  1
  Na  Na9  1  0.67190213  0.33509275  0.33349005  1
  Na  Na10  1  0.33977576  0.66962278  0.16674912  1
  Na  Na11  1  0.33037722  0.66022424  0.66674912  1
  Si  Si12  1  -0.00010028  0.28881290  0.24930878  1
  Si  Si13  1  0.71118710  0.00010028  0.74930878  1
  Si  Si14  1  0.37238079  0.04284284  0.58272548  1
  Si  Si15  1  0.95715716  0.62761921  0.08272548  1
  Si  Si16  1  0.33645072  0.96288490  0.91571022  1
  Si  Si17  1  0.03711510  0.66354928  0.41571022  1
  Sn  Sn18  1  0.99461085  -0.00001424  0.35226753  1
  Sn  Sn19  1  0.00001424  0.00538915  0.85226753  1
  Sn  Sn20  1  0.00402311  0.00047918  0.64805039  1
  Sn  Sn21  1  0.99952082  0.99597689  0.14805039  1
  Sn  Sn22  1  0.66978160  0.33332289  0.68536611  1
  Sn  Sn23  1  0.66667711  0.33021840  0.18536611  1
  Sn  Sn24  1  0.66124466  0.32964965  0.98133295  1
  Sn  Sn25  1  0.67035035  0.33875534  0.48133295  1
  Sn  Sn26  1  0.33414346  0.67331272  0.01879141  1
  Sn  Sn27  1  0.32668728  0.66585654  0.51879141  1
  Sn  Sn28  1  0.33080200  0.65998110  0.31453537  1
  Sn  Sn29  1  0.34001890  0.66919800  0.81453537  1
  P  P30  1  0.29466217  0.00317351  0.25069246  1
  P  P31  1  0.70549851  0.70896816  0.25005383  1
  P  P32  1  0.29103184  0.29450149  0.75005383  1
  P  P33  1  0.99682649  0.70533783  0.75069246  1
  P  P34  1  0.96039603  0.33554737  0.58337391  1
  P  P35  1  0.66628040  0.62364115  0.58365397  1
  P  P36  1  0.66445263  0.03960397  0.08337391  1
  P  P37  1  0.37635885  0.33371960  0.08365397  1
  P  P38  1  0.62342234  0.66614556  0.91716196  1
  P  P39  1  0.04423095  0.37509183  0.91714725  1
  P  P40  1  0.62490817  0.95576905  0.41714725  1
  P  P41  1  0.33385444  0.37657766  0.41716196  1
  O  O42  1  0.21675267  0.03335285  0.30707606  1
  O  O43  1  0.82470629  0.78317067  0.30440038  1
  O  O44  1  0.96322641  0.17075435  0.30732130  1
  O  O45  1  0.21682933  0.17529371  0.80440038  1
  O  O46  1  0.96664715  0.78324733  0.80707606  1
  O  O47  1  0.82924565  0.03677359  0.80732130  1
  O  O48  1  0.78935096  0.96504732  0.68914438  1
  O  O49  1  0.18023474  0.21482118  0.69490325  1
  O  O50  1  0.04027119  0.82509095  0.69665050  1
  O  O51  1  0.78517882  0.81976526  0.19490325  1
  O  O52  1  0.03495268  0.21064904  0.18914438  1
  O  O53  1  0.17490905  0.95972881  0.19665050  1
  O  O54  1  0.88284653  0.37139050  0.63844703  1
  O  O55  1  0.49470294  0.12132389  0.64131697  1
  O  O56  1  0.63398209  0.51271457  0.63892521  1
  O  O57  1  0.87867611  0.50529706  0.14131697  1
  O  O58  1  0.62860950  0.11715347  0.13844703  1
  O  O59  1  0.48728543  0.36601791  0.13892521  1
  O  O60  1  0.45244398  0.29819336  0.02848061  1
  O  O61  1  0.84304914  0.54320054  0.02318378  1
  O  O62  1  0.70559426  0.15771233  0.02897911  1
  O  O63  1  0.45679946  0.15695086  0.52318378  1
  O  O64  1  0.70180664  0.54755602  0.52848061  1
  O  O65  1  0.84228767  0.29440574  0.52897911  1
  O  O66  1  0.54455319  0.69858341  0.97228030  1
  O  O67  1  0.15296016  0.45100103  0.97358139  1
  O  O68  1  0.28775733  0.83494866  0.97238458  1
  O  O69  1  0.54899897  0.84703984  0.47358139  1
  O  O70  1  0.30141659  0.45544681  0.47228030  1
  O  O71  1  0.16505134  0.71224267  0.47238458  1
  O  O72  1  0.12047256  0.63382297  0.35603678  1
  O  O73  1  0.50736785  0.87671305  0.36264626  1
  O  O74  1  0.37100744  0.48867698  0.36199482  1
  O  O75  1  0.12328695  0.49263215  0.86264626  1
  O  O76  1  0.36617703  0.87952744  0.85603678  1
  O  O77  1  0.51132302  0.62899256  0.86199482  1
  O  O78  1  0.03005960  0.84628381  0.40984527  1
  O  O79  1  0.80637037  0.97529691  0.41181770  1
  O  O80  1  0.17265089  0.19179513  0.41124185  1
  O  O81  1  0.02470309  0.19362963  0.91181770  1
  O  O82  1  0.15371619  0.96994040  0.90984527  1
  O  O83  1  0.80820487  0.82734911  0.91124185  1
  O  O84  1  0.96881204  0.16507308  0.58907628  1
  O  O85  1  0.18020492  0.02220828  0.58872203  1
  O  O86  1  0.82604953  0.80975529  0.58894461  1
  O  O87  1  0.97779172  0.81979508  0.08872203  1
  O  O88  1  0.83492692  0.03118796  0.08907628  1
  O  O89  1  0.19024471  0.17395047  0.08894461  1
  O  O90  1  0.68257510  0.17035952  0.74517167  1
  O  O91  1  0.47262237  0.30847382  0.74381819  1
  O  O92  1  0.83297479  0.52666468  0.74356753  1
  O  O93  1  0.69152618  0.52737763  0.24381819  1
  O  O94  1  0.82964048  0.31742490  0.24517167  1
  O  O95  1  0.47333532  0.16702521  0.24356753  1
  O  O96  1  0.65013004  0.50594822  0.92215185  1
  O  O97  1  0.86465310  0.36566611  0.92249347  1
  O  O98  1  0.50853778  0.15362615  0.92192925  1
  O  O99  1  0.63433389  0.13534690  0.42249347  1
  O  O100  1  0.49405178  0.34986996  0.42215185  1
  O  O101  1  0.84637385  0.49146222  0.42192925  1
  O  O102  1  0.35401921  0.49638031  0.07698955  1
  O  O103  1  0.14574243  0.63258595  0.07809450  1
  O  O104  1  0.50476573  0.85763926  0.07766139  1
  O  O105  1  0.36741405  0.85425757  0.57809450  1
  O  O106  1  0.50361969  0.64598079  0.57698955  1
  O  O107  1  0.14236074  0.49523427  0.57766139  1
  O  O108  1  0.30964616  0.83611094  0.25615651  1
  O  O109  1  0.52626454  0.69375162  0.25681949  1
  O  O110  1  0.17003719  0.48659330  0.25375848  1
  O  O111  1  0.30624838  0.47373546  0.75681949  1
  O  O112  1  0.16388906  0.69035384  0.75615651  1
  O  O113  1  0.51340670  0.82996281  0.75375848  1
