# generated using pymatgen
data_MgTa5(PO4)9
_symmetry_space_group_name_H-M   'P 1'
_cell_length_a   8.74811401
_cell_length_b   8.74811372
_cell_length_c   22.54827646
_cell_angle_alpha   90.00000000
_cell_angle_beta   90.00000000
_cell_angle_gamma   120.00000105
_symmetry_Int_Tables_number   1
_chemical_formula_structural   MgTa5(PO4)9
_chemical_formula_sum   'Mg2 Ta10 P18 O72'
_cell_volume   1494.42055557
_cell_formula_units_Z   2
loop_
 _symmetry_equiv_pos_site_id
 _symmetry_equiv_pos_as_xyz
  1  'x, y, z'
loop_
 _atom_site_type_symbol
 _atom_site_label
 _atom_site_symmetry_multiplicity
 _atom_site_fract_x
 _atom_site_fract_y
 _atom_site_fract_z
 _atom_site_occupancy
  Mg  Mg0  1  0.66666700  0.33333300  0.68943546  1
  Mg  Mg1  1  0.66666700  0.33333300  0.18943546  1
  Ta  Ta2  1  0.00000000  0.00000000  0.35428248  1
  Ta  Ta3  1  0.00000000  0.00000000  0.85428248  1
  Ta  Ta4  1  0.00000000  0.00000000  0.64368888  1
  Ta  Ta5  1  0.00000000  0.00000000  0.14368888  1
  Ta  Ta6  1  0.66666700  0.33333300  0.97888044  1
  Ta  Ta7  1  0.66666700  0.33333300  0.47888044  1
  Ta  Ta8  1  0.33333300  0.66666700  0.02436164  1
  Ta  Ta9  1  0.33333300  0.66666700  0.52436164  1
  Ta  Ta10  1  0.33333300  0.66666700  0.30740597  1
  Ta  Ta11  1  0.33333300  0.66666700  0.80740597  1
  P  P12  1  0.29264093  0.00671617  0.24924848  1
  P  P13  1  0.71407524  0.70735907  0.24924848  1
  P  P14  1  0.99328383  0.28592476  0.24924848  1
  P  P15  1  0.29264093  0.28592476  0.74924848  1
  P  P16  1  0.99328383  0.70735907  0.74924848  1
  P  P17  1  0.71407524  0.00671617  0.74924848  1
  P  P18  1  0.95065583  0.33292070  0.58539112  1
  P  P19  1  0.38226587  0.04934417  0.58539112  1
  P  P20  1  0.66707930  0.61773413  0.58539112  1
  P  P21  1  0.95065583  0.61773413  0.08539112  1
  P  P22  1  0.66707930  0.04934417  0.08539112  1
  P  P23  1  0.38226587  0.33292070  0.08539112  1
  P  P24  1  0.61917339  0.66639356  0.91639947  1
  P  P25  1  0.04721917  0.38082661  0.91639947  1
  P  P26  1  0.33360644  0.95278083  0.91639947  1
  P  P27  1  0.61917339  0.95278083  0.41639947  1
  P  P28  1  0.33360644  0.38082661  0.41639947  1
  P  P29  1  0.04721917  0.66639356  0.41639947  1
  O  O30  1  0.19370816  0.02272711  0.30501758  1
  O  O31  1  0.82901895  0.80629184  0.30501758  1
  O  O32  1  0.97727289  0.17098105  0.30501758  1
  O  O33  1  0.19370816  0.17098105  0.80501758  1
  O  O34  1  0.97727289  0.80629184  0.80501758  1
  O  O35  1  0.82901895  0.02272711  0.80501758  1
  O  O36  1  0.80026428  0.96517544  0.69553223  1
  O  O37  1  0.16491116  0.19973572  0.69553223  1
  O  O38  1  0.03482456  0.83508884  0.69553223  1
  O  O39  1  0.80026428  0.83508884  0.19553223  1
  O  O40  1  0.03482456  0.19973572  0.19553223  1
  O  O41  1  0.16491116  0.96517544  0.19553223  1
  O  O42  1  0.87574113  0.36989436  0.63878615  1
  O  O43  1  0.49415423  0.12425887  0.63878615  1
  O  O44  1  0.63010564  0.50584577  0.63878615  1
  O  O45  1  0.87574113  0.50584577  0.13878615  1
  O  O46  1  0.63010564  0.12425887  0.13878615  1
  O  O47  1  0.49415423  0.36989436  0.13878615  1
  O  O48  1  0.46522627  0.30338324  0.02754137  1
  O  O49  1  0.83815797  0.53477373  0.02754137  1
  O  O50  1  0.69661676  0.16184203  0.02754137  1
  O  O51  1  0.46522627  0.16184203  0.52754137  1
  O  O52  1  0.69661676  0.53477373  0.52754137  1
  O  O53  1  0.83815797  0.30338324  0.52754137  1
  O  O54  1  0.53340381  0.69672773  0.97140932  1
  O  O55  1  0.16332292  0.46659619  0.97140932  1
  O  O56  1  0.30327227  0.83667708  0.97140932  1
  O  O57  1  0.53340381  0.83667708  0.47140932  1
  O  O58  1  0.30327227  0.46659619  0.47140932  1
  O  O59  1  0.16332292  0.69672773  0.47140932  1
  O  O60  1  0.13351524  0.63573273  0.36170117  1
  O  O61  1  0.50221649  0.86648476  0.36170117  1
  O  O62  1  0.36426727  0.49778351  0.36170117  1
  O  O63  1  0.13351524  0.49778351  0.86170117  1
  O  O64  1  0.36426727  0.86648476  0.86170117  1
  O  O65  1  0.50221649  0.63573273  0.86170117  1
  O  O66  1  0.02500357  0.82880856  0.40697655  1
  O  O67  1  0.80380500  0.97499643  0.40697655  1
  O  O68  1  0.17119144  0.19619500  0.40697655  1
  O  O69  1  0.02500357  0.19619500  0.90697655  1
  O  O70  1  0.17119144  0.97499643  0.90697655  1
  O  O71  1  0.80380500  0.82880856  0.90697655  1
  O  O72  1  0.97696178  0.17017800  0.59173913  1
  O  O73  1  0.19321622  0.02303822  0.59173913  1
  O  O74  1  0.82982200  0.80678378  0.59173913  1
  O  O75  1  0.97696178  0.80678378  0.09173913  1
  O  O76  1  0.82982200  0.02303822  0.09173913  1
  O  O77  1  0.19321622  0.17017800  0.09173913  1
  O  O78  1  0.69228007  0.16261736  0.74253505  1
  O  O79  1  0.47033828  0.30771993  0.74253505  1
  O  O80  1  0.83738264  0.52966172  0.74253505  1
  O  O81  1  0.69228007  0.52966172  0.24253505  1
  O  O82  1  0.83738264  0.30771993  0.24253505  1
  O  O83  1  0.47033828  0.16261736  0.24253505  1
  O  O84  1  0.64094211  0.50363564  0.92676440  1
  O  O85  1  0.86269453  0.35905789  0.92676440  1
  O  O86  1  0.49636436  0.13730547  0.92676440  1
  O  O87  1  0.64094211  0.13730547  0.42676440  1
  O  O88  1  0.49636436  0.35905789  0.42676440  1
  O  O89  1  0.86269453  0.50363564  0.42676440  1
  O  O90  1  0.35411794  0.49246382  0.07082410  1
  O  O91  1  0.13834488  0.64588206  0.07082410  1
  O  O92  1  0.50753618  0.86165512  0.07082410  1
  O  O93  1  0.35411794  0.86165512  0.57082410  1
  O  O94  1  0.50753618  0.64588206  0.57082410  1
  O  O95  1  0.13834488  0.49246382  0.57082410  1
  O  O96  1  0.30022655  0.83322438  0.26078226  1
  O  O97  1  0.53299683  0.69977345  0.26078226  1
  O  O98  1  0.16677562  0.46700317  0.26078226  1
  O  O99  1  0.30022655  0.46700317  0.76078226  1
  O  O100  1  0.16677562  0.69977345  0.76078226  1
  O  O101  1  0.53299683  0.83322438  0.76078226  1
