# generated using pymatgen
data_BaYMgFeCuO5
_symmetry_space_group_name_H-M   'P 1'
_cell_length_a   4.50879139
_cell_length_b   4.50879139
_cell_length_c   8.29055463
_cell_angle_alpha   86.50386217
_cell_angle_beta   86.50386217
_cell_angle_gamma   82.73665573
_symmetry_Int_Tables_number   1
_chemical_formula_structural   BaYMgFeCuO5
_chemical_formula_sum   'Ba1 Y1 Mg1 Fe1 Cu1 O5'
_cell_volume   166.63503886
_cell_formula_units_Z   1
loop_
 _symmetry_equiv_pos_site_id
 _symmetry_equiv_pos_as_xyz
  1  'x, y, z'
loop_
 _atom_site_type_symbol
 _atom_site_label
 _atom_site_symmetry_multiplicity
 _atom_site_fract_x
 _atom_site_fract_y
 _atom_site_fract_z
 _atom_site_occupancy
  Ba  Ba0  1  0.88138185  0.88138185  0.07891393  1
  Y  Y1  1  0.13817477  0.13817477  0.50582279  1
  Mg  Mg2  1  0.58442229  0.58442229  0.41899793  1
  Fe  Fe3  1  0.46055580  0.46055580  0.75730563  1
  Cu  Cu4  1  0.33479226  0.33479226  0.16061450  1
  O  O5  1  0.20535098  0.64646563  0.58928319  1
  O  O6  1  0.64646563  0.20535098  0.58928319  1
  O  O7  1  0.94781243  0.42113319  0.29390169  1
  O  O8  1  0.42113319  0.94781243  0.29390169  1
  O  O9  1  0.51323880  0.51323880  0.97489346  1
