# generated using pymatgen
data_Na3CaScSi(SO6)2
_symmetry_space_group_name_H-M   'P 1'
_cell_length_a   9.26312116
_cell_length_b   9.29622146
_cell_length_c   22.97873783
_cell_angle_alpha   90.51561018
_cell_angle_beta   90.00000000
_cell_angle_gamma   119.88228540
_symmetry_Int_Tables_number   1
_chemical_formula_structural   Na3CaScSi(SO6)2
_chemical_formula_sum   'Na18 Ca6 Sc6 Si6 S12 O72'
_cell_volume   1715.58065933
_cell_formula_units_Z   6
loop_
 _symmetry_equiv_pos_site_id
 _symmetry_equiv_pos_as_xyz
  1  'x, y, z'
loop_
 _atom_site_type_symbol
 _atom_site_label
 _atom_site_symmetry_multiplicity
 _atom_site_fract_x
 _atom_site_fract_y
 _atom_site_fract_z
 _atom_site_occupancy
  Na  Na0  1  0.63241880  0.00471717  0.25301946  1
  Na  Na1  1  0.00623671  0.64063376  0.23968564  1
  Na  Na2  1  0.63439706  0.64063376  0.73968564  1
  Na  Na3  1  0.37229838  0.00471717  0.75301946  1
  Na  Na4  1  0.32369138  0.35230182  0.58643502  1
  Na  Na5  1  0.65562075  0.94628209  0.57740116  1
  Na  Na6  1  0.29066234  0.94628209  0.07740116  1
  Na  Na7  1  0.02861144  0.35230182  0.08643502  1
  Na  Na8  1  0.99088370  0.68514484  0.92400057  1
  Na  Na9  1  0.68965088  0.02869920  0.90591290  1
  Na  Na10  1  0.33904732  0.02869920  0.40591290  1
  Na  Na11  1  0.69426015  0.68514484  0.42400057  1
  Na  Na12  1  0.97397026  0.98956798  0.49806945  1
  Na  Na13  1  0.01559772  0.98956798  0.99806945  1
  Na  Na14  1  0.66003364  0.30533479  0.83222501  1
  Na  Na15  1  0.64530215  0.30533479  0.33222501  1
  Na  Na16  1  0.32255110  0.66289692  0.16534934  1
  Na  Na17  1  0.34034482  0.66289692  0.66534934  1
  Ca  Ca18  1  0.00592434  0.01295237  0.34940408  1
  Ca  Ca19  1  0.00702802  0.01295237  0.84940408  1
  Ca  Ca20  1  0.67565893  0.33448914  0.68304085  1
  Ca  Ca21  1  0.65883121  0.33448914  0.18304085  1
  Ca  Ca22  1  0.33528869  0.67005178  0.01570280  1
  Ca  Ca23  1  0.33476209  0.67005178  0.51570280  1
  Sc  Sc24  1  0.97081605  0.97795656  0.65015829  1
  Sc  Sc25  1  0.00714051  0.97795656  0.15015829  1
  Sc  Sc26  1  0.66191490  0.33877192  0.98348184  1
  Sc  Sc27  1  0.67685802  0.33877192  0.48348184  1
  Sc  Sc28  1  0.34017002  0.68654562  0.31733849  1
  Sc  Sc29  1  0.34637459  0.68654562  0.81733849  1
  Si  Si30  1  0.30265763  0.99447436  0.25356886  1
  Si  Si31  1  0.69181672  0.99447436  0.75356886  1
  Si  Si32  1  0.66779240  0.63133082  0.58471366  1
  Si  Si33  1  0.96353943  0.63133082  0.08471366  1
  Si  Si34  1  0.33981983  0.97546556  0.91967125  1
  Si  Si35  1  0.63564473  0.97546556  0.41967125  1
  S  S36  1  0.70084565  0.70763059  0.25150249  1
  S  S37  1  0.00593228  0.30173705  0.24716875  1
  S  S38  1  0.29580476  0.30173705  0.74716875  1
  S  S39  1  0.00678494  0.70763059  0.75150249  1
  S  S40  1  0.96397765  0.32572919  0.58313964  1
  S  S41  1  0.36455062  0.04181714  0.58305080  1
  S  S42  1  0.67726752  0.04181714  0.08305080  1
  S  S43  1  0.36175254  0.32572919  0.08313964  1
  S  S44  1  0.62974395  0.65934145  0.91490184  1
  S  S45  1  0.03182890  0.37314437  0.91785605  1
  S  S46  1  0.34131447  0.37314437  0.41785605  1
  S  S47  1  0.02959650  0.65934145  0.41490184  1
  O  O48  1  0.22083341  0.00849492  0.31322895  1
  O  O49  1  0.79567115  0.78211110  0.30537349  1
  O  O50  1  0.97864782  0.19635871  0.29788660  1
  O  O51  1  0.21771089  0.19635871  0.79788660  1
  O  O52  1  0.98643995  0.78211110  0.80537349  1
  O  O53  1  0.78766151  0.00849492  0.81322895  1
  O  O54  1  0.79037533  0.96859521  0.69609526  1
  O  O55  1  0.19844875  0.21899467  0.69313416  1
  O  O56  1  0.03150669  0.81912682  0.70090353  1
  O  O57  1  0.78762012  0.81912682  0.20090353  1
  O  O58  1  0.02054591  0.21899467  0.19313416  1
  O  O59  1  0.17821988  0.96859521  0.19609526  1
  O  O60  1  0.89069395  0.34731126  0.63631394  1
  O  O61  1  0.46592784  0.11424405  0.63611335  1
  O  O62  1  0.64385088  0.52874903  0.64358194  1
  O  O63  1  0.88489914  0.52874903  0.14358194  1
  O  O64  1  0.64831721  0.11424405  0.13611335  1
  O  O65  1  0.45661831  0.34731126  0.13631394  1
  O  O66  1  0.44792444  0.30267876  0.03168279  1
  O  O67  1  0.84650269  0.53068012  0.02645062  1
  O  O68  1  0.69348908  0.14730308  0.03143394  1
  O  O69  1  0.45381500  0.14730308  0.53143394  1
  O  O70  1  0.68417842  0.53068012  0.52645062  1
  O  O71  1  0.85475532  0.30267876  0.53168279  1
  O  O72  1  0.54868205  0.67907746  0.96661107  1
  O  O73  1  0.12285744  0.44256675  0.97273847  1
  O  O74  1  0.31659980  0.86755597  0.97725494  1
  O  O75  1  0.55095517  0.86755597  0.47725494  1
  O  O76  1  0.31970831  0.44256675  0.47273847  1
  O  O77  1  0.13039440  0.67907746  0.46661107  1
  O  O78  1  0.11145275  0.63976337  0.36160292  1
  O  O79  1  0.51011674  0.87568525  0.36121243  1
  O  O80  1  0.35396372  0.47913812  0.36777265  1
  O  O81  1  0.12517340  0.47913812  0.86777265  1
  O  O82  1  0.36556752  0.87568525  0.86121243  1
  O  O83  1  0.52830963  0.63976337  0.86160292  1
  O  O84  1  0.01055494  0.80881013  0.41141359  1
  O  O85  1  0.81346375  0.98109878  0.41387726  1
  O  O86  1  0.20313797  0.20037729  0.41290246  1
  O  O87  1  0.99723931  0.20037729  0.91290246  1
  O  O88  1  0.16763502  0.98109878  0.91387726  1
  O  O89  1  0.79825519  0.80881013  0.91141359  1
  O  O90  1  0.97653496  0.16978167  0.58622729  1
  O  O91  1  0.20261556  0.04026672  0.58766341  1
  O  O92  1  0.83583404  0.82322106  0.58646022  1
  O  O93  1  0.98738701  0.82322106  0.08646022  1
  O  O94  1  0.83765116  0.04026672  0.08766341  1
  O  O95  1  0.19324671  0.16978167  0.08622729  1
  O  O96  1  0.65080328  0.14485031  0.74817936  1
  O  O97  1  0.46699409  0.32442087  0.74435065  1
  O  O98  1  0.85712739  0.54403472  0.74438918  1
  O  O99  1  0.68690834  0.54403472  0.24438918  1
  O  O100  1  0.85742778  0.32442087  0.24435065  1
  O  O101  1  0.49404802  0.14485031  0.24817936  1
  O  O102  1  0.65007305  0.50951425  0.91864711  1
  O  O103  1  0.86557083  0.36808801  0.91948935  1
  O  O104  1  0.51924576  0.15523497  0.92298110  1
  O  O105  1  0.63599021  0.15523497  0.42298110  1
  O  O106  1  0.50251817  0.36808801  0.41948935  1
  O  O107  1  0.85944220  0.50951425  0.41864711  1
  O  O108  1  0.33493803  0.46829333  0.07670844  1
  O  O109  1  0.15167468  0.65331135  0.08205042  1
  O  O110  1  0.53366860  0.87266366  0.07694516  1
  O  O111  1  0.33899406  0.87266366  0.57694516  1
  O  O112  1  0.50163567  0.65331135  0.58205042  1
  O  O113  1  0.13335430  0.46829333  0.57670844  1
  O  O114  1  0.30667719  0.81272438  0.25328095  1
  O  O115  1  0.53261187  0.69385329  0.25451613  1
  O  O116  1  0.15779508  0.46870410  0.25372864  1
  O  O117  1  0.31090802  0.46870410  0.75372864  1
  O  O118  1  0.16124043  0.69385329  0.75451613  1
  O  O119  1  0.50604620  0.81272438  0.75328095  1
