# generated using pymatgen
data_K6MgV2(SO3)2
_symmetry_space_group_name_H-M   'P 1'
_cell_length_a   5.96733895
_cell_length_b   7.36945792
_cell_length_c   8.76219052
_cell_angle_alpha   98.72923489
_cell_angle_beta   90.00000000
_cell_angle_gamma   90.00000000
_symmetry_Int_Tables_number   1
_chemical_formula_structural   K6MgV2(SO3)2
_chemical_formula_sum   'K6 Mg1 V2 S2 O6'
_cell_volume   380.86315698
_cell_formula_units_Z   1
loop_
 _symmetry_equiv_pos_site_id
 _symmetry_equiv_pos_as_xyz
  1  'x, y, z'
loop_
 _atom_site_type_symbol
 _atom_site_label
 _atom_site_symmetry_multiplicity
 _atom_site_fract_x
 _atom_site_fract_y
 _atom_site_fract_z
 _atom_site_occupancy
  K  K0  1  0.75000000  0.36554991  0.47313265  1
  K  K1  1  0.25000000  0.76549562  0.99454382  1
  K  K2  1  0.25000000  0.70729518  0.54246681  1
  K  K3  1  0.75000000  0.10787891  0.98835076  1
  K  K4  1  0.25000000  0.23959117  0.72125909  1
  K  K5  1  0.75000000  0.92397355  0.32565247  1
  Mg  Mg6  1  0.75000000  0.54221199  0.11821540  1
  V  V7  1  0.75000000  0.66448564  0.79233498  1
  V  V8  1  0.25000000  0.30205751  0.17873013  1
  S  S9  1  0.75000000  0.92383697  0.66404156  1
  S  S10  1  0.25000000  0.09644325  0.35725866  1
  O  O11  1  0.25000000  0.15389117  0.00386386  1
  O  O12  1  0.75000000  0.75328871  0.01443086  1
  O  O13  1  0.99564872  0.54311012  0.74017536  1
  O  O14  1  0.00385746  0.45389009  0.21554112  1
  O  O15  1  0.50435128  0.54311012  0.74017536  1
  O  O16  1  0.49614254  0.45389009  0.21554112  1
