# generated using pymatgen
data_Na3Zr2SiSn2P5O24
_symmetry_space_group_name_H-M   'P 1'
_cell_length_a   8.89549005
_cell_length_b   8.87133788
_cell_length_c   23.06141248
_cell_angle_alpha   90.06349318
_cell_angle_beta   89.86302534
_cell_angle_gamma   119.87514113
_symmetry_Int_Tables_number   1
_chemical_formula_structural   Na3Zr2SiSn2P5O24
_chemical_formula_sum   'Na9 Zr6 Si3 Sn6 P15 O72'
_cell_volume   1578.04480488
_cell_formula_units_Z   3
loop_
 _symmetry_equiv_pos_site_id
 _symmetry_equiv_pos_as_xyz
  1  'x, y, z'
loop_
 _atom_site_type_symbol
 _atom_site_label
 _atom_site_symmetry_multiplicity
 _atom_site_fract_x
 _atom_site_fract_y
 _atom_site_fract_z
 _atom_site_occupancy
  Na  Na0  1  0.37006698  0.00088962  0.74824624  1
  Na  Na1  1  0.66287626  0.96860311  0.58654923  1
  Na  Na2  1  0.66972203  0.69728399  0.08128983  1
  Na  Na3  1  0.01752471  0.00188829  0.50037019  1
  Na  Na4  1  0.01006846  0.00591879  0.99784210  1
  Na  Na5  1  0.68005673  0.34091072  0.83406232  1
  Na  Na6  1  0.66675849  0.33348383  0.33348646  1
  Na  Na7  1  0.31606444  0.66470832  0.16752950  1
  Na  Na8  1  0.32622088  0.65219959  0.66677876  1
  Zr  Zr9  1  -0.00018013  -0.00029639  0.35231931  1
  Zr  Zr10  1  0.00680083  0.00278061  0.14666203  1
  Zr  Zr11  1  0.32176916  0.66658281  0.01861627  1
  Zr  Zr12  1  0.32803805  0.66629777  0.51985222  1
  Zr  Zr13  1  0.33340113  0.66658932  0.31464147  1
  Zr  Zr14  1  0.34060313  0.66643999  0.81475691  1
  Si  Si15  1  0.71290431  0.00493652  0.74828249  1
  Si  Si16  1  0.37250411  0.04647036  0.58472303  1
  Si  Si17  1  0.95312859  0.61845237  0.08394912  1
  Sn  Sn18  1  0.99463752  -0.00019797  0.85206146  1
  Sn  Sn19  1  0.00154820  0.99889092  0.64736500  1
  Sn  Sn20  1  0.67098467  0.33598304  0.68592974  1
  Sn  Sn21  1  0.66984466  0.33207524  0.18646380  1
  Sn  Sn22  1  0.66858427  0.33394115  0.98022299  1
  Sn  Sn23  1  0.66103385  0.33210869  0.48098952  1
  P  P24  1  0.29879337  0.00568211  0.24956294  1
  P  P25  1  0.70617697  0.70256452  0.24855836  1
  P  P26  1  0.99512960  0.29243349  0.24980362  1
  P  P27  1  0.28903102  0.28735481  0.74923996  1
  P  P28  1  0.99626460  0.70819217  0.75063873  1
  P  P29  1  0.95439032  0.33191231  0.58383716  1
  P  P30  1  0.67020889  0.62318698  0.58368502  1
  P  P31  1  0.66572139  0.04493973  0.08320135  1
  P  P32  1  0.38146520  0.33343628  0.08228705  1
  P  P33  1  0.63191953  0.66574888  0.91877187  1
  P  P34  1  0.03664525  0.36866801  0.91583326  1
  P  P35  1  0.33266056  0.96724438  0.91485525  1
  P  P36  1  0.62714948  0.96429133  0.41814234  1
  P  P37  1  0.33814501  0.37450948  0.41717507  1
  P  P38  1  0.03361521  0.65991547  0.41734606  1
  O  O39  1  0.20983950  0.02923399  0.30338042  1
  O  O40  1  0.82243412  0.79650981  0.30127820  1
  O  O41  1  0.97531521  0.18078936  0.30359152  1
  O  O42  1  0.21322680  0.16755127  0.80296280  1
  O  O43  1  0.96685275  0.78920237  0.80542655  1
  O  O44  1  0.83187864  0.03713903  0.80501884  1
  O  O45  1  0.78801842  0.97013299  0.68797189  1
  O  O46  1  0.17923882  0.20818263  0.69470470  1
  O  O47  1  0.04025477  0.82690593  0.69677176  1
  O  O48  1  0.78905108  0.80826856  0.19276213  1
  O  O49  1  0.01832700  0.20602131  0.19538403  1
  O  O50  1  0.18806978  0.98098120  0.19518190  1
  O  O51  1  0.87958559  0.36826885  0.63875330  1
  O  O52  1  0.49150366  0.12108207  0.64347054  1
  O  O53  1  0.64170976  0.51475996  0.63878316  1
  O  O54  1  0.87334751  0.50372605  0.14196426  1
  O  O55  1  0.62805461  0.11936687  0.13781884  1
  O  O56  1  0.49553425  0.36880515  0.13648006  1
  O  O57  1  0.45685606  0.29648031  0.02769174  1
  O  O58  1  0.82764314  0.54175356  0.02723163  1
  O  O59  1  0.69554206  0.15462093  0.02835672  1
  O  O60  1  0.45979898  0.16359808  0.52727100  1
  O  O61  1  0.70480415  0.54547959  0.52929570  1
  O  O62  1  0.83861631  0.29698230  0.53012114  1
  O  O63  1  0.54852715  0.68797137  0.97415178  1
  O  O64  1  0.14551558  0.45822567  0.97046145  1
  O  O65  1  0.30850247  0.85110765  0.96827164  1
  O  O66  1  0.54431391  0.85853231  0.47399243  1
  O  O67  1  0.31546362  0.46188851  0.47148053  1
  O  O68  1  0.14580072  0.68548099  0.47155188  1
  O  O69  1  0.12295444  0.63686020  0.36355248  1
  O  O70  1  0.51080622  0.87097049  0.36553021  1
  O  O71  1  0.35888827  0.48588948  0.36326595  1
  O  O72  1  0.12552243  0.48016505  0.86209343  1
  O  O73  1  0.35650723  0.88280172  0.85946227  1
  O  O74  1  0.51829896  0.64793159  0.86528952  1
  O  O75  1  0.01601326  0.82357603  0.41111061  1
  O  O76  1  0.80740997  0.98060964  0.41098200  1
  O  O77  1  0.17653407  0.19204783  0.41087240  1
  O  O78  1  0.02353463  0.18798694  0.91270599  1
  O  O79  1  0.16798053  0.98351796  0.91035901  1
  O  O80  1  0.81419642  0.82907166  0.91290483  1
  O  O81  1  0.96187888  0.16097432  0.58893722  1
  O  O82  1  0.17918463  0.02371959  0.58902821  1
  O  O83  1  0.82838727  0.81046190  0.58835746  1
  O  O84  1  0.96723743  0.81001209  0.08948389  1
  O  O85  1  0.82785630  0.02418653  0.08979062  1
  O  O86  1  0.19801958  0.17600920  0.08930359  1
  O  O87  1  0.68440298  0.17479724  0.74584428  1
  O  O88  1  0.47167458  0.30630113  0.74345795  1
  O  O89  1  0.83136103  0.52982769  0.74351867  1
  O  O90  1  0.68696491  0.51960166  0.24588147  1
  O  O91  1  0.82763899  0.30427576  0.24716259  1
  O  O92  1  0.47874375  0.17012318  0.24450530  1
  O  O93  1  0.64376566  0.49724419  0.91968198  1
  O  O94  1  0.85351513  0.34824658  0.92057907  1
  O  O95  1  0.49786098  0.14696887  0.92109302  1
  O  O96  1  0.64519594  0.14657938  0.42157468  1
  O  O97  1  0.50515986  0.36187273  0.42028423  1
  O  O98  1  0.85400322  0.49571485  0.42308796  1
  O  O99  1  0.37276106  0.50309420  0.07525017  1
  O  O100  1  0.14687626  0.64300174  0.07771196  1
  O  O101  1  0.50945984  0.85784670  0.07593400  1
  O  O102  1  0.36282303  0.85614691  0.57806912  1
  O  O103  1  0.50827237  0.64533067  0.57745846  1
  O  O104  1  0.13828862  0.48879195  0.57711418  1
  O  O105  1  0.31741509  0.84259557  0.25567916  1
  O  O106  1  0.52568237  0.68640986  0.25574967  1
  O  O107  1  0.15711141  0.47501378  0.25590058  1
  O  O108  1  0.30733608  0.46825068  0.75716883  1
  O  O109  1  0.16005165  0.69045640  0.75800261  1
  O  O110  1  0.51515452  0.83531280  0.75541581  1
