# generated using pymatgen
data_Na7Hf3ZnSi3(PO8)3
_symmetry_space_group_name_H-M   'P 1'
_cell_length_a   9.13911771
_cell_length_b   9.13023388
_cell_length_c   22.69336665
_cell_angle_alpha   90.11679423
_cell_angle_beta   90.12646383
_cell_angle_gamma   120.05781473
_symmetry_Int_Tables_number   1
_chemical_formula_structural   Na7Hf3ZnSi3(PO8)3
_chemical_formula_sum   'Na21 Hf9 Zn3 Si9 P9 O72'
_cell_volume   1638.92283503
_cell_formula_units_Z   3
loop_
 _symmetry_equiv_pos_site_id
 _symmetry_equiv_pos_as_xyz
  1  'x, y, z'
loop_
 _atom_site_type_symbol
 _atom_site_label
 _atom_site_symmetry_multiplicity
 _atom_site_fract_x
 _atom_site_fract_y
 _atom_site_fract_z
 _atom_site_occupancy
  Na  Na0  1  0.63777713  0.01263336  0.24709997  1
  Na  Na1  1  0.37525210  0.36272404  0.24740181  1
  Na  Na2  1  0.98853817  0.62768382  0.24939212  1
  Na  Na3  1  0.63855402  0.62351579  0.74809564  1
  Na  Na4  1  0.98579990  0.36806724  0.74535695  1
  Na  Na5  1  0.37217870  0.00818723  0.74563852  1
  Na  Na6  1  0.02846603  0.69034891  0.58457699  1
  Na  Na7  1  0.66706998  0.97392887  0.58087489  1
  Na  Na8  1  0.31270852  0.97683678  0.08423446  1
  Na  Na9  1  0.66124646  0.69171119  0.08418229  1
  Na  Na10  1  0.02785395  0.33289224  0.08134285  1
  Na  Na11  1  0.33407821  0.30469082  0.91812146  1
  Na  Na12  1  0.96905552  0.28899901  0.41504175  1
  Na  Na13  1  0.32018943  0.03110056  0.41401906  1
  Na  Na14  1  0.71069188  0.67954197  0.41391970  1
  Na  Na15  1  0.00619424  0.00990931  0.49274230  1
  Na  Na16  1  0.98937241  0.99717029  0.99685747  1
  Na  Na17  1  0.68185174  0.34296721  0.83250642  1
  Na  Na18  1  0.66564240  0.33310610  0.33168224  1
  Na  Na19  1  0.33799296  0.66816262  0.16551047  1
  Na  Na20  1  0.32576046  0.65527900  0.66399740  1
  Hf  Hf21  1  0.99044275  0.99061607  0.85454624  1
  Hf  Hf22  1  0.00660288  0.00487342  0.64667518  1
  Hf  Hf23  1  0.00029663  0.00332271  0.14867514  1
  Hf  Hf24  1  0.67185392  0.33194885  0.97980049  1
  Hf  Hf25  1  0.66837907  0.33152384  0.48095577  1
  Hf  Hf26  1  0.33794993  0.66517652  0.01649031  1
  Hf  Hf27  1  0.32947150  0.65846934  0.51735176  1
  Hf  Hf28  1  0.33342538  0.66624723  0.31742312  1
  Hf  Hf29  1  0.32792257  0.66323396  0.81650368  1
  Zn  Zn30  1  0.99914911  0.99939360  0.35386792  1
  Zn  Zn31  1  0.67829712  0.34417756  0.67966963  1
  Zn  Zn32  1  0.65918452  0.32815100  0.17693220  1
  Si  Si33  1  0.99893625  0.70450513  0.74898087  1
  Si  Si34  1  0.96249117  0.33453371  0.58562949  1
  Si  Si35  1  0.66505750  0.04056407  0.08591713  1
  Si  Si36  1  0.37528471  0.33412170  0.08439398  1
  Si  Si37  1  0.62870239  0.66574923  0.91623543  1
  Si  Si38  1  0.03589136  0.37065799  0.91636200  1
  Si  Si39  1  0.62713478  0.96008197  0.41765767  1
  Si  Si40  1  0.33310456  0.37060499  0.41541145  1
  Si  Si41  1  0.03925553  0.66767257  0.41696516  1
  P  P42  1  0.29290649  -0.00034729  0.25160808  1
  P  P43  1  0.70734646  0.70601139  0.25122781  1
  P  P44  1  -0.00070089  0.29446879  0.25147979  1
  P  P45  1  0.29173658  0.29119952  0.75160810  1
  P  P46  1  0.70800658  0.99862338  0.74973013  1
  P  P47  1  0.37594786  0.04290878  0.58533731  1
  P  P48  1  0.66426559  0.62554870  0.58565925  1
  P  P49  1  0.95874127  0.62518526  0.08497743  1
  P  P50  1  0.33375447  0.95967805  0.91670062  1
  O  O51  1  0.20912801  0.02434520  0.30572805  1
  O  O52  1  0.81532802  0.78930783  0.30583416  1
  O  O53  1  0.97262040  0.18537579  0.30549166  1
  O  O54  1  0.20561809  0.18273687  0.80664777  1
  O  O55  1  0.97669486  0.80734859  0.80409288  1
  O  O56  1  0.82551675  0.02569603  0.80296846  1
  O  O57  1  0.79186796  0.96967288  0.69426004  1
  O  O58  1  0.17242658  0.20473511  0.69765433  1
  O  O59  1  0.03263500  0.82671296  0.69099299  1
  O  O60  1  0.79349740  0.81924227  0.19522241  1
  O  O61  1  0.02679397  0.20705978  0.19539211  1
  O  O62  1  0.17987273  0.97189813  0.19519110  1
  O  O63  1  0.88524415  0.37089935  0.64402154  1
  O  O64  1  0.48250814  0.11997583  0.64091529  1
  O  O65  1  0.63540597  0.52284923  0.64146015  1
  O  O66  1  0.89008202  0.51937541  0.14131108  1
  O  O67  1  0.62836757  0.11316081  0.14549890  1
  O  O68  1  0.48992567  0.37832458  0.14315069  1
  O  O69  1  0.45969237  0.29858363  0.02642455  1
  O  O70  1  0.84064421  0.54088926  0.03155854  1
  O  O71  1  0.70435740  0.16768305  0.03009606  1
  O  O72  1  0.45838250  0.15102463  0.52943520  1
  O  O73  1  0.69458109  0.54237701  0.53038965  1
  O  O74  1  0.84017681  0.30167776  0.52733943  1
  O  O75  1  0.53819944  0.69239723  0.97457460  1
  O  O76  1  0.15645249  0.46157767  0.97419955  1
  O  O77  1  0.30748497  0.85083147  0.97194416  1
  O  O78  1  0.53565672  0.84222878  0.47518083  1
  O  O79  1  0.30397708  0.46784174  0.47057531  1
  O  O80  1  0.15997661  0.69579937  0.47422957  1
  O  O81  1  0.12559107  0.62961265  0.35884592  1
  O  O82  1  0.50389074  0.87257328  0.35918514  1
  O  O83  1  0.37033335  0.49366123  0.35709553  1
  O  O84  1  0.12954668  0.48893489  0.85833968  1
  O  O85  1  0.35791307  0.87360779  0.86145389  1
  O  O86  1  0.50780922  0.63726231  0.85854734  1
  O  O87  1  0.02051832  0.83324718  0.41248018  1
  O  O88  1  0.81201720  0.98030153  0.41260797  1
  O  O89  1  0.16684841  0.18653740  0.41147259  1
  O  O90  1  0.03484104  0.19131112  0.90991849  1
  O  O91  1  0.17865203  0.98440548  0.90979845  1
  O  O92  1  0.81468103  0.83394864  0.91150189  1
  O  O93  1  0.97093485  0.15795834  0.58997580  1
  O  O94  1  0.19285530  0.01622026  0.58945732  1
  O  O95  1  0.83019097  0.80517540  0.59023705  1
  O  O96  1  0.97699188  0.80487361  0.09089304  1
  O  O97  1  0.83313720  0.01511552  0.09081532  1
  O  O98  1  0.18475193  0.16172766  0.09083155  1
  O  O99  1  0.68474664  0.15299440  0.74617091  1
  O  O100  1  0.46609058  0.30804463  0.74537765  1
  O  O101  1  0.83010587  0.51881651  0.74736071  1
  O  O102  1  0.68608981  0.52777500  0.24496236  1
  O  O103  1  0.84544130  0.31974123  0.24431677  1
  O  O104  1  0.47158604  0.15594913  0.24615926  1
  O  O105  1  0.63323376  0.48989242  0.92305683  1
  O  O106  1  0.85084724  0.35244041  0.92204470  1
  O  O107  1  0.49104213  0.13822507  0.92250917  1
  O  O108  1  0.63635074  0.14489755  0.42297494  1
  O  O109  1  0.50622805  0.36035042  0.42348354  1
  O  O110  1  0.85321993  0.49481125  0.42371855  1
  O  O111  1  0.34477726  0.49793567  0.07668280  1
  O  O112  1  0.13908132  0.65175239  0.07515869  1
  O  O113  1  0.49623787  0.85130710  0.07674842  1
  O  O114  1  0.35597453  0.86307248  0.57812108  1
  O  O115  1  0.51544483  0.65997430  0.57773378  1
  O  O116  1  0.14826799  0.50645980  0.57799171  1
  O  O117  1  0.30553398  0.83306289  0.25358954  1
  O  O118  1  0.52840799  0.69346529  0.25330185  1
  O  O119  1  0.16657724  0.47256744  0.25322870  1
  O  O120  1  0.30799427  0.47064320  0.75551705  1
  O  O121  1  0.17501231  0.69359823  0.75465570  1
  O  O122  1  0.53194377  0.83379524  0.75586215  1
