# generated using pymatgen
data_K3V5O14
_symmetry_space_group_name_H-M   'P 1'
_cell_length_a   8.67523671
_cell_length_b   8.67525075
_cell_length_c   5.01041634
_cell_angle_alpha   89.99978184
_cell_angle_beta   90.00031308
_cell_angle_gamma   120.00016570
_symmetry_Int_Tables_number   1
_chemical_formula_structural   K3V5O14
_chemical_formula_sum   'K3 V5 O14'
_cell_volume   326.56308607
_cell_formula_units_Z   1
loop_
 _symmetry_equiv_pos_site_id
 _symmetry_equiv_pos_as_xyz
  1  'x, y, z'
loop_
 _atom_site_type_symbol
 _atom_site_label
 _atom_site_symmetry_multiplicity
 _atom_site_fract_x
 _atom_site_fract_y
 _atom_site_fract_z
 _atom_site_occupancy
  K  K0  1  0.60824933  0.00000193  -0.00566098  1
  K  K1  1  0.00000295  0.60826004  -0.00563156  1
  K  K2  1  0.39174189  0.39174247  -0.00566664  1
  V  V3  1  0.33333172  0.66666575  0.46498002  1
  V  V4  1  0.66666887  0.33333386  0.46497995  1
  V  V5  1  0.22834770  0.00000184  0.47417856  1
  V  V6  1  0.00000054  0.22834543  0.47417690  1
  V  V7  1  0.77165215  0.77165321  0.47417777  1
  O  O8  1  0.33333229  0.66666516  0.79288934  1
  O  O9  1  0.66666806  0.33333326  0.79288870  1
  O  O10  1  0.24682232  -0.00000227  0.79537968  1
  O  O11  1  -0.00000033  0.24682074  0.79537747  1
  O  O12  1  0.75317709  0.75317523  0.79537875  1
  O  O13  1  0.83144578  0.00000125  0.40205609  1
  O  O14  1  0.00000069  0.83144570  0.40205585  1
  O  O15  1  0.16855837  0.16855860  0.40206115  1
  O  O16  1  0.46103377  0.16803494  0.34656553  1
  O  O17  1  0.83196421  0.29299620  0.34656251  1
  O  O18  1  0.70700410  0.53896798  0.34656535  1
  O  O19  1  0.16803571  0.46103252  0.34656173  1
  O  O20  1  0.29299670  0.83196410  0.34656521  1
  O  O21  1  0.53896709  0.70700206  0.34656660  1
