# generated using pymatgen
data_CaZnAsHO5
_symmetry_space_group_name_H-M   'P 1'
_cell_length_a   5.93376766
_cell_length_b   7.48899955
_cell_length_c   9.04653314
_cell_angle_alpha   90.00000000
_cell_angle_beta   90.00000000
_cell_angle_gamma   90.00000000
_symmetry_Int_Tables_number   1
_chemical_formula_structural   CaZnAsHO5
_chemical_formula_sum   'Ca4 Zn4 As4 H4 O20'
_cell_volume   402.00968892
_cell_formula_units_Z   4
loop_
 _symmetry_equiv_pos_site_id
 _symmetry_equiv_pos_as_xyz
  1  'x, y, z'
loop_
 _atom_site_type_symbol
 _atom_site_label
 _atom_site_symmetry_multiplicity
 _atom_site_fract_x
 _atom_site_fract_y
 _atom_site_fract_z
 _atom_site_occupancy
  Ca  Ca0  1  0.02413661  0.37003120  0.82722360  1
  Ca  Ca1  1  0.52413661  0.12996880  0.17277640  1
  Ca  Ca2  1  0.97586339  0.87003120  0.67277640  1
  Ca  Ca3  1  0.47586339  0.62996880  0.32722360  1
  Zn  Zn4  1  0.25755869  0.76358070  0.99384141  1
  Zn  Zn5  1  0.75755869  0.73641930  0.00615859  1
  Zn  Zn6  1  0.74244131  0.26358070  0.50615859  1
  Zn  Zn7  1  0.24244131  0.23641930  0.49384141  1
  As  As8  1  0.98344842  0.37489955  0.17588513  1
  As  As9  1  0.48344842  0.12510045  0.82411487  1
  As  As10  1  0.01655158  0.87489955  0.32411487  1
  As  As11  1  0.51655158  0.62510045  0.67588513  1
  H  H12  1  0.97903211  0.00755534  0.98093301  1
  H  H13  1  0.47903211  0.49244466  0.01906699  1
  H  H14  1  0.02096789  0.50755534  0.51906699  1
  H  H15  1  0.52096789  0.99244466  0.48093301  1
  O  O16  1  0.99233122  0.89327594  0.92809205  1
  O  O17  1  0.49233122  0.60672406  0.07190795  1
  O  O18  1  0.00766878  0.39327594  0.57190795  1
  O  O19  1  0.50766878  0.10672406  0.42809205  1
  O  O20  1  0.74389760  0.60535785  0.79014465  1
  O  O21  1  0.24389760  0.89464215  0.20985535  1
  O  O22  1  0.25610240  0.10535785  0.70985535  1
  O  O23  1  0.75610240  0.39464215  0.29014465  1
  O  O24  1  0.48892432  0.44801156  0.55698088  1
  O  O25  1  0.98892432  0.05198844  0.44301912  1
  O  O26  1  0.51107568  0.94801156  0.94301912  1
  O  O27  1  0.01107568  0.55198844  0.05698088  1
  O  O28  1  0.59116750  0.79474592  0.56082928  1
  O  O29  1  0.09116750  0.70525408  0.43917072  1
  O  O30  1  0.40883250  0.29474592  0.93917072  1
  O  O31  1  0.90883250  0.20525408  0.06082928  1
  O  O32  1  0.23205496  0.34714474  0.26734387  1
  O  O33  1  0.73205496  0.15285526  0.73265613  1
  O  O34  1  0.76794504  0.84714474  0.23265613  1
  O  O35  1  0.26794504  0.65285526  0.76734387  1
