# generated using pymatgen
data_Na14Ti2Zn6Si5S7O48
_symmetry_space_group_name_H-M   'P 1'
_cell_length_a   18.15707587
_cell_length_b   9.08989071
_cell_length_c   22.16885042
_cell_angle_alpha   89.96794564
_cell_angle_beta   89.94536322
_cell_angle_gamma   120.14728922
_symmetry_Int_Tables_number   1
_chemical_formula_structural   Na14Ti2Zn6Si5S7O48
_chemical_formula_sum   'Na42 Ti6 Zn18 Si15 S21 O144'
_cell_volume   3163.96285525
_cell_formula_units_Z   3
loop_
 _symmetry_equiv_pos_site_id
 _symmetry_equiv_pos_as_xyz
  1  'x, y, z'
loop_
 _atom_site_type_symbol
 _atom_site_label
 _atom_site_symmetry_multiplicity
 _atom_site_fract_x
 _atom_site_fract_y
 _atom_site_fract_z
 _atom_site_occupancy
  Na  Na0  1  0.81335246  0.00635973  0.24908691  1
  Na  Na1  1  0.68932533  0.36153404  0.24570365  1
  Na  Na2  1  0.49975564  0.63686709  0.24586956  1
  Na  Na3  1  0.31074839  0.61764525  0.74946512  1
  Na  Na4  1  -0.00000355  0.36453343  0.74328010  1
  Na  Na5  1  0.18241661  0.00237037  0.74350764  1
  Na  Na6  1  0.15282499  0.33023748  0.57585567  1
  Na  Na7  1  0.66950108  0.36531966  0.58427917  1
  Na  Na8  1  0.01372003  0.69040787  0.57221498  1
  Na  Na9  1  0.51996493  0.68295631  0.59217611  1
  Na  Na10  1  0.32425731  0.97831577  0.58476339  1
  Na  Na11  1  0.82738474  0.96526376  0.59254759  1
  Na  Na12  1  0.16399269  0.96714844  0.07853972  1
  Na  Na13  1  0.65922495  0.98179378  0.06997994  1
  Na  Na14  1  0.32232949  0.68664886  0.08698861  1
  Na  Na15  1  0.82642002  0.67309947  0.07990037  1
  Na  Na16  1  0.01889317  0.35724810  0.08724030  1
  Na  Na17  1  0.51310444  0.33510102  0.06831761  1
  Na  Na18  1  0.48378152  0.66740183  0.91872051  1
  Na  Na19  1  0.97730902  0.66140684  0.91299184  1
  Na  Na20  1  0.35436883  0.04386370  0.92088400  1
  Na  Na21  1  0.85099192  0.04466796  0.91090462  1
  Na  Na22  1  0.16657546  0.29056929  0.91332767  1
  Na  Na23  1  0.66252789  0.28965396  0.92412550  1
  Na  Na24  1  0.47814297  0.30033168  0.42568786  1
  Na  Na25  1  0.98475880  0.30268050  0.42352287  1
  Na  Na26  1  0.16038421  0.03166963  0.42850742  1
  Na  Na27  1  0.67048922  0.04835334  0.41974854  1
  Na  Na28  1  0.34766818  0.65629289  0.41784272  1
  Na  Na29  1  0.85522302  0.66315860  0.42396568  1
  Na  Na30  1  0.00266861  0.98695726  0.49863371  1
  Na  Na31  1  0.50506909  0.01103399  0.49962620  1
  Na  Na32  1  0.00387891  0.99864432  0.99322829  1
  Na  Na33  1  0.50253937  0.01780727  0.99218803  1
  Na  Na34  1  0.33934057  0.33346038  0.82898634  1
  Na  Na35  1  0.82649951  0.33195219  0.82440302  1
  Na  Na36  1  0.31747077  0.32052527  0.33030585  1
  Na  Na37  1  0.84170102  0.34573973  0.33080454  1
  Na  Na38  1  0.16841285  0.67198242  0.16128519  1
  Na  Na39  1  0.66784366  0.66173318  0.16370197  1
  Na  Na40  1  0.16161498  0.67243871  0.66678929  1
  Na  Na41  1  0.67180508  0.66768856  0.66296157  1
  Ti  Ti42  1  0.00620588  0.98228717  0.65134409  1
  Ti  Ti43  1  0.51033532  0.02704031  0.64535205  1
  Ti  Ti44  1  0.00960165  0.99494916  0.14478137  1
  Ti  Ti45  1  0.50539651  0.00983933  0.14668788  1
  Ti  Ti46  1  0.15959326  0.64318296  0.31968488  1
  Ti  Ti47  1  0.66078955  0.67737526  0.82036133  1
  Zn  Zn48  1  0.00873025  0.00590993  0.35448529  1
  Zn  Zn49  1  0.50562708  0.00558264  0.33655723  1
  Zn  Zn50  1  0.00703267  0.98874851  0.82488719  1
  Zn  Zn51  1  0.50813520  0.01115617  0.85363232  1
  Zn  Zn52  1  0.32744717  0.31370644  0.67835904  1
  Zn  Zn53  1  0.83034040  0.34955466  0.67995744  1
  Zn  Zn54  1  0.31621585  0.30843026  0.17175201  1
  Zn  Zn55  1  0.82840133  0.33934488  0.17785873  1
  Zn  Zn56  1  0.33126944  0.30630654  0.98977122  1
  Zn  Zn57  1  0.82415787  0.33628115  0.98876181  1
  Zn  Zn58  1  0.32416209  0.31583927  0.49200158  1
  Zn  Zn59  1  0.83329196  0.35515584  0.49583824  1
  Zn  Zn60  1  0.16561338  0.66594364  0.02335024  1
  Zn  Zn61  1  0.65916742  0.64887535  0.00884027  1
  Zn  Zn62  1  0.15788764  0.66726261  0.51036061  1
  Zn  Zn63  1  0.66661512  0.67213296  0.52581548  1
  Zn  Zn64  1  0.66505155  0.68115961  0.31430460  1
  Zn  Zn65  1  0.15688864  0.64850366  0.80833491  1
  Si  Si66  1  0.65126584  0.00321005  0.25100158  1
  Si  Si67  1  0.15178360  0.29628396  0.74972182  1
  Si  Si68  1  0.99413360  0.68427500  0.75390534  1
  Si  Si69  1  0.47647274  0.33326157  0.58217367  1
  Si  Si70  1  0.18174193  0.02102521  0.58405501  1
  Si  Si71  1  0.69055260  0.04964800  0.58314942  1
  Si  Si72  1  0.83703191  0.64431164  0.58258733  1
  Si  Si73  1  0.97568439  0.61892126  0.08224678  1
  Si  Si74  1  0.33730807  0.03357709  0.08446600  1
  Si  Si75  1  0.18730740  0.33473660  0.08103854  1
  Si  Si76  1  0.68248245  0.34179583  0.08560966  1
  Si  Si77  1  0.51384089  0.36680582  0.91681887  1
  Si  Si78  1  0.66924380  0.96734174  0.92279497  1
  Si  Si79  1  0.16876607  0.37133069  0.42265361  1
  Si  Si80  1  0.01395736  0.66198683  0.41655809  1
  S  S81  1  0.14923609  0.99469228  0.25125402  1
  S  S82  1  0.34984866  0.70205274  0.25190325  1
  S  S83  1  0.85546876  0.71522283  0.25192053  1
  S  S84  1  0.00414520  0.29223038  0.25192846  1
  S  S85  1  0.49858364  0.29513411  0.25096931  1
  S  S86  1  0.64730578  0.30436070  0.75229563  1
  S  S87  1  0.50447532  0.71594289  0.75221626  1
  S  S88  1  0.35823803  0.99905725  0.75175417  1
  S  S89  1  0.84784453  0.98848404  0.75284090  1
  S  S90  1  0.98265223  0.32602489  0.58490265  1
  S  S91  1  0.33944627  0.64387078  0.58564148  1
  S  S92  1  0.48168000  0.63730212  0.08852934  1
  S  S93  1  0.83888546  0.03346572  0.08709242  1
  S  S94  1  0.31158344  0.66472323  0.91543696  1
  S  S95  1  0.81232880  0.67277627  0.91524535  1
  S  S96  1  0.01726879  0.36718184  0.91800432  1
  S  S97  1  0.16654382  0.95715787  0.91589224  1
  S  S98  1  0.31538598  0.95517194  0.41136618  1
  S  S99  1  0.81269163  0.96171540  0.41472494  1
  S  S100  1  0.66252870  0.37488622  0.41193412  1
  S  S101  1  0.51737589  0.66850168  0.41534851  1
  O  O102  1  0.10712842  0.00596681  0.30627729  1
  O  O103  1  0.61295947  0.03343902  0.31340463  1
  O  O104  1  0.39874897  0.78835096  0.30812611  1
  O  O105  1  0.89911390  0.80567440  0.30724022  1
  O  O106  1  0.48820511  0.20121576  0.30811619  1
  O  O107  1  0.99715661  0.19328815  0.30683461  1
  O  O108  1  0.11169996  0.19345956  0.81314360  1
  O  O109  1  0.60477569  0.20921196  0.80730340  1
  O  O110  1  0.49722450  0.80009075  0.80734135  1
  O  O111  1  0.98099711  0.76076912  0.81672590  1
  O  O112  1  0.40258351  0.00003681  0.80736192  1
  O  O113  1  0.89868275  0.00477296  0.80860261  1
  O  O114  1  0.40607506  0.98947783  0.69751410  1
  O  O115  1  0.89259876  0.97596027  0.69838400  1
  O  O116  1  0.08473455  0.18281248  0.69417380  1
  O  O117  1  0.59220008  0.20684576  0.69753490  1
  O  O118  1  0.00394677  0.82152850  0.69847557  1
  O  O119  1  0.51264978  0.81872663  0.69698816  1
  O  O120  1  0.39598523  0.80660321  0.19800629  1
  O  O121  1  0.90230362  0.81985315  0.19748426  1
  O  O122  1  0.01197615  0.20560893  0.19667683  1
  O  O123  1  0.50283730  0.19438267  0.19893519  1
  O  O124  1  0.09515854  0.98352180  0.19654722  1
  O  O125  1  0.58307900  0.98489918  0.19561382  1
  O  O126  1  0.43294245  0.38012944  0.63629707  1
  O  O127  1  0.94100261  0.34184576  0.63927265  1
  O  O128  1  0.24032035  0.10013559  0.64340083  1
  O  O129  1  0.75590178  0.13446676  0.63771036  1
  O  O130  1  0.32771020  0.54171232  0.64002463  1
  O  O131  1  0.81187397  0.50735698  0.63525844  1
  O  O132  1  0.44025002  0.54023024  0.14336209  1
  O  O133  1  0.93369965  0.48711405  0.13738669  1
  O  O134  1  0.32030433  0.12287179  0.14087640  1
  O  O135  1  0.82711729  0.11048851  0.14179335  1
  O  O136  1  0.25051444  0.39400093  0.13824636  1
  O  O137  1  0.73868336  0.37610417  0.14589833  1
  O  O138  1  0.22132323  0.27689391  0.02218102  1
  O  O139  1  0.71477226  0.28259535  0.02641087  1
  O  O140  1  0.43268831  0.55556791  0.03304831  1
  O  O141  1  0.91659789  0.56076567  0.02105059  1
  O  O142  1  0.36752083  0.15189726  0.02311876  1
  O  O143  1  0.85288904  0.13809529  0.03240149  1
  O  O144  1  0.21599282  0.14248891  0.52404571  1
  O  O145  1  0.71990917  0.16298829  0.52013309  1
  O  O146  1  0.35397413  0.56859701  0.53054391  1
  O  O147  1  0.86592018  0.58523522  0.52053808  1
  O  O148  1  0.41874305  0.27757437  0.51993365  1
  O  O149  1  0.93391802  0.31298930  0.52890103  1
  O  O150  1  0.27126508  0.68437869  0.97046804  1
  O  O151  1  0.77420529  0.68208334  0.97330274  1
  O  O152  1  0.06921014  0.45346006  0.97165624  1
  O  O153  1  0.56885714  0.43836785  0.97781398  1
  O  O154  1  0.16425689  0.86507749  0.97159752  1
  O  O155  1  0.65873870  0.85351727  0.98208003  1
  O  O156  1  0.28024937  0.86647155  0.46933959  1
  O  O157  1  0.76803952  0.85400034  0.46735425  1
  O  O158  1  0.16058169  0.46647143  0.48176989  1
  O  O159  1  0.65876525  0.46249347  0.46693128  1
  O  O160  1  0.07019772  0.70361142  0.47699355  1
  O  O161  1  0.57081090  0.68707441  0.46813594  1
  O  O162  1  0.07738237  0.64916115  0.36064499  1
  O  O163  1  0.55694137  0.65402726  0.35813066  1
  O  O164  1  0.25972837  0.85333757  0.35998665  1
  O  O165  1  0.76525517  0.88165715  0.35752671  1
  O  O166  1  0.17613954  0.49832556  0.36245463  1
  O  O167  1  0.66554618  0.47010158  0.35611321  1
  O  O168  1  0.05866654  0.46193933  0.86169909  1
  O  O169  1  0.57707829  0.50645684  0.86168186  1
  O  O170  1  0.16957095  0.86777584  0.86098865  1
  O  O171  1  0.67698224  0.85535051  0.86316599  1
  O  O172  1  0.26233202  0.65286694  0.86024911  1
  O  O173  1  0.75716177  0.66396854  0.86354541  1
  O  O174  1  0.00237459  0.82688153  0.40768637  1
  O  O175  1  0.50641141  0.82199905  0.41426538  1
  O  O176  1  0.40259985  0.97602476  0.40628089  1
  O  O177  1  0.89951062  0.98181078  0.41324332  1
  O  O178  1  0.08192597  0.18734789  0.41579950  1
  O  O179  1  0.58270709  0.20143797  0.41289511  1
  O  O180  1  0.00547487  0.19205233  0.91671392  1
  O  O181  1  0.50212644  0.17834233  0.90856897  1
  O  O182  1  0.08903874  0.97537073  0.91731057  1
  O  O183  1  0.58271051  0.97874321  0.91561956  1
  O  O184  1  0.39961763  0.81751283  0.91336488  1
  O  O185  1  0.89752077  0.82780926  0.91227638  1
  O  O186  1  0.48552836  0.15632784  0.59566792  1
  O  O187  1  0.98896918  0.16789172  0.58651630  1
  O  O188  1  0.08597712  0.00366844  0.59245017  1
  O  O189  1  0.59213327  0.03268922  0.59654859  1
  O  O190  1  0.42005168  0.81795552  0.59099785  1
  O  O191  1  0.92035998  0.83668938  0.59545664  1
  O  O192  1  0.48741248  0.81056199  0.08983542  1
  O  O193  1  0.98595593  0.81545088  0.09716024  1
  O  O194  1  0.41996258  0.00489128  0.09772817  1
  O  O195  1  0.91896482  0.01938989  0.09223504  1
  O  O196  1  0.09081316  0.15400098  0.09556571  1
  O  O197  1  0.58505834  0.16664538  0.09527261  1
  O  O198  1  0.34855064  0.15067444  0.75023875  1
  O  O199  1  0.83956924  0.14092571  0.75066983  1
  O  O200  1  0.24747568  0.31839229  0.74349463  1
  O  O201  1  0.73009192  0.31635922  0.74724343  1
  O  O202  1  0.42746032  0.54703335  0.74878134  1
  O  O203  1  0.91725347  0.49065392  0.74403015  1
  O  O204  1  0.34584855  0.53541316  0.25015034  1
  O  O205  1  0.84635194  0.54456716  0.25118454  1
  O  O206  1  0.42901671  0.33204141  0.24596707  1
  O  O207  1  0.92740300  0.30751397  0.24875557  1
  O  O208  1  0.23298480  0.14905000  0.24664110  1
  O  O209  1  0.74713041  0.16889252  0.24312325  1
  O  O210  1  0.31914738  0.50891054  0.91790639  1
  O  O211  1  0.81795793  0.51533378  0.91144202  1
  O  O212  1  0.42399224  0.36768888  0.91548024  1
  O  O213  1  0.93203430  0.35461314  0.92083339  1
  O  O214  1  0.24508217  0.13011647  0.91456686  1
  O  O215  1  0.75657268  0.15353855  0.92030277  1
  O  O216  1  0.32122084  0.12379081  0.40869499  1
  O  O217  1  0.82046435  0.13165907  0.41821579  1
  O  O218  1  0.25619186  0.36047048  0.41932789  1
  O  O219  1  0.73925112  0.35604339  0.41089884  1
  O  O220  1  0.43218948  0.51205417  0.41884533  1
  O  O221  1  0.92459461  0.48144438  0.41476466  1
  O  O222  1  0.16289518  0.48219566  0.07442241  1
  O  O223  1  0.67000442  0.50705119  0.07882669  1
  O  O224  1  0.07427195  0.66683691  0.07666803  1
  O  O225  1  0.56942024  0.66593027  0.08650241  1
  O  O226  1  0.25458732  0.84442298  0.07808695  1
  O  O227  1  0.76491672  0.85969198  0.08183716  1
  O  O228  1  0.17103084  0.83164990  0.57760073  1
  O  O229  1  0.66489364  0.85087533  0.57751475  1
  O  O230  1  0.26587102  0.67004968  0.58025664  1
  O  O231  1  0.75577988  0.67326718  0.57597450  1
  O  O232  1  0.07002403  0.47742383  0.58299297  1
  O  O233  1  0.57530134  0.48403594  0.57658462  1
  O  O234  1  0.15501263  0.83758397  0.25034966  1
  O  O235  1  0.65329585  0.82319493  0.24894296  1
  O  O236  1  0.26367972  0.68421923  0.25343483  1
  O  O237  1  0.76811517  0.69667984  0.24851075  1
  O  O238  1  0.08340163  0.46628545  0.25430580  1
  O  O239  1  0.58244132  0.45945242  0.24968751  1
  O  O240  1  0.15857652  0.48342632  0.74787241  1
  O  O241  1  0.65289473  0.47291195  0.75112650  1
  O  O242  1  0.08763377  0.69569780  0.75001425  1
  O  O243  1  0.58357735  0.70081666  0.75506083  1
  O  O244  1  0.27259492  0.84167734  0.74834577  1
  O  O245  1  0.76206102  0.82943124  0.75586529  1
