# generated using pymatgen
data_CsBeH3
_symmetry_space_group_name_H-M   'P 1'
_cell_length_a   5.07066973
_cell_length_b   5.91286537
_cell_length_c   7.80634952
_cell_angle_alpha   90.00000000
_cell_angle_beta   108.86384796
_cell_angle_gamma   90.00000000
_symmetry_Int_Tables_number   1
_chemical_formula_structural   CsBeH3
_chemical_formula_sum   'Cs2 Be2 H6'
_cell_volume   221.48042744
_cell_formula_units_Z   2
loop_
 _symmetry_equiv_pos_site_id
 _symmetry_equiv_pos_as_xyz
  1  'x, y, z'
loop_
 _atom_site_type_symbol
 _atom_site_label
 _atom_site_symmetry_multiplicity
 _atom_site_fract_x
 _atom_site_fract_y
 _atom_site_fract_z
 _atom_site_occupancy
  Cs  Cs0  1  0.81859242  0.25000000  0.23178819  1
  Cs  Cs1  1  0.18140758  0.75000000  0.76821181  1
  Be  Be2  1  0.23690673  0.75000000  0.23883906  1
  Be  Be3  1  0.76309327  0.25000000  0.76116094  1
  H  H4  1  0.69731844  0.04534343  0.82830883  1
  H  H5  1  0.30268156  0.54534343  0.17169117  1
  H  H6  1  0.30268156  0.95465657  0.17169117  1
  H  H7  1  0.69731844  0.45465657  0.82830883  1
  H  H8  1  0.91289956  0.25000000  0.63833874  1
  H  H9  1  0.08710044  0.75000000  0.36166126  1
