# generated using pymatgen
data_Na2TaInSi2SO12
_symmetry_space_group_name_H-M   'P 1'
_cell_length_a   9.02565260
_cell_length_b   9.02565229
_cell_length_c   22.81515468
_cell_angle_alpha   89.41171077
_cell_angle_beta   90.58828923
_cell_angle_gamma   119.16911335
_symmetry_Int_Tables_number   1
_chemical_formula_structural   Na2TaInSi2SO12
_chemical_formula_sum   'Na12 Ta6 In6 Si12 S6 O72'
_cell_volume   1622.76668849
_cell_formula_units_Z   6
loop_
 _symmetry_equiv_pos_site_id
 _symmetry_equiv_pos_as_xyz
  1  'x, y, z'
loop_
 _atom_site_type_symbol
 _atom_site_label
 _atom_site_symmetry_multiplicity
 _atom_site_fract_x
 _atom_site_fract_y
 _atom_site_fract_z
 _atom_site_occupancy
  Na  Na0  1  0.97867977  0.62003858  0.24940067  1
  Na  Na1  1  0.37996142  0.02132023  0.74940067  1
  Na  Na2  1  0.64534677  0.95337158  0.58273367  1
  Na  Na3  1  0.04662842  0.35465323  0.08273367  1
  Na  Na4  1  0.31201277  0.28670558  0.91606767  1
  Na  Na5  1  0.71329442  0.68798723  0.41606767  1
  Na  Na6  1  0.00778800  0.98680495  0.49435450  1
  Na  Na7  1  0.01319505  0.99221200  0.99435450  1
  Na  Na8  1  0.67445500  0.32013795  0.82768750  1
  Na  Na9  1  0.67986205  0.32554500  0.32768750  1
  Na  Na10  1  0.34112100  0.65347195  0.16102150  1
  Na  Na11  1  0.34652805  0.65887900  0.66102150  1
  Ta  Ta12  1  -0.00126743  0.00242902  0.64587208  1
  Ta  Ta13  1  0.99757098  0.00126743  0.14587208  1
  Ta  Ta14  1  0.66539957  0.33576202  0.97920508  1
  Ta  Ta15  1  0.66423798  0.33460043  0.47920508  1
  Ta  Ta16  1  0.33206557  0.66909602  0.31253908  1
  Ta  Ta17  1  0.33090398  0.66793443  0.81253908  1
  In  In18  1  0.98613649  0.99637654  0.35086362  1
  In  In19  1  0.00362346  0.01386351  0.85086362  1
  In  In20  1  0.65280349  0.32970954  0.68419662  1
  In  In21  1  0.67029046  0.34719651  0.18419662  1
  In  In22  1  0.31946949  0.66304354  0.01753062  1
  In  In23  1  0.33695646  0.68053051  0.51753062  1
  Si  Si24  1  0.70255382  0.70804008  0.25178934  1
  Si  Si25  1  0.00192927  0.29446907  0.24989032  1
  Si  Si26  1  0.29195992  0.29744618  0.75178934  1
  Si  Si27  1  0.70553093  0.99807073  0.74989032  1
  Si  Si28  1  0.36922082  0.04137308  0.58512234  1
  Si  Si29  1  0.66859627  0.62780207  0.58322332  1
  Si  Si30  1  0.95862692  0.63077918  0.08512234  1
  Si  Si31  1  0.37219793  0.33140373  0.08322332  1
  Si  Si32  1  0.03588682  0.37470708  0.91845634  1
  Si  Si33  1  0.33526227  0.96113607  0.91655732  1
  Si  Si34  1  0.62529292  0.96411318  0.41845634  1
  Si  Si35  1  0.03886393  0.66473773  0.41655732  1
  S  S36  1  0.28917220  0.99797547  0.25021646  1
  S  S37  1  0.00202453  0.71082780  0.75021646  1
  S  S38  1  0.95583920  0.33130847  0.58354946  1
  S  S39  1  0.66869153  0.04416080  0.08354946  1
  S  S40  1  0.62250520  0.66464247  0.91688346  1
  S  S41  1  0.33535753  0.37749480  0.41688346  1
  O  O42  1  0.21773263  0.02285575  0.30340135  1
  O  O43  1  0.81802734  0.77466383  0.31010137  1
  O  O44  1  0.99231812  0.19368276  0.30810931  1
  O  O45  1  0.22533617  0.18197266  0.81010137  1
  O  O46  1  0.97714425  0.78226737  0.80340135  1
  O  O47  1  0.80631724  0.00768188  0.80810931  1
  O  O48  1  0.80241898  0.97417903  0.69041530  1
  O  O49  1  0.16120751  0.18582955  0.69545374  1
  O  O50  1  0.02757575  0.82379774  0.69755551  1
  O  O51  1  0.81417045  0.83879249  0.19545374  1
  O  O52  1  0.02582097  0.19758102  0.19041530  1
  O  O53  1  0.17620226  0.97242425  0.19755551  1
  O  O54  1  0.88439963  0.35618875  0.63673435  1
  O  O55  1  0.48469434  0.10799683  0.64343437  1
  O  O56  1  0.65898512  0.52701576  0.64144231  1
  O  O57  1  0.89200317  0.51530566  0.14343437  1
  O  O58  1  0.64381125  0.11560037  0.13673435  1
  O  O59  1  0.47298424  0.34101488  0.14144231  1
  O  O60  1  0.46908598  0.30751203  0.02374830  1
  O  O61  1  0.82787451  0.51916255  0.02878674  1
  O  O62  1  0.69424275  0.15713074  0.03088851  1
  O  O63  1  0.48083745  0.17212549  0.52878674  1
  O  O64  1  0.69248797  0.53091402  0.52374830  1
  O  O65  1  0.84286926  0.30575725  0.53088851  1
  O  O66  1  0.55106563  0.68952275  0.97006835  1
  O  O67  1  0.15136034  0.44133083  0.97676837  1
  O  O68  1  0.32565112  0.86034976  0.97477631  1
  O  O69  1  0.55866917  0.84863966  0.47676837  1
  O  O70  1  0.31047725  0.44893437  0.47006835  1
  O  O71  1  0.13965024  0.67434888  0.47477631  1
  O  O72  1  0.13575198  0.64084603  0.35708230  1
  O  O73  1  0.49454051  0.85249655  0.36212074  1
  O  O74  1  0.36090875  0.49046474  0.36422251  1
  O  O75  1  0.14750345  0.50545949  0.86212074  1
  O  O76  1  0.35915397  0.86424802  0.85708230  1
  O  O77  1  0.50953526  0.63909125  0.86422251  1
  O  O78  1  0.01297738  0.83007914  0.41170383  1
  O  O79  1  0.81471781  0.98967999  0.41331119  1
  O  O80  1  0.19977517  0.20438573  0.40859337  1
  O  O81  1  0.01032001  0.18528219  0.91331119  1
  O  O82  1  0.16992086  0.98702262  0.91170383  1
  O  O83  1  0.79561427  0.80022483  0.90859337  1
  O  O84  1  0.95649771  0.16265936  0.58704802  1
  O  O85  1  0.18275304  0.03486529  0.59159273  1
  O  O86  1  0.84097224  0.82385392  0.59032729  1
  O  O87  1  0.96513471  0.81724696  0.09159273  1
  O  O88  1  0.83734064  0.04350229  0.08704802  1
  O  O89  1  0.17614608  0.15902776  0.09032729  1
  O  O90  1  0.67964438  0.16341214  0.74503683  1
  O  O91  1  0.48138481  0.32301299  0.74664419  1
  O  O92  1  0.86644217  0.53771873  0.74192637  1
  O  O93  1  0.67698701  0.51861519  0.24664419  1
  O  O94  1  0.83658786  0.32035562  0.24503683  1
  O  O95  1  0.46228127  0.13355783  0.24192637  1
  O  O96  1  0.62316471  0.49599236  0.92038102  1
  O  O97  1  0.84942004  0.36819829  0.92492573  1
  O  O98  1  0.50763924  0.15718692  0.92366029  1
  O  O99  1  0.63180171  0.15057996  0.42492573  1
  O  O100  1  0.50400764  0.37683529  0.42038102  1
  O  O101  1  0.84281308  0.49236076  0.42366029  1
  O  O102  1  0.34631038  0.49674614  0.07837083  1
  O  O103  1  0.14805081  0.65634699  0.07997819  1
  O  O104  1  0.53310817  0.87105273  0.07526037  1
  O  O105  1  0.34365301  0.85194919  0.57997819  1
  O  O106  1  0.50325386  0.65368962  0.57837083  1
  O  O107  1  0.12894727  0.46689183  0.57526037  1
  O  O108  1  0.28983071  0.82932636  0.25371502  1
  O  O109  1  0.51608604  0.70153229  0.25825973  1
  O  O110  1  0.17430524  0.49052092  0.25699429  1
  O  O111  1  0.29846771  0.48391396  0.75825973  1
  O  O112  1  0.17067364  0.71016929  0.75371502  1
  O  O113  1  0.50947908  0.82569476  0.75699429  1
