# generated using pymatgen
data_Na4Mg2Al2SiS5O24
_symmetry_space_group_name_H-M   'P 1'
_cell_length_a   8.66499083
_cell_length_b   8.63185838
_cell_length_c   21.89031097
_cell_angle_alpha   89.97065979
_cell_angle_beta   90.14893330
_cell_angle_gamma   119.90022215
_symmetry_Int_Tables_number   1
_chemical_formula_structural   Na4Mg2Al2SiS5O24
_chemical_formula_sum   'Na12 Mg6 Al6 Si3 S15 O72'
_cell_volume   1419.34870578
_cell_formula_units_Z   3
loop_
 _symmetry_equiv_pos_site_id
 _symmetry_equiv_pos_as_xyz
  1  'x, y, z'
loop_
 _atom_site_type_symbol
 _atom_site_label
 _atom_site_symmetry_multiplicity
 _atom_site_fract_x
 _atom_site_fract_y
 _atom_site_fract_z
 _atom_site_occupancy
  Na  Na0  1  0.99826291  0.63387485  0.24101966  1
  Na  Na1  1  0.99492572  0.35702036  0.75713926  1
  Na  Na2  1  0.37445916  0.99652155  0.74885186  1
  Na  Na3  1  0.65857702  0.97626349  0.59083658  1
  Na  Na4  1  0.68003572  0.68347935  0.07858951  1
  Na  Na5  1  0.33613194  0.03641508  0.42253539  1
  Na  Na6  1  0.01666256  0.00373748  0.50389708  1
  Na  Na7  1  0.01405221  0.99328709  0.00323576  1
  Na  Na8  1  0.66568880  0.33402809  0.83971697  1
  Na  Na9  1  0.66653185  0.33392202  0.33097580  1
  Na  Na10  1  0.31683862  0.66195900  0.16069157  1
  Na  Na11  1  0.34697403  0.67251450  0.66613003  1
  Mg  Mg12  1  0.99642430  0.00110367  0.35386127  1
  Mg  Mg13  1  0.67379312  0.33480560  0.17835519  1
  Mg  Mg14  1  0.67533993  0.34356466  0.98625813  1
  Mg  Mg15  1  0.65598447  0.32827772  0.48453635  1
  Mg  Mg16  1  0.33614518  0.66473649  0.31140698  1
  Mg  Mg17  1  0.34945879  0.67577719  0.81394769  1
  Al  Al18  1  0.98622510  0.99981711  0.85489755  1
  Al  Al19  1  0.99987393  0.99515596  0.64793626  1
  Al  Al20  1  0.00425049  0.00226723  0.14685094  1
  Al  Al21  1  0.65909048  0.31585881  0.68222205  1
  Al  Al22  1  0.32267286  0.66845185  0.01714770  1
  Al  Al23  1  0.32895020  0.67027605  0.52030457  1
  Si  Si24  1  0.71630906  0.00162356  0.74682341  1
  Si  Si25  1  0.35786098  0.03158580  0.58215191  1
  Si  Si26  1  0.97490960  0.63887285  0.08519909  1
  S  S27  1  0.29486117  0.00790492  0.25131488  1
  S  S28  1  0.70711470  0.71127295  0.24884148  1
  S  S29  1  0.99666917  0.28368336  0.24916246  1
  S  S30  1  0.28986034  0.28349228  0.74950826  1
  S  S31  1  0.98623128  0.70930459  0.75078893  1
  S  S32  1  0.96485700  0.33867603  0.58377075  1
  S  S33  1  0.66623760  0.61924742  0.58459801  1
  S  S34  1  0.66567118  0.03374956  0.08233068  1
  S  S35  1  0.36408911  0.33181336  0.08217384  1
  S  S36  1  0.62828439  0.67091335  0.91693551  1
  S  S37  1  0.04684328  0.37186840  0.91444926  1
  S  S38  1  0.32574523  0.96077535  0.91382198  1
  S  S39  1  0.62547838  0.95322472  0.41896534  1
  S  S40  1  0.33448428  0.38458918  0.41888652  1
  S  S41  1  0.03978834  0.66049761  0.41646626  1
  O  O42  1  0.22044089  0.02604954  0.31025327  1
  O  O43  1  0.81875895  0.79465780  0.30342036  1
  O  O44  1  0.98709791  0.18849779  0.30561693  1
  O  O45  1  0.21602247  0.16808871  0.80453008  1
  O  O46  1  0.96861802  0.79408625  0.80696867  1
  O  O47  1  0.84942868  0.04348255  0.80561901  1
  O  O48  1  0.81383336  0.98612499  0.68547735  1
  O  O49  1  0.17756135  0.19797903  0.69515468  1
  O  O50  1  0.02663761  0.82735724  0.69704283  1
  O  O51  1  0.79748941  0.81723315  0.19297178  1
  O  O52  1  0.01101923  0.18984074  0.19462911  1
  O  O53  1  0.17300328  0.98550644  0.19983136  1
  O  O54  1  0.88846823  0.37211602  0.64059388  1
  O  O55  1  0.49988709  0.12779460  0.63983351  1
  O  O56  1  0.64646959  0.50856485  0.63940891  1
  O  O57  1  0.89833528  0.52485348  0.14760317  1
  O  O58  1  0.62280793  0.10280715  0.13687847  1
  O  O59  1  0.47846601  0.36874521  0.13648112  1
  O  O60  1  0.43309707  0.28538138  0.02836180  1
  O  O61  1  0.83059884  0.55393575  0.03062329  1
  O  O62  1  0.69295355  0.14084329  0.02755442  1
  O  O63  1  0.43579587  0.14175788  0.52001165  1
  O  O64  1  0.69838328  0.54720597  0.52932148  1
  O  O65  1  0.84891180  0.30706093  0.53117819  1
  O  O66  1  0.54093983  0.69291755  0.97256814  1
  O  O67  1  0.16360087  0.46769990  0.96706840  1
  O  O68  1  0.30488370  0.84358722  0.96651462  1
  O  O69  1  0.53764264  0.84927297  0.47618575  1
  O  O70  1  0.32094072  0.47774043  0.47450190  1
  O  O71  1  0.16035925  0.68530639  0.46950122  1
  O  O72  1  0.11765859  0.64315985  0.35881681  1
  O  O73  1  0.51180950  0.86788490  0.36546905  1
  O  O74  1  0.34459641  0.48125025  0.36317108  1
  O  O75  1  0.12363581  0.47116624  0.85695600  1
  O  O76  1  0.34767944  0.88465260  0.85607828  1
  O  O77  1  0.52526415  0.65282866  0.86192168  1
  O  O78  1  0.03041713  0.82901330  0.41561372  1
  O  O79  1  0.80086411  0.96578060  0.41564517  1
  O  O80  1  0.17472674  0.20110000  0.41845402  1
  O  O81  1  0.03850357  0.19314613  0.91152210  1
  O  O82  1  0.15756627  0.97171405  0.90961007  1
  O  O83  1  0.80931109  0.83742788  0.91256332  1
  O  O84  1  0.98085904  0.17526328  0.59025170  1
  O  O85  1  0.16178412  0.00576083  0.59581959  1
  O  O86  1  0.81887506  0.80525036  0.59163166  1
  O  O87  1  0.99622382  0.84067816  0.09511333  1
  O  O88  1  0.82893802  0.01769926  0.09201266  1
  O  O89  1  0.17957207  0.18625994  0.09384532  1
  O  O90  1  0.69778955  0.18794039  0.74166555  1
  O  O91  1  0.47200136  0.30905582  0.74135501  1
  O  O92  1  0.82238224  0.53344094  0.74255543  1
  O  O93  1  0.68542264  0.52949865  0.24474417  1
  O  O94  1  0.83510971  0.30164584  0.24629735  1
  O  O95  1  0.47248840  0.16362952  0.24338426  1
  O  O96  1  0.64881115  0.51232416  0.92147569  1
  O  O97  1  0.86643786  0.34523581  0.92160273  1
  O  O98  1  0.48097144  0.14031297  0.92203162  1
  O  O99  1  0.64628974  0.13487287  0.42278172  1
  O  O100  1  0.49581315  0.36555865  0.42105701  1
  O  O101  1  0.86306480  0.50369943  0.42413355  1
  O  O102  1  0.35832669  0.50115313  0.07116268  1
  O  O103  1  0.17062067  0.66180217  0.07097782  1
  O  O104  1  0.51674451  0.84460344  0.07254684  1
  O  O105  1  0.35191607  0.83527982  0.57586529  1
  O  O106  1  0.50170112  0.63532011  0.57993112  1
  O  O107  1  0.14547832  0.49489348  0.57605799  1
  O  O108  1  0.30281820  0.83850601  0.25214943  1
  O  O109  1  0.53204403  0.69976661  0.25229412  1
  O  O110  1  0.15644932  0.46729717  0.24976864  1
  O  O111  1  0.29988108  0.45832988  0.75582255  1
  O  O112  1  0.14044406  0.67773265  0.75532707  1
  O  O113  1  0.51557877  0.83399150  0.75061173  1
