# generated using pymatgen
data_Na6Nb3In5(PO4)12
_symmetry_space_group_name_H-M   'P 1'
_cell_length_a   17.88014253
_cell_length_b   8.94537465
_cell_length_c   22.79012867
_cell_angle_alpha   90.03344341
_cell_angle_beta   90.02266720
_cell_angle_gamma   120.01183269
_symmetry_Int_Tables_number   1
_chemical_formula_structural   Na6Nb3In5(PO4)12
_chemical_formula_sum   'Na18 Nb9 In15 P36 O144'
_cell_volume   3156.42092336
_cell_formula_units_Z   3
loop_
 _symmetry_equiv_pos_site_id
 _symmetry_equiv_pos_as_xyz
  1  'x, y, z'
loop_
 _atom_site_type_symbol
 _atom_site_label
 _atom_site_symmetry_multiplicity
 _atom_site_fract_x
 _atom_site_fract_y
 _atom_site_fract_z
 _atom_site_occupancy
  Na  Na0  1  0.68294709  0.37104876  0.24952210  1
  Na  Na1  1  0.00122402  0.63225221  0.25001553  1
  Na  Na2  1  0.00071425  0.36973940  0.74631889  1
  Na  Na3  1  0.50078205  0.36973082  0.74659587  1
  Na  Na4  1  0.18288239  0.99476775  0.74640216  1
  Na  Na5  1  0.68288235  0.99487654  0.74677134  1
  Na  Na6  1  0.00029652  0.99945817  0.50656561  1
  Na  Na7  1  0.49977251  0.99989644  0.50689860  1
  Na  Na8  1  0.99886288  0.99780620  0.00750119  1
  Na  Na9  1  0.50145822  0.00302313  0.00729455  1
  Na  Na10  1  0.33300185  0.34621504  0.83731038  1
  Na  Na11  1  0.83249787  0.34547462  0.83811791  1
  Na  Na12  1  0.33312326  0.33339655  0.34151439  1
  Na  Na13  1  0.83288150  0.31818228  0.33819120  1
  Na  Na14  1  0.17288577  0.66411592  0.17211183  1
  Na  Na15  1  0.66890473  0.68750495  0.17159761  1
  Na  Na16  1  0.17557057  0.66552093  0.66516618  1
  Na  Na17  1  0.67545182  0.66524713  0.66557883  1
  Nb  Nb18  1  0.00093648  0.00466586  0.35559230  1
  Nb  Nb19  1  0.49803569  0.99608028  0.35546677  1
  Nb  Nb20  1  0.99876719  0.99771674  0.85694416  1
  Nb  Nb21  1  0.49894520  0.99747354  0.85658902  1
  Nb  Nb22  1  0.33366690  0.33545655  0.18685003  1
  Nb  Nb23  1  0.16753718  0.66851345  0.02075498  1
  Nb  Nb24  1  0.66561645  0.66351025  0.01999791  1
  Nb  Nb25  1  0.16611882  0.66683841  0.51857891  1
  Nb  Nb26  1  0.66628061  0.66776472  0.51856364  1
  In  In27  1  0.99830348  0.99664038  0.64578919  1
  In  In28  1  0.49840102  0.99655753  0.64579511  1
  In  In29  1  0.99797391  0.00095061  0.14780521  1
  In  In30  1  0.50066274  0.99979881  0.14762421  1
  In  In31  1  0.33290847  0.34098532  0.68081574  1
  In  In32  1  0.83295050  0.34088392  0.68086106  1
  In  In33  1  0.83256316  0.32302008  0.18339997  1
  In  In34  1  0.33338533  0.33201468  0.98162474  1
  In  In35  1  0.83343161  0.33247212  0.98325945  1
  In  In36  1  0.33319721  0.33286891  0.48337531  1
  In  In37  1  0.83348098  0.33456671  0.48234889  1
  In  In38  1  0.17023840  0.66655281  0.31667756  1
  In  In39  1  0.66631332  0.67280424  0.31719540  1
  In  In40  1  0.16957449  0.66632321  0.81852537  1
  In  In41  1  0.66980587  0.66679087  0.81872206  1
  P  P42  1  0.14606708  0.00248516  0.24975234  1
  P  P43  1  0.64551548  0.99952582  0.25034062  1
  P  P44  1  0.35477506  0.70806896  0.24882057  1
  P  P45  1  0.85371755  0.70834881  0.25060294  1
  P  P46  1  0.00007442  0.29321538  0.25054036  1
  P  P47  1  0.49815247  0.28878224  0.25015684  1
  P  P48  1  0.14501039  0.28979198  0.75118108  1
  P  P49  1  0.64508793  0.29005381  0.75107167  1
  P  P50  1  0.99880384  0.70759249  0.75165284  1
  P  P51  1  0.49884168  0.70731368  0.75155271  1
  P  P52  1  0.35391073  0.99926639  0.75061253  1
  P  P53  1  0.85392696  0.99918533  0.75065375  1
  P  P54  1  0.48305155  0.33491977  0.58361463  1
  P  P55  1  0.98271723  0.33505318  0.58350377  1
  P  P56  1  0.18460929  0.03442795  0.58377595  1
  P  P57  1  0.68497911  0.03537497  0.58351388  1
  P  P58  1  0.33240803  0.63064998  0.58120759  1
  P  P59  1  0.83238743  0.63032735  0.58108889  1
  P  P60  1  0.47968380  0.62466294  0.08204348  1
  P  P61  1  0.98195047  0.63108861  0.08365758  1
  P  P62  1  0.33277685  0.04140977  0.08251806  1
  P  P63  1  0.83316877  0.03523044  0.08092850  1
  P  P64  1  0.18796583  0.33584257  0.08235869  1
  P  P65  1  0.68435294  0.33164381  0.08337695  1
  P  P66  1  0.31434207  0.66698481  0.91716205  1
  P  P67  1  0.81367713  0.66530783  0.91703138  1
  P  P68  1  0.02022172  0.37353351  0.91554459  1
  P  P69  1  0.51916291  0.37177529  0.91431038  1
  P  P70  1  0.16662232  0.96038093  0.91509139  1
  P  P71  1  0.66646749  0.96073856  0.91528916  1
  P  P72  1  0.31315447  0.96088582  0.41554377  1
  P  P73  1  0.81425557  0.96166381  0.41582700  1
  P  P74  1  0.16720432  0.37249298  0.41595980  1
  P  P75  1  0.66628449  0.37259230  0.41358306  1
  P  P76  1  0.01988463  0.66736642  0.41342970  1
  P  P77  1  0.51878103  0.66553239  0.41557568  1
  O  O78  1  0.10122438  0.02769428  0.30539171  1
  O  O79  1  0.59283350  0.01533968  0.30461422  1
  O  O80  1  0.41154663  0.79806155  0.30474931  1
  O  O81  1  0.91361166  0.81191970  0.30496033  1
  O  O82  1  0.48434395  0.16991139  0.30491919  1
  O  O83  1  0.99473836  0.18000457  0.30600994  1
  O  O84  1  0.09498319  0.17232655  0.80663486  1
  O  O85  1  0.59503929  0.17246598  0.80645510  1
  O  O86  1  0.49154499  0.80577479  0.80744359  1
  O  O87  1  0.99161468  0.80623110  0.80759339  1
  O  O88  1  0.41129891  0.01340199  0.80625153  1
  O  O89  1  0.91140967  0.01353668  0.80636683  1
  O  O90  1  0.39407075  0.97587718  0.69552111  1
  O  O91  1  0.89399917  0.97552903  0.69557888  1
  O  O92  1  0.08947204  0.20971879  0.69689503  1
  O  O93  1  0.58941856  0.20982843  0.69683939  1
  O  O94  1  0.01610966  0.81966491  0.69755935  1
  O  O95  1  0.51606607  0.81958512  0.69753063  1
  O  O96  1  0.39403755  0.81277403  0.19398884  1
  O  O97  1  0.89247662  0.80965150  0.19476873  1
  O  O98  1  0.01190921  0.21452663  0.19498564  1
  O  O99  1  0.51594749  0.21339762  0.19577539  1
  O  O100  1  0.08926632  0.96701782  0.19598823  1
  O  O101  1  0.59563910  0.97900028  0.19423128  1
  O  O102  1  0.45059215  0.37014422  0.64276317  1
  O  O103  1  0.95044162  0.36998781  0.64282485  1
  O  O104  1  0.23486798  0.09994164  0.64292544  1
  O  O105  1  0.73499707  0.10041375  0.64276821  1
  O  O106  1  0.31222750  0.52487930  0.63847678  1
  O  O107  1  0.81232463  0.52466444  0.63836677  1
  O  O108  1  0.43211317  0.50556425  0.13732494  1
  O  O109  1  0.94939806  0.52900789  0.14190470  1
  O  O110  1  0.32035667  0.13679285  0.13729402  1
  O  O111  1  0.81249711  0.10145998  0.13750878  1
  O  O112  1  0.24802802  0.36126305  0.13751337  1
  O  O113  1  0.73518103  0.36786137  0.14182130  1
  O  O114  1  0.22693071  0.30901575  0.02744114  1
  O  O115  1  0.72810278  0.30723436  0.03038877  1
  O  O116  1  0.42742972  0.54545396  0.02713251  1
  O  O117  1  0.92592986  0.54368627  0.03068805  1
  O  O118  1  0.34601747  0.14439524  0.02713621  1
  O  O119  1  0.84655476  0.14316995  0.02665433  1
  O  O120  1  0.22948718  0.14896463  0.53175174  1
  O  O121  1  0.72989570  0.14983310  0.53148017  1
  O  O122  1  0.34548244  0.54664072  0.52771618  1
  O  O123  1  0.84563512  0.54689522  0.52750866  1
  O  O124  1  0.42559311  0.31034103  0.53165325  1
  O  O125  1  0.92522413  0.31084888  0.53162504  1
  O  O126  1  0.26717875  0.69253758  0.97110437  1
  O  O127  1  0.76522153  0.68984045  0.97004597  1
  O  O128  1  0.08274176  0.47296879  0.96826495  1
  O  O129  1  0.58001440  0.47086702  0.96717240  1
  O  O130  1  0.15660355  0.83847695  0.96786122  1
  O  O131  1  0.65388359  0.83670392  0.96766196  1
  O  O132  1  0.26628407  0.84090142  0.46917036  1
  O  O133  1  0.76680266  0.84177810  0.46942257  1
  O  O134  1  0.15446128  0.46761330  0.46948768  1
  O  O135  1  0.65397829  0.47126211  0.46619369  1
  O  O136  1  0.08119594  0.69133856  0.46635727  1
  O  O137  1  0.57912458  0.69325698  0.46938886  1
  O  O138  1  0.05704213  0.64448728  0.35584051  1
  O  O139  1  0.55665949  0.63796521  0.35994288  1
  O  O140  1  0.26196668  0.88659592  0.35943332  1
  O  O141  1  0.76340307  0.88563145  0.35980999  1
  O  O142  1  0.17980891  0.47341485  0.35985487  1
  O  O143  1  0.67782386  0.46889290  0.35582209  1
  O  O144  1  0.05642155  0.46998749  0.85769212  1
  O  O145  1  0.55573913  0.46867249  0.85655486  1
  O  O146  1  0.17753033  0.88715398  0.85706650  1
  O  O147  1  0.67775627  0.88817676  0.85708856  1
  O  O148  1  0.26341381  0.63949861  0.86086632  1
  O  O149  1  0.76360110  0.63800222  0.86031357  1
  O  O150  1  0.01638048  0.84043341  0.40916083  1
  O  O151  1  0.51485290  0.83857149  0.40998237  1
  O  O152  1  0.40295202  0.96628931  0.40971588  1
  O  O153  1  0.90484358  0.97029846  0.41022681  1
  O  O154  1  0.08062321  0.19196495  0.41119652  1
  O  O155  1  0.57946517  0.19146308  0.40875197  1
  O  O156  1  0.01611114  0.19287251  0.91136139  1
  O  O157  1  0.51562338  0.19178754  0.91082534  1
  O  O158  1  0.08006268  0.96732680  0.91196831  1
  O  O159  1  0.58014944  0.96903135  0.91148220  1
  O  O160  1  0.40399601  0.84015034  0.91209686  1
  O  O161  1  0.90353200  0.83904107  0.91190067  1
  O  O162  1  0.49943144  0.18284750  0.58644419  1
  O  O163  1  0.99951743  0.18344959  0.58638557  1
  O  O164  1  0.09223597  0.00216043  0.58682268  1
  O  O165  1  0.59247558  0.00249086  0.58661858  1
  O  O166  1  0.40905034  0.81459760  0.58567588  1
  O  O167  1  0.90893411  0.81437347  0.58565098  1
  O  O168  1  0.49451144  0.80642848  0.08908845  1
  O  O169  1  0.00069179  0.81742258  0.08671451  1
  O  O170  1  0.40795383  0.00950562  0.09010900  1
  O  O171  1  0.90943046  0.00314617  0.08530625  1
  O  O172  1  0.09698114  0.18554195  0.09032522  1
  O  O173  1  0.59142782  0.18022106  0.08591310  1
  O  O174  1  0.35121177  0.17095372  0.75069507  1
  O  O175  1  0.85117496  0.17075180  0.75071780  1
  O  O176  1  0.23223985  0.29297110  0.74985836  1
  O  O177  1  0.73227255  0.29295491  0.74981670  1
  O  O178  1  0.41715079  0.52701349  0.74997446  1
  O  O179  1  0.91720973  0.52711834  0.75001523  1
  O  O180  1  0.35016166  0.52634417  0.24245664  1
  O  O181  1  0.85163067  0.53169185  0.25075334  1
  O  O182  1  0.41430216  0.30263323  0.24273551  1
  O  O183  1  0.91621163  0.30481579  0.25140205  1
  O  O184  1  0.23658243  0.17125475  0.24205288  1
  O  O185  1  0.73218112  0.17445761  0.25152198  1
  O  O186  1  0.33039480  0.51655272  0.92318096  1
  O  O187  1  0.83054589  0.51593271  0.92366159  1
  O  O188  1  0.42824264  0.34182686  0.92107257  1
  O  O189  1  0.92954794  0.34467957  0.92264087  1
  O  O190  1  0.24260738  0.14219832  0.92163351  1
  O  O191  1  0.74262842  0.14280416  0.92210657  1
  O  O192  1  0.33058194  0.14465006  0.42275591  1
  O  O193  1  0.83018850  0.14438296  0.42293795  1
  O  O194  1  0.24226128  0.33918596  0.42264193  1
  O  O195  1  0.74194723  0.34140545  0.42123455  1
  O  O196  1  0.42739392  0.51499654  0.42267747  1
  O  O197  1  0.92907752  0.51480965  0.42103643  1
  O  O198  1  0.18430914  0.50893726  0.07663230  1
  O  O199  1  0.67626326  0.49983152  0.07174118  1
  O  O200  1  0.07391023  0.64372813  0.07135409  1
  O  O201  1  0.56991048  0.63365309  0.07674042  1
  O  O202  1  0.24636516  0.86117830  0.07662039  1
  O  O203  1  0.74846595  0.85021961  0.07071249  1
  O  O204  1  0.17671775  0.85137155  0.57262793  1
  O  O205  1  0.67721260  0.85194849  0.57264943  1
  O  O206  1  0.24917043  0.64884488  0.57138393  1
  O  O207  1  0.74883229  0.64750905  0.57110648  1
  O  O208  1  0.07416625  0.50344044  0.57238210  1
  O  O209  1  0.57475137  0.50244917  0.57230455  1
  O  O210  1  0.15732520  0.84386504  0.25609053  1
  O  O211  1  0.65801066  0.84341514  0.25576148  1
  O  O212  1  0.26296630  0.67636300  0.25472701  1
  O  O213  1  0.76061512  0.67412633  0.25606570  1
  O  O214  1  0.07794534  0.47871142  0.25543252  1
  O  O215  1  0.57793936  0.46857875  0.25731979  1
  O  O216  1  0.15335901  0.46909222  0.75689948  1
  O  O217  1  0.65344964  0.46929454  0.75685360  1
  O  O218  1  0.07986434  0.68676339  0.75726923  1
  O  O219  1  0.57993603  0.68673708  0.75724637  1
  O  O220  1  0.26082919  0.84601324  0.75555407  1
  O  O221  1  0.76086067  0.84598052  0.75557795  1
