# generated using pymatgen
data_Na2Ta3AlSi2(PO6)4
_symmetry_space_group_name_H-M   'P 1'
_cell_length_a   8.69928914
_cell_length_b   8.70121045
_cell_length_c   22.57462159
_cell_angle_alpha   90.04248753
_cell_angle_beta   89.98193516
_cell_angle_gamma   119.98559845
_symmetry_Int_Tables_number   1
_chemical_formula_structural   Na2Ta3AlSi2(PO6)4
_chemical_formula_sum   'Na6 Ta9 Al3 Si6 P12 O72'
_cell_volume   1480.05357331
_cell_formula_units_Z   3
loop_
 _symmetry_equiv_pos_site_id
 _symmetry_equiv_pos_as_xyz
  1  'x, y, z'
loop_
 _atom_site_type_symbol
 _atom_site_label
 _atom_site_symmetry_multiplicity
 _atom_site_fract_x
 _atom_site_fract_y
 _atom_site_fract_z
 _atom_site_occupancy
  Na  Na0  1  0.99704423  0.00085305  0.49208089  1
  Na  Na1  1  0.00184782  0.00129368  0.00091932  1
  Na  Na2  1  0.66811824  0.33361059  0.83106164  1
  Na  Na3  1  0.66599152  0.33258138  0.32606836  1
  Na  Na4  1  0.33343235  0.66370848  0.16534198  1
  Na  Na5  1  0.32976306  0.66408942  0.66648924  1
  Ta  Ta6  1  0.00101530  0.00038445  0.85532636  1
  Ta  Ta7  1  0.99939080  0.00166192  0.64361635  1
  Ta  Ta8  1  0.00148989  0.00214248  0.14623254  1
  Ta  Ta9  1  0.66141376  0.33143114  0.97807126  1
  Ta  Ta10  1  0.67008336  0.32947575  0.47678437  1
  Ta  Ta11  1  0.33334398  0.66359569  0.02380214  1
  Ta  Ta12  1  0.33540099  0.66683138  0.52066365  1
  Ta  Ta13  1  0.33631282  0.67048160  0.30958153  1
  Ta  Ta14  1  0.33286388  0.66630219  0.81140186  1
  Al  Al15  1  0.99686081  0.00057011  0.35155423  1
  Al  Al16  1  0.67012355  0.33548669  0.68704933  1
  Al  Al17  1  0.66587424  0.33523569  0.18798541  1
  Si  Si18  1  0.94886861  0.33804664  0.58747068  1
  Si  Si19  1  0.38792003  0.33500130  0.08878437  1
  Si  Si20  1  0.61840686  0.66640978  0.91663885  1
  Si  Si21  1  0.04655354  0.38201024  0.91670898  1
  Si  Si22  1  0.33435903  0.95099264  0.91724121  1
  Si  Si23  1  0.63453209  0.95428292  0.41448180  1
  P  P24  1  0.28956716  0.01074676  0.25269953  1
  P  P25  1  0.72093413  0.70804707  0.25208418  1
  P  P26  1  0.98830136  0.28141762  0.25199640  1
  P  P27  1  0.29870429  0.28874860  0.74777325  1
  P  P28  1  0.99054425  0.70239537  0.74798413  1
  P  P29  1  0.71061760  0.00860742  0.74828128  1
  P  P30  1  0.38842256  0.05297441  0.58608865  1
  P  P31  1  0.66422769  0.61059105  0.58612135  1
  P  P32  1  0.94637253  0.61228602  0.08748393  1
  P  P33  1  0.66529733  0.05332775  0.08744801  1
  P  P34  1  0.32602927  0.37235097  0.41472822  1
  P  P35  1  0.04819437  0.67616288  0.41472955  1
  O  O36  1  0.19673660  0.03037730  0.30670856  1
  O  O37  1  0.83207182  0.80086191  0.30630820  1
  O  O38  1  0.96748674  0.16875550  0.30599731  1
  O  O39  1  0.20606844  0.17499596  0.80327664  1
  O  O40  1  0.97220187  0.79770961  0.80353662  1
  O  O41  1  0.82561749  0.02977388  0.80349409  1
  O  O42  1  0.80325506  0.97732497  0.69384023  1
  O  O43  1  0.17463349  0.19607261  0.69344301  1
  O  O44  1  0.02257031  0.82429617  0.69357865  1
  O  O45  1  0.79893080  0.82560059  0.19566176  1
  O  O46  1  0.02481215  0.19817246  0.19545928  1
  O  O47  1  0.17128801  0.97438343  0.19607756  1
  O  O48  1  0.85870835  0.36575259  0.64389589  1
  O  O49  1  0.49801999  0.13656336  0.64057557  1
  O  O50  1  0.63302222  0.49988354  0.64077899  1
  O  O51  1  0.86432120  0.50040364  0.14179286  1
  O  O52  1  0.64275860  0.14037130  0.14177920  1
  O  O53  1  0.50625997  0.36246642  0.14508891  1
  O  O54  1  0.46852107  0.30294431  0.02683995  1
  O  O55  1  0.83960058  0.53366733  0.02961077  1
  O  O56  1  0.69868758  0.16133776  0.02947259  1
  O  O57  1  0.46545364  0.16408944  0.52866355  1
  O  O58  1  0.69369865  0.53250209  0.52870165  1
  O  O59  1  0.83179012  0.30430644  0.52622572  1
  O  O60  1  0.53290061  0.70184369  0.97532453  1
  O  O61  1  0.16894343  0.46806597  0.97518613  1
  O  O62  1  0.29868154  0.83237640  0.97596134  1
  O  O63  1  0.53177110  0.83387046  0.47359483  1
  O  O64  1  0.30058814  0.46328207  0.47122015  1
  O  O65  1  0.16117420  0.69532719  0.47120000  1
  O  O66  1  0.13027171  0.63456291  0.36072360  1
  O  O67  1  0.49840480  0.85924102  0.35861317  1
  O  O68  1  0.35870756  0.49437510  0.36076985  1
  O  O69  1  0.13552766  0.50077991  0.85715997  1
  O  O70  1  0.36507747  0.86347369  0.85734286  1
  O  O71  1  0.49884201  0.63358125  0.85722316  1
  O  O72  1  0.03365711  0.84095933  0.40722677  1
  O  O73  1  0.82564464  0.97648141  0.40673381  1
  O  O74  1  0.16585335  0.18974093  0.40704004  1
  O  O75  1  0.02874798  0.18856609  0.90693098  1
  O  O76  1  0.16183389  0.97395452  0.90698144  1
  O  O77  1  0.81262547  0.84054235  0.90709895  1
  O  O78  1  0.97368392  0.16104167  0.59146207  1
  O  O79  1  0.19700855  0.02542928  0.59168702  1
  O  O80  1  0.83147014  0.80019544  0.59214221  1
  O  O81  1  0.96651833  0.80121681  0.09285570  1
  O  O82  1  0.82926968  0.02504297  0.09272394  1
  O  O83  1  0.18504612  0.15908926  0.09238101  1
  O  O84  1  0.69038224  0.17059089  0.74166487  1
  O  O85  1  0.47951872  0.30628271  0.73997110  1
  O  O86  1  0.82460556  0.52208298  0.74248254  1
  O  O87  1  0.69785202  0.52375462  0.24398295  1
  O  O88  1  0.82822405  0.30519379  0.24184613  1
  O  O89  1  0.47572189  0.16725606  0.24399042  1
  O  O90  1  0.64290964  0.49561823  0.92357876  1
  O  O91  1  0.85356785  0.35980192  0.92405040  1
  O  O92  1  0.50880148  0.14491306  0.92286741  1
  O  O93  1  0.64001194  0.14645367  0.42292573  1
  O  O94  1  0.49823811  0.36405843  0.42426680  1
  O  O95  1  0.86147903  0.50817558  0.42399048  1
  O  O96  1  0.35862108  0.50697384  0.08009492  1
  O  O97  1  0.13690472  0.64156932  0.07972792  1
  O  O98  1  0.49956610  0.86605373  0.07983421  1
  O  O99  1  0.36383889  0.86451949  0.57642839  1
  O  O100  1  0.50225256  0.63953081  0.57702074  1
  O  O101  1  0.14892767  0.50737212  0.57589376  1
  O  O102  1  0.30147288  0.83424672  0.25768501  1
  O  O103  1  0.52908461  0.68939113  0.25799892  1
  O  O104  1  0.16134116  0.46931588  0.25771097  1
  O  O105  1  0.30954299  0.47202371  0.75271109  1
  O  O106  1  0.16254548  0.68966681  0.75321768  1
  O  O107  1  0.52760188  0.83536700  0.75289289  1
