# generated using pymatgen
data_Na7Ca2SiGe2P5O24
_symmetry_space_group_name_H-M   'P 1'
_cell_length_a   9.11505593
_cell_length_b   9.12586931
_cell_length_c   21.87812799
_cell_angle_alpha   89.89143478
_cell_angle_beta   90.05805613
_cell_angle_gamma   119.77369957
_symmetry_Int_Tables_number   1
_chemical_formula_structural   Na7Ca2SiGe2P5O24
_chemical_formula_sum   'Na21 Ca6 Si3 Ge6 P15 O72'
_cell_volume   1579.64474485
_cell_formula_units_Z   3
loop_
 _symmetry_equiv_pos_site_id
 _symmetry_equiv_pos_as_xyz
  1  'x, y, z'
loop_
 _atom_site_type_symbol
 _atom_site_label
 _atom_site_symmetry_multiplicity
 _atom_site_fract_x
 _atom_site_fract_y
 _atom_site_fract_z
 _atom_site_occupancy
  Na  Na0  1  0.35383179  0.36175112  0.25338060  1
  Na  Na1  1  0.01092659  0.64292131  0.25248162  1
  Na  Na2  1  0.63245066  0.64748388  0.75026330  1
  Na  Na3  1  0.00613042  0.36556240  0.75346925  1
  Na  Na4  1  0.35362509  0.98889275  0.75202992  1
  Na  Na5  1  0.29867531  0.31484327  0.58184376  1
  Na  Na6  1  0.02082721  0.69745325  0.58449919  1
  Na  Na7  1  0.67603712  0.97595863  0.58873729  1
  Na  Na8  1  0.30218609  0.98022434  0.08512493  1
  Na  Na9  1  0.68474382  0.70225575  0.08296822  1
  Na  Na10  1  0.02120096  0.32574501  0.08624675  1
  Na  Na11  1  0.96712341  0.65895580  0.92260476  1
  Na  Na12  1  0.69005254  0.03296593  0.91885459  1
  Na  Na13  1  0.96914932  0.31215878  0.41859527  1
  Na  Na14  1  0.34333811  0.03202140  0.42149767  1
  Na  Na15  1  0.99703671  0.98632145  0.50102174  1
  Na  Na16  1  0.01354394  0.00267312  0.00097509  1
  Na  Na17  1  0.65076408  0.33588931  0.83535509  1
  Na  Na18  1  0.66365644  0.33369105  0.33420818  1
  Na  Na19  1  0.35298948  0.68600723  0.16849639  1
  Na  Na20  1  0.34148630  0.67425458  0.66825128  1
  Ca  Ca21  1  0.00090601  0.99968938  0.65056228  1
  Ca  Ca22  1  0.99559659  0.99721181  0.15129223  1
  Ca  Ca23  1  0.66060184  0.33450377  0.98073645  1
  Ca  Ca24  1  0.66491637  0.33803136  0.47899322  1
  Ca  Ca25  1  0.34359079  0.67412439  0.31398094  1
  Ca  Ca26  1  0.33298673  0.66514912  0.81773731  1
  Si  Si27  1  0.70700468  0.01356753  0.74772787  1
  Si  Si28  1  0.37301180  0.02588392  0.57863199  1
  Si  Si29  1  0.97312366  0.62585141  0.08007120  1
  Ge  Ge30  1  0.99107394  0.99332050  0.35079521  1
  Ge  Ge31  1  0.00122929  0.00933626  0.85060210  1
  Ge  Ge32  1  0.65908639  0.31737934  0.68364997  1
  Ge  Ge33  1  0.67712385  0.33479110  0.18436867  1
  Ge  Ge34  1  0.32635236  0.65910777  0.01776152  1
  Ge  Ge35  1  0.34327371  0.67453458  0.51792627  1
  P  P36  1  0.30846805  0.02006418  0.24864462  1
  P  P37  1  0.71134079  0.69109389  0.24747674  1
  P  P38  1  0.97857222  0.28643151  0.24995301  1
  P  P39  1  0.30376687  0.28724250  0.74880770  1
  P  P40  1  0.98177108  0.69453116  0.75101027  1
  P  P41  1  0.97234085  0.35057226  0.58166959  1
  P  P42  1  0.65153541  0.61739760  0.58552543  1
  P  P43  1  0.65004061  0.03124364  0.08161138  1
  P  P44  1  0.37962639  0.34922561  0.08606911  1
  P  P45  1  0.63996066  0.68556334  0.91530511  1
  P  P46  1  0.04439629  0.35565878  0.91565030  1
  P  P47  1  0.31289531  0.95574876  0.91433631  1
  P  P48  1  0.64368213  0.95522022  0.41708236  1
  P  P49  1  0.31396880  0.36084117  0.41435336  1
  P  P50  1  0.04736583  0.68589637  0.41333048  1
  O  O51  1  0.21036566  0.04681580  0.30573861  1
  O  O52  1  0.83794194  0.79421923  0.30226052  1
  O  O53  1  0.96018919  0.17126443  0.30817972  1
  O  O54  1  0.20594180  0.16075625  0.80371657  1
  O  O55  1  0.96044485  0.79433709  0.80769790  1
  O  O56  1  0.84290100  0.04657343  0.80812959  1
  O  O57  1  0.77700943  0.98162450  0.68629912  1
  O  O58  1  0.21347729  0.22266480  0.68864027  1
  O  O59  1  0.01767296  0.79393219  0.69217591  1
  O  O60  1  0.77755572  0.77517992  0.18664343  1
  O  O61  1  0.00723896  0.21848872  0.19126813  1
  O  O62  1  0.21527333  0.00248642  0.18961953  1
  O  O63  1  0.88012343  0.37672576  0.63978093  1
  O  O64  1  0.50410946  0.12641006  0.64004526  1
  O  O65  1  0.62336619  0.50244463  0.64524399  1
  O  O66  1  0.87266678  0.49122357  0.14095313  1
  O  O67  1  0.61997849  0.12739631  0.13711525  1
  O  O68  1  0.49578366  0.37824341  0.14514288  1
  O  O69  1  0.44878200  0.30466566  0.03152183  1
  O  O70  1  0.86787027  0.55296767  0.01945634  1
  O  O71  1  0.67607097  0.12427572  0.02203526  1
  O  O72  1  0.44707172  0.13153707  0.51818473  1
  O  O73  1  0.68855655  0.54281136  0.53091298  1
  O  O74  1  0.87311428  0.32621423  0.52378744  1
  O  O75  1  0.53917914  0.70466057  0.97309402  1
  O  O76  1  0.15788819  0.45160986  0.97416817  1
  O  O77  1  0.28593415  0.83199669  0.97159196  1
  O  O78  1  0.55898661  0.84661672  0.47798154  1
  O  O79  1  0.29480051  0.45916453  0.47289034  1
  O  O80  1  0.17037205  0.71589916  0.47087005  1
  O  O81  1  0.12301282  0.66705106  0.35472550  1
  O  O82  1  0.53014950  0.87976937  0.36314422  1
  O  O83  1  0.32167567  0.44896967  0.35541958  1
  O  O84  1  0.11345681  0.45325545  0.85719851  1
  O  O85  1  0.33054874  0.88064828  0.85544354  1
  O  O86  1  0.55463508  0.67635940  0.85553180  1
  O  O87  1  0.04090421  0.85829199  0.41075869  1
  O  O88  1  0.82052852  0.96039943  0.41079782  1
  O  O89  1  0.14058883  0.18266258  0.41566529  1
  O  O90  1  0.03875721  0.17922473  0.91326883  1
  O  O91  1  0.14068557  0.96072350  0.91258065  1
  O  O92  1  0.81662263  0.85835022  0.91703154  1
  O  O93  1  0.00332246  0.20168408  0.58820845  1
  O  O94  1  0.18202532  0.98834158  0.58533048  1
  O  O95  1  0.79497678  0.79843566  0.59164791  1
  O  O96  1  0.01060121  0.81675014  0.08716195  1
  O  O97  1  0.80036665  0.00317394  0.09024072  1
  O  O98  1  0.19585839  0.21121970  0.09374006  1
  O  O99  1  0.70756221  0.20033805  0.74429406  1
  O  O100  1  0.48051524  0.29243672  0.74733668  1
  O  O101  1  0.80803356  0.52326658  0.74852377  1
  O  O102  1  0.71090064  0.51522497  0.24821728  1
  O  O103  1  0.80884595  0.29497825  0.24701350  1
  O  O104  1  0.48495059  0.19088462  0.24761832  1
  O  O105  1  0.67175947  0.53763261  0.91984551  1
  O  O106  1  0.86372178  0.32376823  0.92247776  1
  O  O107  1  0.46758475  0.12862965  0.92159235  1
  O  O108  1  0.68117288  0.13771285  0.42276566  1
  O  O109  1  0.46142029  0.32786677  0.41809333  1
  O  O110  1  0.87379813  0.53283810  0.42111499  1
  O  O111  1  0.38498521  0.52668808  0.07869687  1
  O  O112  1  0.16133261  0.62707536  0.07660736  1
  O  O113  1  0.48030119  0.85290334  0.07934382  1
  O  O114  1  0.37313962  0.83908788  0.57616258  1
  O  O115  1  0.47576494  0.61599961  0.57963947  1
  O  O116  1  0.14975060  0.52193681  0.57895428  1
  O  O117  1  0.32652538  0.86415120  0.25507056  1
  O  O118  1  0.53020578  0.65338686  0.25519219  1
  O  O119  1  0.12725339  0.46639672  0.25745980  1
  O  O120  1  0.33196382  0.46519651  0.75742198  1
  O  O121  1  0.12664776  0.65723485  0.75871659  1
  O  O122  1  0.51643052  0.86057123  0.75489850  1
