# generated using pymatgen
data_Na6ZnSi4Ge3(SO12)2
_symmetry_space_group_name_H-M   'P 1'
_cell_length_a   8.82427750
_cell_length_b   8.81050824
_cell_length_c   21.87895015
_cell_angle_alpha   91.20093171
_cell_angle_beta   89.76060215
_cell_angle_gamma   120.27125781
_symmetry_Int_Tables_number   1
_chemical_formula_structural   Na6ZnSi4Ge3(SO12)2
_chemical_formula_sum   'Na18 Zn3 Si12 Ge9 S6 O72'
_cell_volume   1468.71101210
_cell_formula_units_Z   3
loop_
 _symmetry_equiv_pos_site_id
 _symmetry_equiv_pos_as_xyz
  1  'x, y, z'
loop_
 _atom_site_type_symbol
 _atom_site_label
 _atom_site_symmetry_multiplicity
 _atom_site_fract_x
 _atom_site_fract_y
 _atom_site_fract_z
 _atom_site_occupancy
  Na  Na0  1  0.99143841  0.36018314  0.75238586  1
  Na  Na1  1  0.38648213  0.01275836  0.75059157  1
  Na  Na2  1  0.31142099  0.33533553  0.58516778  1
  Na  Na3  1  0.02925431  0.69873655  0.57879057  1
  Na  Na4  1  0.66010084  0.96643229  0.58783923  1
  Na  Na5  1  0.31084193  0.97302007  0.08460899  1
  Na  Na6  1  0.66004071  0.68732640  0.08514901  1
  Na  Na7  1  0.02700941  0.33675378  0.08476298  1
  Na  Na8  1  0.33601323  0.30009405  0.92095044  1
  Na  Na9  1  0.96465292  0.29075452  0.41364555  1
  Na  Na10  1  0.32384218  0.03450019  0.41407063  1
  Na  Na11  1  0.71239862  0.67816090  0.41435691  1
  Na  Na12  1  0.00026265  0.99717685  0.49471279  1
  Na  Na13  1  0.99519970  0.99425953  0.99777829  1
  Na  Na14  1  0.66710103  0.32886443  0.83355621  1
  Na  Na15  1  0.66732155  0.33382957  0.32654667  1
  Na  Na16  1  0.33391049  0.66727846  0.16751991  1
  Na  Na17  1  0.35478637  0.67117503  0.66879634  1
  Zn  Zn18  1  0.00130113  0.99895134  0.35514026  1
  Zn  Zn19  1  0.63925892  0.32317981  0.68630338  1
  Zn  Zn20  1  0.66416669  0.33310408  0.17479711  1
  Si  Si21  1  0.29017753  0.29507029  0.75187178  1
  Si  Si22  1  0.71262666  0.99142362  0.75320883  1
  Si  Si23  1  0.37324408  0.03789231  0.58305507  1
  Si  Si24  1  0.66493619  0.62505887  0.58365745  1
  Si  Si25  1  0.95109768  0.61673822  0.08383441  1
  Si  Si26  1  0.66198843  0.03569838  0.08448268  1
  Si  Si27  1  0.37979004  0.33956650  0.08223520  1
  Si  Si28  1  0.03959441  0.38640466  0.91580055  1
  Si  Si29  1  0.33060576  0.95245863  0.91598702  1
  Si  Si30  1  0.62057906  0.96017619  0.41690974  1
  Si  Si31  1  0.33486266  0.38602967  0.41723814  1
  Si  Si32  1  0.04379848  0.65867149  0.41849080  1
  Ge  Ge33  1  0.01485400  0.02673478  0.85573758  1
  Ge  Ge34  1  0.99553664  0.99390997  0.65043488  1
  Ge  Ge35  1  0.00262758  0.00169698  0.14244144  1
  Ge  Ge36  1  0.67209425  0.31349923  0.98376764  1
  Ge  Ge37  1  0.65226209  0.33943912  0.47614199  1
  Ge  Ge38  1  0.31697694  0.66548048  0.02050186  1
  Ge  Ge39  1  0.34851930  0.68066994  0.51516797  1
  Ge  Ge40  1  0.33133064  0.66460588  0.32066191  1
  Ge  Ge41  1  0.34338206  0.66824953  0.81611224  1
  S  S42  1  0.29181653  0.99491480  0.25111201  1
  S  S43  1  0.70212313  0.70764055  0.25101412  1
  S  S44  1  0.00568989  0.29725607  0.25163856  1
  S  S45  1  0.99894997  0.71304206  0.75111692  1
  S  S46  1  0.95860583  0.33357969  0.58375104  1
  S  S47  1  0.62871410  0.67145294  0.91590016  1
  O  O48  1  0.20800602  0.01513865  0.30625806  1
  O  O49  1  0.80578665  0.79381941  0.30634857  1
  O  O50  1  0.98795014  0.19543439  0.30579455  1
  O  O51  1  0.20130575  0.16630400  0.81056101  1
  O  O52  1  0.97514588  0.79948385  0.80510393  1
  O  O53  1  0.84413360  0.02218981  0.81050627  1
  O  O54  1  0.79583813  0.95915180  0.68820445  1
  O  O55  1  0.15841680  0.20313962  0.68994463  1
  O  O56  1  0.03426977  0.82243344  0.69320322  1
  O  O57  1  0.78547787  0.81690071  0.19417618  1
  O  O58  1  0.03249155  0.21259221  0.19341798  1
  O  O59  1  0.18056335  0.96732580  0.19335988  1
  O  O60  1  0.88445974  0.36351184  0.63936185  1
  O  O61  1  0.49421631  0.09849163  0.64278068  1
  O  O62  1  0.62168702  0.50240251  0.64036255  1
  O  O63  1  0.89167246  0.50016259  0.14284370  1
  O  O64  1  0.60256039  0.10049027  0.14292092  1
  O  O65  1  0.49817248  0.39395904  0.14176283  1
  O  O66  1  0.46046520  0.28891463  0.02117356  1
  O  O67  1  0.81718354  0.53262429  0.02410741  1
  O  O68  1  0.72125253  0.16732052  0.02545615  1
  O  O69  1  0.45818643  0.16963031  0.52326467  1
  O  O70  1  0.71329273  0.54415836  0.52139249  1
  O  O71  1  0.84848246  0.30192385  0.52820816  1
  O  O72  1  0.55131921  0.70142706  0.97164643  1
  O  O73  1  0.17422252  0.46827327  0.97456137  1
  O  O74  1  0.30057185  0.83540923  0.97630744  1
  O  O75  1  0.54357593  0.83905181  0.47767362  1
  O  O76  1  0.29707895  0.47117858  0.47895993  1
  O  O77  1  0.16840570  0.69535097  0.47882288  1
  O  O78  1  0.12766903  0.61203052  0.35814701  1
  O  O79  1  0.48342968  0.87316406  0.35834735  1
  O  O80  1  0.38505475  0.51718958  0.35862657  1
  O  O81  1  0.13478666  0.50254737  0.85456246  1
  O  O82  1  0.36567098  0.86554610  0.85407591  1
  O  O83  1  0.50980161  0.63361405  0.86076627  1
  O  O84  1  0.02272682  0.82849607  0.41440943  1
  O  O85  1  0.81121729  0.98242729  0.41215976  1
  O  O86  1  0.16789982  0.19252930  0.41385248  1
  O  O87  1  0.02821129  0.19031182  0.91254283  1
  O  O88  1  0.15295897  0.97530758  0.90873527  1
  O  O89  1  0.80369426  0.82877939  0.90925088  1
  O  O90  1  0.97630249  0.17194853  0.58552485  1
  O  O91  1  0.17603533  0.02115472  0.59133748  1
  O  O92  1  0.84539728  0.82585852  0.58866923  1
  O  O93  1  0.97695965  0.81915646  0.09138625  1
  O  O94  1  0.84048718  0.01665110  0.09279629  1
  O  O95  1  0.17932316  0.15881845  0.09054145  1
  O  O96  1  0.70187751  0.16857695  0.74982263  1
  O  O97  1  0.47664753  0.30867077  0.75127020  1
  O  O98  1  0.84952123  0.53694490  0.74451252  1
  O  O99  1  0.68329831  0.53330566  0.24620297  1
  O  O100  1  0.85129608  0.31606193  0.24652741  1
  O  O101  1  0.46572756  0.15117833  0.24678468  1
  O  O102  1  0.63830175  0.50976852  0.91839450  1
  O  O103  1  0.84589874  0.36533662  0.92320005  1
  O  O104  1  0.50354244  0.15478457  0.92270840  1
  O  O105  1  0.63448034  0.15341179  0.42568601  1
  O  O106  1  0.51425809  0.37104699  0.42068775  1
  O  O107  1  0.85003144  0.47793476  0.42445664  1
  O  O108  1  0.34874386  0.50674664  0.07107241  1
  O  O109  1  0.15260730  0.65216150  0.07477605  1
  O  O110  1  0.49586023  0.83677795  0.07017547  1
  O  O111  1  0.34215508  0.83569769  0.57414309  1
  O  O112  1  0.49010247  0.64792458  0.57493702  1
  O  O113  1  0.13785810  0.49057052  0.57894440  1
  O  O114  1  0.30039427  0.82744151  0.25262854  1
  O  O115  1  0.52449635  0.69762929  0.25344022  1
  O  O116  1  0.17515630  0.47571590  0.25351106  1
  O  O117  1  0.29321757  0.48489905  0.75781473  1
  O  O118  1  0.16420612  0.70346864  0.75283652  1
  O  O119  1  0.51154992  0.81764983  0.75817309  1
