# generated using pymatgen
data_MgAl2(CoO3)2
_symmetry_space_group_name_H-M   'P 1'
_cell_length_a   4.98936095
_cell_length_b   5.72125969
_cell_length_c   4.98769130
_cell_angle_alpha   89.73890872
_cell_angle_beta   59.96215198
_cell_angle_gamma   115.28654333
_symmetry_Int_Tables_number   1
_chemical_formula_structural   MgAl2(CoO3)2
_chemical_formula_sum   'Mg1 Al2 Co2 O6'
_cell_volume   107.01934428
_cell_formula_units_Z   1
loop_
 _symmetry_equiv_pos_site_id
 _symmetry_equiv_pos_as_xyz
  1  'x, y, z'
loop_
 _atom_site_type_symbol
 _atom_site_label
 _atom_site_symmetry_multiplicity
 _atom_site_fract_x
 _atom_site_fract_y
 _atom_site_fract_z
 _atom_site_occupancy
  Mg  Mg0  1  0.99993700  0.49993900  0.49910500  1
  Al  Al1  1  0.29825100  0.44956000  0.84970800  1
  Al  Al2  1  0.70145500  0.55042600  0.14869100  1
  Co  Co3  1  0.33753200  0.00774900  0.33112600  1
  Co  Co4  1  0.66300600  0.99219000  0.66606600  1
  O  O5  1  0.78935400  0.71702600  0.76552500  1
  O  O6  1  0.84129000  0.28372500  0.92559400  1
  O  O7  1  0.48190500  0.71659100  0.44076700  1
  O  O8  1  0.51822300  0.28429100  0.55639100  1
  O  O9  1  0.15864700  0.71579500  0.07207700  1
  O  O10  1  0.21040400  0.28270700  0.23245000  1
