# generated using pymatgen
data_Na6Zr6Zn2Si5S7O48
_symmetry_space_group_name_H-M   'P 1'
_cell_length_a   18.01896921
_cell_length_b   9.05753601
_cell_length_c   23.46406419
_cell_angle_alpha   90.00925303
_cell_angle_beta   89.80567969
_cell_angle_gamma   120.18875684
_symmetry_Int_Tables_number   1
_chemical_formula_structural   Na6Zr6Zn2Si5S7O48
_chemical_formula_sum   'Na18 Zr18 Zn6 Si15 S21 O144'
_cell_volume   3310.10294407
_cell_formula_units_Z   3
loop_
 _symmetry_equiv_pos_site_id
 _symmetry_equiv_pos_as_xyz
  1  'x, y, z'
loop_
 _atom_site_type_symbol
 _atom_site_label
 _atom_site_symmetry_multiplicity
 _atom_site_fract_x
 _atom_site_fract_y
 _atom_site_fract_z
 _atom_site_occupancy
  Na  Na0  1  0.65484840  0.34809743  0.58106692  1
  Na  Na1  1  0.52179598  0.69044268  0.58388136  1
  Na  Na2  1  0.82254697  0.95353320  0.58222702  1
  Na  Na3  1  0.15353006  0.95876934  0.08406585  1
  Na  Na4  1  0.32228299  0.69282221  0.08496912  1
  Na  Na5  1  0.02177955  0.35432888  0.08677283  1
  Na  Na6  1  0.00618466  0.99414221  0.49453024  1
  Na  Na7  1  0.49423984  0.00605540  0.49957977  1
  Na  Na8  1  0.99567148  0.98387600  0.00213540  1
  Na  Na9  1  0.50402568  0.00851498  0.99962778  1
  Na  Na10  1  0.32797702  0.32270256  0.81864474  1
  Na  Na11  1  0.82851686  0.32994794  0.83174352  1
  Na  Na12  1  0.32606417  0.32499636  0.33312513  1
  Na  Na13  1  0.83508432  0.34237553  0.32291925  1
  Na  Na14  1  0.16389941  0.66445069  0.16136438  1
  Na  Na15  1  0.67231318  0.67617780  0.17129542  1
  Na  Na16  1  0.17211998  0.66722424  0.66602615  1
  Na  Na17  1  0.66491947  0.66426360  0.65579757  1
  Zr  Zr18  1  0.00022963  0.99092176  0.35517645  1
  Zr  Zr19  1  0.50237490  0.99886105  0.35170381  1
  Zr  Zr20  1  0.00312495  0.00539424  0.85151904  1
  Zr  Zr21  1  0.49976201  0.99813447  0.85086077  1
  Zr  Zr22  1  0.00534786  0.00454773  0.64725334  1
  Zr  Zr23  1  0.49310549  0.00355523  0.64492141  1
  Zr  Zr24  1  0.99463534  0.98453616  0.14822146  1
  Zr  Zr25  1  0.50357941  0.00609854  0.15003070  1
  Zr  Zr26  1  0.32887296  0.31853683  0.98501781  1
  Zr  Zr27  1  0.83280266  0.34660750  0.97785762  1
  Zr  Zr28  1  0.33210223  0.31821650  0.47722649  1
  Zr  Zr29  1  0.83302864  0.34855775  0.48262742  1
  Zr  Zr30  1  0.67207555  0.67910437  0.01527481  1
  Zr  Zr31  1  0.16756060  0.66777758  0.51138812  1
  Zr  Zr32  1  0.16512717  0.66216422  0.31943860  1
  Zr  Zr33  1  0.67155649  0.67998828  0.30996708  1
  Zr  Zr34  1  0.17052877  0.66312951  0.80875185  1
  Zr  Zr35  1  0.67248411  0.67851745  0.81575304  1
  Zn  Zn36  1  0.33540403  0.31679940  0.68966396  1
  Zn  Zn37  1  0.82211630  0.32929480  0.67140103  1
  Zn  Zn38  1  0.31990441  0.31111804  0.17632013  1
  Zn  Zn39  1  0.83809715  0.35487002  0.19209591  1
  Zn  Zn40  1  0.16548490  0.66882755  0.02708154  1
  Zn  Zn41  1  0.66620863  0.66438971  0.52603228  1
  Si  Si42  1  0.65190275  0.01038593  0.24857860  1
  Si  Si43  1  0.85445410  0.70366633  0.25154827  1
  Si  Si44  1  0.15162637  0.29245637  0.74856708  1
  Si  Si45  1  0.35516148  0.00898025  0.75140176  1
  Si  Si46  1  0.47512873  0.33780553  0.58599787  1
  Si  Si47  1  0.68801722  0.03950747  0.58485830  1
  Si  Si48  1  0.83532011  0.63086484  0.58620355  1
  Si  Si49  1  0.97488966  0.61521296  0.08607425  1
  Si  Si50  1  0.33648857  0.04100461  0.08537570  1
  Si  Si51  1  0.18651030  0.33597476  0.08595986  1
  Si  Si52  1  0.81583846  0.67164084  0.91500965  1
  Si  Si53  1  0.66551320  0.96203349  0.91692331  1
  Si  Si54  1  0.31550740  0.95849789  0.41458816  1
  Si  Si55  1  0.16655864  0.37235694  0.41667364  1
  Si  Si56  1  0.01708373  0.66066031  0.41676624  1
  S  S57  1  0.14873663  0.00196857  0.24969911  1
  S  S58  1  0.35399522  0.70395841  0.24893776  1
  S  S59  1  0.00167454  0.29239238  0.24925771  1
  S  S60  1  0.49688972  0.29128670  0.25113823  1
  S  S61  1  0.64763654  0.29407663  0.75024697  1
  S  S62  1  0.99691526  0.70378082  0.75095762  1
  S  S63  1  0.50117516  0.70828408  0.74953014  1
  S  S64  1  0.85522821  0.00537743  0.74930929  1
  S  S65  1  0.98020984  0.33755042  0.58581453  1
  S  S66  1  0.18876186  0.03890052  0.58480388  1
  S  S67  1  0.32964357  0.61735296  0.58494626  1
  S  S68  1  0.47973290  0.62242441  0.08483635  1
  S  S69  1  0.83106743  0.04337437  0.08439124  1
  S  S70  1  0.68718545  0.33585404  0.08383298  1
  S  S71  1  0.31219939  0.66509073  0.91808894  1
  S  S72  1  0.02254474  0.37708067  0.91767205  1
  S  S73  1  0.52077228  0.37655505  0.91621969  1
  S  S74  1  0.16706956  0.95632785  0.91700239  1
  S  S75  1  0.81070415  0.95757186  0.41872913  1
  S  S76  1  0.66561692  0.37728312  0.41705613  1
  S  S77  1  0.52257908  0.66776358  0.41783935  1
  O  O78  1  0.10391609  0.01888362  0.30045845  1
  O  O79  1  0.59805909  0.02467883  0.30365987  1
  O  O80  1  0.40767964  0.79918014  0.29929051  1
  O  O81  1  0.91301416  0.81199248  0.30549347  1
  O  O82  1  0.48682992  0.18340362  0.30180392  1
  O  O83  1  0.99632959  0.18789729  0.29953350  1
  O  O84  1  0.09849014  0.17224904  0.80445254  1
  O  O85  1  0.60196771  0.18618386  0.80151973  1
  O  O86  1  0.49579186  0.80407412  0.80074109  1
  O  O87  1  0.98721667  0.79195898  0.80219784  1
  O  O88  1  0.41334582  0.01758072  0.80692684  1
  O  O89  1  0.90734833  0.01498311  0.80027575  1
  O  O90  1  0.39916274  0.97034137  0.69631742  1
  O  O91  1  0.89423084  0.97758118  0.69709357  1
  O  O92  1  0.08617585  0.19758709  0.69473967  1
  O  O93  1  0.59588741  0.21170552  0.69815389  1
  O  O94  1  0.01093511  0.81283216  0.69965692  1
  O  O95  1  0.51547368  0.81284358  0.69756279  1
  O  O96  1  0.39581672  0.81171214  0.19609574  1
  O  O97  1  0.89685679  0.82494893  0.19462506  1
  O  O98  1  0.01354437  0.21274562  0.19577004  1
  O  O99  1  0.51084008  0.20952550  0.19927879  1
  O  O100  1  0.09691076  0.98301410  0.19690293  1
  O  O101  1  0.58654109  0.97452402  0.19372008  1
  O  O102  1  0.43395910  0.38012824  0.63964974  1
  O  O103  1  0.94207576  0.35939490  0.63766556  1
  O  O104  1  0.23785819  0.11792770  0.63571074  1
  O  O105  1  0.74927540  0.11163087  0.64015887  1
  O  O106  1  0.31807374  0.52069141  0.63650575  1
  O  O107  1  0.81697477  0.51651231  0.64229196  1
  O  O108  1  0.44240364  0.52400561  0.13616862  1
  O  O109  1  0.93225771  0.48527661  0.13815824  1
  O  O110  1  0.31848582  0.12316649  0.14007271  1
  O  O111  1  0.81650059  0.11198766  0.13557352  1
  O  O112  1  0.25094431  0.38558655  0.13885255  1
  O  O113  1  0.73728512  0.36222302  0.13442451  1
  O  O114  1  0.23237528  0.29713761  0.02925435  1
  O  O115  1  0.72496891  0.30730588  0.03092026  1
  O  O116  1  0.42596440  0.54344046  0.03231639  1
  O  O117  1  0.91731038  0.53018123  0.02740836  1
  O  O118  1  0.35269246  0.16382270  0.02759217  1
  O  O119  1  0.84252097  0.14427631  0.03178028  1
  O  O120  1  0.22550527  0.14161206  0.53192520  1
  O  O121  1  0.73245047  0.16821425  0.52938604  1
  O  O122  1  0.34313567  0.54130834  0.53274536  1
  O  O123  1  0.85267535  0.54379400  0.52921103  1
  O  O124  1  0.41736632  0.30692743  0.52818301  1
  O  O125  1  0.92657234  0.30722689  0.53401210  1
  O  O126  1  0.27533056  0.69152469  0.96972633  1
  O  O127  1  0.76716517  0.69137787  0.97132780  1
  O  O128  1  0.07219909  0.44846155  0.96958137  1
  O  O129  1  0.57271681  0.45660283  0.96812893  1
  O  O130  1  0.15523957  0.86112444  0.96963518  1
  O  O131  1  0.65052000  0.83767394  0.97221423  1
  O  O132  1  0.27159015  0.84595205  0.47213963  1
  O  O133  1  0.77344251  0.85445700  0.46999953  1
  O  O134  1  0.15206052  0.46212192  0.47298716  1
  O  O135  1  0.65358385  0.44888189  0.46967745  1
  O  O136  1  0.07677312  0.69162304  0.47313473  1
  O  O137  1  0.57208474  0.69542394  0.46968588  1
  O  O138  1  0.06481648  0.63978195  0.36051574  1
  O  O139  1  0.56326709  0.64288790  0.36654392  1
  O  O140  1  0.25578236  0.86876179  0.35899496  1
  O  O141  1  0.75694407  0.87081048  0.36693124  1
  O  O142  1  0.18203550  0.49218450  0.36053274  1
  O  O143  1  0.67506060  0.48176358  0.36609564  1
  O  O144  1  0.06327708  0.48386649  0.86655354  1
  O  O145  1  0.56311436  0.47984710  0.86473757  1
  O  O146  1  0.17679754  0.87184483  0.86603848  1
  O  O147  1  0.67643422  0.86255896  0.86135492  1
  O  O148  1  0.25834012  0.64215241  0.86664512  1
  O  O149  1  0.75427162  0.64290357  0.85989656  1
  O  O150  1  0.00800906  0.83136851  0.41116894  1
  O  O151  1  0.51189605  0.82122889  0.40890012  1
  O  O152  1  0.41101183  0.98017234  0.40801043  1
  O  O153  1  0.89788337  0.97934472  0.40967720  1
  O  O154  1  0.08104027  0.18590131  0.40897722  1
  O  O155  1  0.58835614  0.20150932  0.40924568  1
  O  O156  1  0.01155612  0.20213030  0.90860006  1
  O  O157  1  0.51178224  0.20424769  0.91095484  1
  O  O158  1  0.09025231  0.97883545  0.90952034  1
  O  O159  1  0.58049074  0.98104787  0.91010281  1
  O  O160  1  0.39959421  0.82013646  0.90907621  1
  O  O161  1  0.90988830  0.84189305  0.90883190  1
  O  O162  1  0.48916013  0.16774071  0.59080379  1
  O  O163  1  0.98560967  0.17476316  0.59020328  1
  O  O164  1  0.09959415  0.01868799  0.58928429  1
  O  O165  1  0.59174204  0.02136377  0.59251347  1
  O  O166  1  0.41291842  0.79246840  0.58869669  1
  O  O167  1  0.91890571  0.82795482  0.59190392  1
  O  O168  1  0.48641418  0.79587485  0.08819895  1
  O  O169  1  0.98953899  0.81273329  0.09108724  1
  O  O170  1  0.41991894  0.01035932  0.08960041  1
  O  O171  1  0.91212894  0.03150411  0.08757367  1
  O  O172  1  0.09107046  0.16210403  0.09068942  1
  O  O173  1  0.59875339  0.17864906  0.08836718  1
  O  O174  1  0.34707259  0.17466403  0.74958523  1
  O  O175  1  0.84771955  0.15699549  0.74671852  1
  O  O176  1  0.24557285  0.32090329  0.74254190  1
  O  O177  1  0.73266719  0.31152955  0.74802508  1
  O  O178  1  0.42361504  0.54322320  0.74836718  1
  O  O179  1  0.92232974  0.53425216  0.74608427  1
  O  O180  1  0.34930972  0.53908392  0.24531866  1
  O  O181  1  0.84558085  0.51910126  0.24944350  1
  O  O182  1  0.42221027  0.31095053  0.24514849  1
  O  O183  1  0.92450483  0.30424139  0.24631253  1
  O  O184  1  0.23380988  0.15713405  0.24649657  1
  O  O185  1  0.74548594  0.16927442  0.24161917  1
  O  O186  1  0.32364934  0.51335793  0.92195058  1
  O  O187  1  0.82301318  0.49956535  0.92047832  1
  O  O188  1  0.43533894  0.36121943  0.92173423  1
  O  O189  1  0.93413245  0.35232437  0.92210676  1
  O  O190  1  0.24547798  0.13288809  0.92023624  1
  O  O191  1  0.75220128  0.14486703  0.92468106  1
  O  O192  1  0.32463120  0.14758599  0.42068235  1
  O  O193  1  0.81910170  0.12809735  0.42247683  1
  O  O194  1  0.25225594  0.35736796  0.42533594  1
  O  O195  1  0.74308783  0.35699962  0.42011812  1
  O  O196  1  0.43430306  0.51588340  0.42203573  1
  O  O197  1  0.92351889  0.48751510  0.42260285  1
  O  O198  1  0.17452424  0.49880184  0.07547828  1
  O  O199  1  0.67353621  0.48485022  0.07454236  1
  O  O200  1  0.07245585  0.64983381  0.07749575  1
  O  O201  1  0.56704066  0.64578665  0.07573202  1
  O  O202  1  0.25216032  0.85461200  0.07581807  1
  O  O203  1  0.75608566  0.86240607  0.07641728  1
  O  O204  1  0.17659736  0.86468655  0.57830626  1
  O  O205  1  0.67355422  0.84953924  0.57593222  1
  O  O206  1  0.25642509  0.64963194  0.57827617  1
  O  O207  1  0.75144514  0.65050889  0.57701629  1
  O  O208  1  0.06813319  0.48601710  0.57864168  1
  O  O209  1  0.57298321  0.49669507  0.57772503  1
  O  O210  1  0.15442580  0.84455626  0.25332809  1
  O  O211  1  0.65041501  0.82614255  0.25811871  1
  O  O212  1  0.26887516  0.69170969  0.25296041  1
  O  O213  1  0.75822569  0.68693837  0.25788379  1
  O  O214  1  0.08105763  0.46580451  0.25294730  1
  O  O215  1  0.57743958  0.46027642  0.25748078  1
  O  O216  1  0.15131051  0.47486499  0.75847450  1
  O  O217  1  0.65176489  0.46221271  0.75667063  1
  O  O218  1  0.07756382  0.69577641  0.75810953  1
  O  O219  1  0.57930882  0.69116834  0.75696216  1
  O  O220  1  0.25965666  0.83236158  0.75907866  1
  O  O221  1  0.76841043  0.84500541  0.75500443  1
