# generated using pymatgen
data_Na2Mg(CoO2)2
_symmetry_space_group_name_H-M   'P 1'
_cell_length_a   3.47785714
_cell_length_b   3.44159933
_cell_length_c   10.95893167
_cell_angle_alpha   90.00000000
_cell_angle_beta   90.00000000
_cell_angle_gamma   120.34910097
_symmetry_Int_Tables_number   1
_chemical_formula_structural   Na2Mg(CoO2)2
_chemical_formula_sum   'Na2 Mg1 Co2 O4'
_cell_volume   113.19633732
_cell_formula_units_Z   1
loop_
 _symmetry_equiv_pos_site_id
 _symmetry_equiv_pos_as_xyz
  1  'x, y, z'
loop_
 _atom_site_type_symbol
 _atom_site_label
 _atom_site_symmetry_multiplicity
 _atom_site_fract_x
 _atom_site_fract_y
 _atom_site_fract_z
 _atom_site_occupancy
  Na  Na0  1  0.51976013  0.03951925  0.25000000  1
  Na  Na1  1  0.51362586  0.02725273  0.75000000  1
  Mg  Mg2  1  0.17658248  0.35316496  0.75000000  1
  Co  Co3  1  0.85571991  0.71143981  0.46240312  1
  Co  Co4  1  0.85571991  0.71143981  0.03759688  1
  O  O5  1  0.19003471  0.38006843  0.40272432  1
  O  O6  1  0.84926114  0.69852329  0.64309115  1
  O  O7  1  0.84926114  0.69852329  0.85690885  1
  O  O8  1  0.19003471  0.38006843  0.09727568  1
