# generated using pymatgen
data_Na3Ca2Al2PS5O24
_symmetry_space_group_name_H-M   'P 1'
_cell_length_a   8.86481583
_cell_length_b   8.80435190
_cell_length_c   22.33327571
_cell_angle_alpha   89.77001470
_cell_angle_beta   90.12989549
_cell_angle_gamma   119.94716952
_symmetry_Int_Tables_number   1
_chemical_formula_structural   Na3Ca2Al2PS5O24
_chemical_formula_sum   'Na9 Ca6 Al6 P3 S15 O72'
_cell_volume   1510.35001194
_cell_formula_units_Z   3
loop_
 _symmetry_equiv_pos_site_id
 _symmetry_equiv_pos_as_xyz
  1  'x, y, z'
loop_
 _atom_site_type_symbol
 _atom_site_label
 _atom_site_symmetry_multiplicity
 _atom_site_fract_x
 _atom_site_fract_y
 _atom_site_fract_z
 _atom_site_occupancy
  Na  Na0  1  0.35897976  0.99375929  0.74843215  1
  Na  Na1  1  0.66420417  0.95175003  0.58920334  1
  Na  Na2  1  0.67185657  0.71573767  0.08191544  1
  Na  Na3  1  0.03208003  0.00241592  0.49664160  1
  Na  Na4  1  0.01804286  0.00163356  0.99608579  1
  Na  Na5  1  0.68281882  0.34104099  0.83416786  1
  Na  Na6  1  0.66641949  0.33373551  0.33447045  1
  Na  Na7  1  0.29889220  0.66344158  0.16888008  1
  Na  Na8  1  0.33014217  0.65472277  0.66839123  1
  Ca  Ca9  1  0.00835299  0.00386318  0.64237189  1
  Ca  Ca10  1  0.01007891  0.00278532  0.14307802  1
  Ca  Ca11  1  0.31355310  0.66252624  0.01559212  1
  Ca  Ca12  1  0.32599275  0.66707323  0.51402498  1
  Ca  Ca13  1  0.33203197  0.66627204  0.32264293  1
  Ca  Ca14  1  0.33893646  0.66829243  0.82500603  1
  Al  Al15  1  0.00098468  0.00071256  0.34639776  1
  Al  Al16  1  0.98532071  0.00059303  0.84544578  1
  Al  Al17  1  0.66711916  0.32435321  0.68610760  1
  Al  Al18  1  0.67561469  0.33820117  0.18753389  1
  Al  Al19  1  0.67470112  0.33685006  0.98327413  1
  Al  Al20  1  0.66076762  0.32938971  0.48269028  1
  P  P21  1  0.70910171  0.01200622  0.74618501  1
  P  P22  1  0.39404509  0.05687561  0.58369287  1
  P  P23  1  0.94270087  0.60196572  0.08461746  1
  S  S24  1  0.30795857  0.01948766  0.25066142  1
  S  S25  1  0.71136990  0.69730942  0.24878233  1
  S  S26  1  0.98252706  0.28600026  0.25027191  1
  S  S27  1  0.30110331  0.29242771  0.75100817  1
  S  S28  1  0.98388502  0.69776575  0.75192658  1
  S  S29  1  0.94366825  0.34382539  0.58224129  1
  S  S30  1  0.66139848  0.60137315  0.58362981  1
  S  S31  1  0.66074602  0.05666080  0.08399657  1
  S  S32  1  0.39895521  0.33480911  0.08295775  1
  S  S33  1  0.66203481  0.66840558  0.91945401  1
  S  S34  1  0.00510525  0.33648447  0.91620396  1
  S  S35  1  0.33165902  0.99905787  0.91428383  1
  S  S36  1  0.66476171  0.99353833  0.41821591  1
  S  S37  1  0.33108347  0.33834700  0.41598847  1
  S  S38  1  0.00289565  0.66667473  0.41566521  1
  O  O39  1  0.20941167  0.03478445  0.30302261  1
  O  O40  1  0.83113334  0.80047956  0.29927747  1
  O  O41  1  0.96876471  0.17353383  0.30332141  1
  O  O42  1  0.20391561  0.17145563  0.80254500  1
  O  O43  1  0.96617605  0.79268700  0.80492263  1
  O  O44  1  0.83067564  0.02695407  0.79926460  1
  O  O45  1  0.77539710  0.98514482  0.68658965  1
  O  O46  1  0.20975622  0.22083177  0.69487057  1
  O  O47  1  0.02140728  0.80278115  0.69742654  1
  O  O48  1  0.77711274  0.78800445  0.19126072  1
  O  O49  1  0.00607242  0.21365632  0.19505223  1
  O  O50  1  0.21290978  0.99411188  0.19513471  1
  O  O51  1  0.85302868  0.34648220  0.63803862  1
  O  O52  1  0.49038532  0.14847643  0.64362263  1
  O  O53  1  0.66375844  0.50832133  0.63898412  1
  O  O54  1  0.84409214  0.50492173  0.14244390  1
  O  O55  1  0.65441028  0.14564633  0.13938415  1
  O  O56  1  0.49181621  0.33704236  0.13881680  1
  O  O57  1  0.49286866  0.33337850  0.02814281  1
  O  O58  1  0.84187665  0.50021303  0.02835736  1
  O  O59  1  0.65539424  0.14729849  0.02875460  1
  O  O60  1  0.50507509  0.15788001  0.52890880  1
  O  O61  1  0.66303586  0.51023803  0.52825121  1
  O  O62  1  0.85124688  0.34971585  0.52758336  1
  O  O63  1  0.59236948  0.70374332  0.97478821  1
  O  O64  1  0.11652210  0.40678356  0.96946494  1
  O  O65  1  0.29554403  0.88026399  0.96548278  1
  O  O66  1  0.59871602  0.88811219  0.47391791  1
  O  O67  1  0.29258069  0.41108488  0.46935976  1
  O  O68  1  0.11397806  0.70860274  0.46919728  1
  O  O69  1  0.07490038  0.62259245  0.36397009  1
  O  O70  1  0.54428745  0.91416568  0.36817715  1
  O  O71  1  0.37067363  0.45090523  0.36328639  1
  O  O72  1  0.07576534  0.45107931  0.86397617  1
  O  O73  1  0.37066601  0.93206427  0.85921132  1
  O  O74  1  0.54584671  0.63018461  0.86856706  1
  O  O75  1  0.98633228  0.82533103  0.40243180  1
  O  O76  1  0.83789598  0.01025381  0.40451660  1
  O  O77  1  0.17449452  0.16113109  0.40445922  1
  O  O78  1  0.98595554  0.16006501  0.90437940  1
  O  O79  1  0.17420093  0.01702521  0.90435203  1
  O  O80  1  0.83650748  0.82632031  0.90695019  1
  O  O81  1  0.94829077  0.17809904  0.57865465  1
  O  O82  1  0.21668686  0.04362091  0.57798015  1
  O  O83  1  0.81582118  0.77943749  0.58066488  1
  O  O84  1  0.95168597  0.78206951  0.07943603  1
  O  O85  1  0.82062024  0.04281687  0.08127527  1
  O  O86  1  0.22464636  0.18112604  0.07957270  1
  O  O87  1  0.69782393  0.18666433  0.74414009  1
  O  O88  1  0.47577298  0.30024687  0.74942577  1
  O  O89  1  0.81955831  0.52569632  0.74611671  1
  O  O90  1  0.70308240  0.52198931  0.24758753  1
  O  O91  1  0.81455853  0.29105359  0.24769842  1
  O  O92  1  0.48181436  0.18638107  0.24732603  1
  O  O93  1  0.68726308  0.51327182  0.92776697  1
  O  O94  1  0.82558772  0.30869445  0.92740041  1
  O  O95  1  0.48649845  0.17562958  0.92670742  1
  O  O96  1  0.69170199  0.17482035  0.42707569  1
  O  O97  1  0.48490371  0.31351736  0.42665239  1
  O  O98  1  0.82351597  0.51530243  0.42715653  1
  O  O99  1  0.38948697  0.49898464  0.08322771  1
  O  O100  1  0.12405539  0.62114009  0.08699667  1
  O  O101  1  0.50807527  0.87597491  0.08472070  1
  O  O102  1  0.38145324  0.87451936  0.58563489  1
  O  O103  1  0.50278381  0.61817118  0.58497488  1
  O  O104  1  0.11952280  0.49585487  0.58414496  1
  O  O105  1  0.33665711  0.86973921  0.25903386  1
  O  O106  1  0.53583716  0.67047627  0.25828519  1
  O  O107  1  0.12959692  0.46530397  0.25801837  1
  O  O108  1  0.32687142  0.46839072  0.75898155  1
  O  O109  1  0.13462646  0.67126218  0.76136418  1
  O  O110  1  0.52098736  0.86049905  0.75604470  1
