# generated using pymatgen
data_Na14Hf4In4Si9(SO16)3
_symmetry_space_group_name_H-M   'P 1'
_cell_length_a   18.46022246
_cell_length_b   9.24234534
_cell_length_c   22.64475802
_cell_angle_alpha   90.08318309
_cell_angle_beta   90.20937448
_cell_angle_gamma   120.02655060
_symmetry_Int_Tables_number   1
_chemical_formula_structural   Na14Hf4In4Si9(SO16)3
_chemical_formula_sum   'Na42 Hf12 In12 Si27 S9 O144'
_cell_volume   3344.99264302
_cell_formula_units_Z   3
loop_
 _symmetry_equiv_pos_site_id
 _symmetry_equiv_pos_as_xyz
  1  'x, y, z'
loop_
 _atom_site_type_symbol
 _atom_site_label
 _atom_site_symmetry_multiplicity
 _atom_site_fract_x
 _atom_site_fract_y
 _atom_site_fract_z
 _atom_site_occupancy
  Na  Na0  1  0.82088238  0.01220114  0.25783948  1
  Na  Na1  1  0.17329479  0.35098744  0.25490877  1
  Na  Na2  1  0.69432700  0.37234988  0.25533442  1
  Na  Na3  1  0.99482519  0.62743967  0.24574445  1
  Na  Na4  1  0.50147629  0.64806043  0.25074719  1
  Na  Na5  1  0.31969767  0.62839535  0.75379287  1
  Na  Na6  1  0.99912957  0.35134444  0.74216193  1
  Na  Na7  1  0.49684600  0.36471040  0.74193991  1
  Na  Na8  1  0.19262825  0.01605513  0.75003372  1
  Na  Na9  1  0.67956766  0.00114041  0.74884194  1
  Na  Na10  1  0.14625536  0.31887509  0.58115015  1
  Na  Na11  1  0.65260604  0.32921627  0.58138416  1
  Na  Na12  1  0.33528461  0.99212381  0.58742247  1
  Na  Na13  1  0.83377154  0.97303065  0.58184084  1
  Na  Na14  1  0.14367768  0.97064784  0.07952730  1
  Na  Na15  1  0.65051015  0.97693996  0.07825104  1
  Na  Na16  1  0.33378110  0.68187829  0.08122349  1
  Na  Na17  1  0.83542180  0.68000274  0.08770750  1
  Na  Na18  1  0.47975113  0.67940153  0.91377207  1
  Na  Na19  1  0.97924694  0.67731712  0.92377364  1
  Na  Na20  1  0.34588424  0.02461458  0.90512235  1
  Na  Na21  1  0.84426408  0.02139952  0.90798003  1
  Na  Na22  1  0.17407208  0.29713606  0.90814120  1
  Na  Na23  1  0.66925252  0.28867299  0.90955753  1
  Na  Na24  1  0.48284927  0.28766923  0.42848464  1
  Na  Na25  1  0.97762471  0.27861481  0.41995119  1
  Na  Na26  1  0.16796518  0.04960346  0.41401878  1
  Na  Na27  1  0.67706562  0.05470153  0.41574233  1
  Na  Na28  1  0.34549339  0.66810593  0.41289050  1
  Na  Na29  1  0.84594143  0.66432841  0.41911340  1
  Na  Na30  1  0.99729263  0.99452757  0.50046289  1
  Na  Na31  1  0.50813125  0.01784899  0.50232849  1
  Na  Na32  1  0.00451993  0.99496316  0.00024132  1
  Na  Na33  1  0.50579815  0.99984245  0.99477302  1
  Na  Na34  1  0.32918276  0.33711092  0.82573595  1
  Na  Na35  1  0.82052412  0.32899595  0.82994585  1
  Na  Na36  1  0.32100952  0.30899550  0.33712446  1
  Na  Na37  1  0.82805852  0.32166933  0.33221248  1
  Na  Na38  1  0.15381331  0.64773954  0.16918169  1
  Na  Na39  1  0.66451895  0.65652699  0.16985661  1
  Na  Na40  1  0.16210580  0.66989935  0.66795615  1
  Na  Na41  1  0.66183050  0.66178819  0.66416176  1
  Hf  Hf42  1  0.99705755  0.00316936  0.64631370  1
  Hf  Hf43  1  0.50517031  0.00730902  0.65271573  1
  Hf  Hf44  1  0.00426132  0.00331682  0.15257313  1
  Hf  Hf45  1  0.50163890  0.99049730  0.14914785  1
  Hf  Hf46  1  0.82894156  0.32636943  0.68048923  1
  Hf  Hf47  1  0.33057829  0.34223104  0.18448694  1
  Hf  Hf48  1  0.16574292  0.66702159  0.01925902  1
  Hf  Hf49  1  0.66654387  0.66601180  0.01948585  1
  Hf  Hf50  1  0.16576038  0.66656233  0.51938947  1
  Hf  Hf51  1  0.67051751  0.66249000  0.52169419  1
  Hf  Hf52  1  0.17428934  0.67139949  0.30984583  1
  Hf  Hf53  1  0.67513140  0.67962967  0.80878166  1
  In  In54  1  0.00085236  0.01266977  0.34903825  1
  In  In55  1  0.50105272  0.00254892  0.35103777  1
  In  In56  1  0.00067941  0.99889078  0.84941522  1
  In  In57  1  0.50109372  0.98934724  0.84760409  1
  In  In58  1  0.33471144  0.32524532  0.68341243  1
  In  In59  1  0.83474126  0.34473659  0.18395764  1
  In  In60  1  0.32771134  0.33877610  0.98429647  1
  In  In61  1  0.82526096  0.34062577  0.98475123  1
  In  In62  1  0.32642628  0.31237985  0.48482576  1
  In  In63  1  0.82834781  0.32798856  0.48806510  1
  In  In64  1  0.67866269  0.68258444  0.31711948  1
  In  In65  1  0.17623495  0.67454817  0.81443070  1
  Si  Si66  1  0.15075686  0.00125976  0.25177269  1
  Si  Si67  1  0.64833813  0.99536408  0.25191999  1
  Si  Si68  1  0.35428813  0.70619293  0.25025082  1
  Si  Si69  1  0.85322747  0.70752223  0.25102753  1
  Si  Si70  1  0.99841722  0.29766679  0.25178349  1
  Si  Si71  1  0.14678691  0.29776091  0.75151385  1
  Si  Si72  1  0.65108342  0.29969642  0.75337063  1
  Si  Si73  1  0.49857789  0.69958280  0.75236472  1
  Si  Si74  1  0.35275662  0.99936649  0.75141437  1
  Si  Si75  1  0.85505768  0.01016776  0.75174119  1
  Si  Si76  1  0.48272880  0.33145986  0.58285600  1
  Si  Si77  1  0.98345087  0.34012584  0.58375253  1
  Si  Si78  1  0.18145242  0.03020879  0.58407087  1
  Si  Si79  1  0.67939949  0.02774466  0.58152406  1
  Si  Si80  1  0.83681537  0.62963850  0.57980274  1
  Si  Si81  1  0.48333854  0.62738974  0.08363481  1
  Si  Si82  1  0.98365588  0.63395492  0.08287298  1
  Si  Si83  1  0.18014987  0.33156725  0.08224736  1
  Si  Si84  1  0.67947017  0.33098279  0.08433171  1
  Si  Si85  1  0.31714656  0.66961108  0.91839920  1
  Si  Si86  1  0.81372913  0.66855536  0.91694082  1
  Si  Si87  1  0.16774221  0.96292026  0.91574123  1
  Si  Si88  1  0.66855935  0.96314142  0.91776654  1
  Si  Si89  1  0.31381279  0.95915568  0.41686574  1
  Si  Si90  1  0.81742667  0.96997036  0.41817244  1
  Si  Si91  1  0.16846011  0.37373006  0.41693736  1
  Si  Si92  1  0.66642042  0.37017497  0.41361090  1
  S  S93  1  0.49601363  0.29114492  0.24858054  1
  S  S94  1  0.99709913  0.69988698  0.75014918  1
  S  S95  1  0.33383051  0.63374285  0.58154190  1
  S  S96  1  0.33473763  0.04160989  0.08240205  1
  S  S97  1  0.83415760  0.03476597  0.08150011  1
  S  S98  1  0.02004700  0.37613102  0.91729404  1
  S  S99  1  0.52228981  0.37885976  0.91663639  1
  S  S100  1  0.02403382  0.66673042  0.41452015  1
  S  S101  1  0.52028322  0.66356234  0.41689519  1
  O  O102  1  0.11654748  0.04964434  0.31067081  1
  O  O103  1  0.60988314  0.03633937  0.31027754  1
  O  O104  1  0.41195758  0.78013382  0.30913035  1
  O  O105  1  0.90911066  0.79021691  0.31053374  1
  O  O106  1  0.48345427  0.20276569  0.30514999  1
  O  O107  1  0.98045447  0.19613089  0.31365355  1
  O  O108  1  0.11168086  0.18668513  0.81248988  1
  O  O109  1  0.61464746  0.18675284  0.81322430  1
  O  O110  1  0.47911068  0.76145477  0.81506011  1
  O  O111  1  0.98553005  0.76355197  0.80767426  1
  O  O112  1  0.40606860  0.02441439  0.81238870  1
  O  O113  1  0.90981436  0.04469151  0.81261930  1
  O  O114  1  0.40195827  0.97930208  0.69448076  1
  O  O115  1  0.90178360  0.98596990  0.69528693  1
  O  O116  1  0.08558259  0.19421997  0.69592505  1
  O  O117  1  0.58957164  0.20624670  0.69603051  1
  O  O118  1  0.00654042  0.81305574  0.70141961  1
  O  O119  1  0.51644845  0.83692744  0.70064810  1
  O  O120  1  0.39846726  0.82002853  0.19208521  1
  O  O121  1  0.90105354  0.82361158  0.19272485  1
  O  O122  1  0.01733438  0.19868302  0.19901180  1
  O  O123  1  0.50449888  0.19570108  0.19907427  1
  O  O124  1  0.09019661  0.97299460  0.19376399  1
  O  O125  1  0.58651263  0.97243133  0.19438229  1
  O  O126  1  0.44312357  0.36188149  0.64180401  1
  O  O127  1  0.93655131  0.35946084  0.64195004  1
  O  O128  1  0.24388594  0.10941434  0.64077613  1
  O  O129  1  0.74306210  0.12322064  0.63847962  1
  O  O130  1  0.31906112  0.52903811  0.63403746  1
  O  O131  1  0.82017452  0.49693009  0.63290211  1
  O  O132  1  0.43553147  0.51066756  0.14089994  1
  O  O133  1  0.94431902  0.52450332  0.14162621  1
  O  O134  1  0.32345732  0.13023939  0.13264059  1
  O  O135  1  0.81931774  0.10961428  0.13399661  1
  O  O136  1  0.24515141  0.36218711  0.13817385  1
  O  O137  1  0.74111371  0.37193446  0.14097936  1
  O  O138  1  0.21519434  0.28244582  0.02395533  1
  O  O139  1  0.71179542  0.27456545  0.02551816  1
  O  O140  1  0.42675068  0.54796170  0.02458369  1
  O  O141  1  0.92687175  0.55102237  0.02277878  1
  O  O142  1  0.34782078  0.13384064  0.02689122  1
  O  O143  1  0.84520817  0.13215827  0.02742804  1
  O  O144  1  0.21417052  0.14890976  0.52484663  1
  O  O145  1  0.71335504  0.14338437  0.52250886  1
  O  O146  1  0.34513665  0.55854181  0.52732639  1
  O  O147  1  0.85299224  0.56302190  0.51764236  1
  O  O148  1  0.42454397  0.29592353  0.52312236  1
  O  O149  1  0.92791644  0.30455283  0.52432303  1
  O  O150  1  0.26545904  0.68394226  0.97616789  1
  O  O151  1  0.76780340  0.68687376  0.97684399  1
  O  O152  1  0.07510739  0.47040176  0.96870257  1
  O  O153  1  0.57500704  0.46967555  0.96932650  1
  O  O154  1  0.15651852  0.84260107  0.97313621  1
  O  O155  1  0.65720950  0.84704721  0.97629306  1
  O  O156  1  0.26721335  0.84820980  0.47603628  1
  O  O157  1  0.76353178  0.84550152  0.47294775  1
  O  O158  1  0.15794779  0.46974253  0.47478266  1
  O  O159  1  0.65474394  0.46893721  0.46992633  1
  O  O160  1  0.07585901  0.68120483  0.46759060  1
  O  O161  1  0.57462099  0.67867578  0.46711367  1
  O  O162  1  0.06563359  0.65194165  0.36084738  1
  O  O163  1  0.55402281  0.63954758  0.36045976  1
  O  O164  1  0.25204571  0.85981528  0.36113057  1
  O  O165  1  0.76152300  0.90499091  0.35693621  1
  O  O166  1  0.17704488  0.48660455  0.35823296  1
  O  O167  1  0.67296666  0.46990630  0.35189100  1
  O  O168  1  0.05495988  0.47079811  0.86231094  1
  O  O169  1  0.56059592  0.47671907  0.86281599  1
  O  O170  1  0.17714259  0.87769515  0.85514093  1
  O  O171  1  0.67665011  0.86510664  0.85995822  1
  O  O172  1  0.25840055  0.62467995  0.85945981  1
  O  O173  1  0.75111936  0.64368042  0.86212018  1
  O  O174  1  0.01908119  0.82138178  0.41436968  1
  O  O175  1  0.51445882  0.81843735  0.41679856  1
  O  O176  1  0.40520717  0.96909976  0.41385773  1
  O  O177  1  0.90659779  0.96901329  0.41810811  1
  O  O178  1  0.08659841  0.18540082  0.41659685  1
  O  O179  1  0.58085308  0.18267971  0.41556993  1
  O  O180  1  0.01638939  0.21245343  0.91770615  1
  O  O181  1  0.51763635  0.21464268  0.91634905  1
  O  O182  1  0.08331711  0.98184368  0.91628707  1
  O  O183  1  0.58631939  0.98684583  0.91687950  1
  O  O184  1  0.40639339  0.84722813  0.91879156  1
  O  O185  1  0.90577335  0.84046588  0.91388293  1
  O  O186  1  0.48900106  0.15795927  0.58852848  1
  O  O187  1  0.99272343  0.17018804  0.59031255  1
  O  O188  1  0.08979134  0.01077576  0.59449215  1
  O  O189  1  0.58816937  0.01221636  0.59154694  1
  O  O190  1  0.40568491  0.80502224  0.58799484  1
  O  O191  1  0.91249017  0.82031318  0.59093480  1
  O  O192  1  0.48839898  0.81382219  0.08964071  1
  O  O193  1  0.99034142  0.82066244  0.08718140  1
  O  O194  1  0.40541887  0.01153555  0.09103853  1
  O  O195  1  0.90597651  0.00647526  0.08756245  1
  O  O196  1  0.08855320  0.16714984  0.09119717  1
  O  O197  1  0.58549096  0.16769330  0.09353590  1
  O  O198  1  0.34210102  0.16464614  0.75019656  1
  O  O199  1  0.84606255  0.17821773  0.74497318  1
  O  O200  1  0.24172799  0.33008229  0.74369559  1
  O  O201  1  0.74254105  0.31441510  0.74339725  1
  O  O202  1  0.41584105  0.51796020  0.74260801  1
  O  O203  1  0.92427316  0.52995116  0.74239695  1
  O  O204  1  0.34637243  0.51864154  0.24296000  1
  O  O205  1  0.84177085  0.52027607  0.24907985  1
  O  O206  1  0.42219615  0.31312175  0.23995360  1
  O  O207  1  0.91580426  0.31372238  0.24221434  1
  O  O208  1  0.24378655  0.16655490  0.23979583  1
  O  O209  1  0.74204601  0.15275036  0.24301127  1
  O  O210  1  0.33181501  0.50828606  0.92048609  1
  O  O211  1  0.82458549  0.50229820  0.91663912  1
  O  O212  1  0.43789405  0.35784239  0.92228501  1
  O  O213  1  0.93554946  0.35325291  0.92448955  1
  O  O214  1  0.25572639  0.14391712  0.92097644  1
  O  O215  1  0.75743244  0.14409583  0.92028568  1
  O  O216  1  0.32431861  0.14659832  0.41626312  1
  O  O217  1  0.83194327  0.15978471  0.42310181  1
  O  O218  1  0.25756909  0.37096567  0.41946845  1
  O  O219  1  0.75207010  0.35850840  0.41704997  1
  O  O220  1  0.43492271  0.51612167  0.42281501  1
  O  O221  1  0.94112430  0.51663328  0.41739717  1
  O  O222  1  0.18019018  0.50927167  0.07806392  1
  O  O223  1  0.67672403  0.50506324  0.07585523  1
  O  O224  1  0.08146205  0.67197126  0.07718452  1
  O  O225  1  0.58037417  0.66684491  0.08009340  1
  O  O226  1  0.25592958  0.87355703  0.07953784  1
  O  O227  1  0.75655854  0.86376439  0.07683335  1
  O  O228  1  0.17798724  0.84992964  0.57529812  1
  O  O229  1  0.67697204  0.84900650  0.57712153  1
  O  O230  1  0.25627588  0.64905810  0.57675237  1
  O  O231  1  0.74981395  0.64170567  0.57778688  1
  O  O232  1  0.08051615  0.49865493  0.57986563  1
  O  O233  1  0.57835586  0.48786672  0.57583936  1
  O  O234  1  0.15150473  0.82568050  0.25591789  1
  O  O235  1  0.64577415  0.81469598  0.25329317  1
  O  O236  1  0.25869573  0.67288394  0.25316228  1
  O  O237  1  0.76026642  0.69246603  0.24851920  1
  O  O238  1  0.08296331  0.48447170  0.25488640  1
  O  O239  1  0.57230826  0.45847556  0.24901867  1
  O  O240  1  0.14515184  0.47524906  0.75311425  1
  O  O241  1  0.65185064  0.47718044  0.75752357  1
  O  O242  1  0.07452347  0.68703447  0.75099940  1
  O  O243  1  0.58303840  0.68189481  0.75573474  1
  O  O244  1  0.25960343  0.82879608  0.74772960  1
  O  O245  1  0.75941965  0.84765558  0.75404285  1
