# generated using pymatgen
data_Na6Zn2Si5Sn6S7O48
_symmetry_space_group_name_H-M   'P 1'
_cell_length_a   17.73416442
_cell_length_b   8.94668065
_cell_length_c   22.94493677
_cell_angle_alpha   89.83003910
_cell_angle_beta   89.73390922
_cell_angle_gamma   120.27083714
_symmetry_Int_Tables_number   1
_chemical_formula_structural   Na6Zn2Si5Sn6S7O48
_chemical_formula_sum   'Na18 Zn6 Si15 Sn18 S21 O144'
_cell_volume   3144.02180453
_cell_formula_units_Z   3
loop_
 _symmetry_equiv_pos_site_id
 _symmetry_equiv_pos_as_xyz
  1  'x, y, z'
loop_
 _atom_site_type_symbol
 _atom_site_label
 _atom_site_symmetry_multiplicity
 _atom_site_fract_x
 _atom_site_fract_y
 _atom_site_fract_z
 _atom_site_occupancy
  Na  Na0  1  0.65448373  0.35086431  0.57957961  1
  Na  Na1  1  0.51915508  0.68785763  0.58421382  1
  Na  Na2  1  0.82477798  0.95835123  0.58221694  1
  Na  Na3  1  0.15313983  0.95694216  0.08412137  1
  Na  Na4  1  0.32285654  0.68974989  0.08774257  1
  Na  Na5  1  0.01875386  0.35248153  0.08931596  1
  Na  Na6  1  0.00821899  0.98888931  0.49591857  1
  Na  Na7  1  0.48944131  0.00932344  0.49924295  1
  Na  Na8  1  0.99144501  0.97258212  0.00199476  1
  Na  Na9  1  0.50586795  0.01098084  0.00058688  1
  Na  Na10  1  0.32440368  0.31660609  0.81960927  1
  Na  Na11  1  0.82807829  0.33342595  0.83190538  1
  Na  Na12  1  0.32462209  0.32089125  0.33391106  1
  Na  Na13  1  0.83498639  0.34561781  0.32439703  1
  Na  Na14  1  0.16330614  0.66477770  0.16204584  1
  Na  Na15  1  0.67604418  0.68449877  0.17362231  1
  Na  Na16  1  0.17429449  0.66565198  0.66813824  1
  Na  Na17  1  0.66538134  0.66354712  0.65625449  1
  Zn  Zn18  1  0.33173315  0.30931681  0.69038097  1
  Zn  Zn19  1  0.82647715  0.33360110  0.67361395  1
  Zn  Zn20  1  0.32339980  0.31505061  0.17921169  1
  Zn  Zn21  1  0.83507526  0.35640685  0.19374036  1
  Zn  Zn22  1  0.16508083  0.66886971  0.02592819  1
  Zn  Zn23  1  0.66660899  0.66450644  0.52425395  1
  Si  Si24  1  0.64816074  0.00593645  0.24941663  1
  Si  Si25  1  0.85483164  0.71043405  0.25323398  1
  Si  Si26  1  0.14801555  0.28974334  0.74943108  1
  Si  Si27  1  0.35662230  0.00234539  0.75382665  1
  Si  Si28  1  0.47292119  0.33423618  0.58536769  1
  Si  Si29  1  0.68808956  0.04407778  0.58545294  1
  Si  Si30  1  0.83829959  0.63564460  0.58708445  1
  Si  Si31  1  0.97222684  0.61426712  0.08554913  1
  Si  Si32  1  0.33978414  0.04410901  0.08511191  1
  Si  Si33  1  0.18580860  0.33172581  0.08635000  1
  Si  Si34  1  0.81623338  0.67009655  0.91347028  1
  Si  Si35  1  0.66545675  0.96323371  0.91709239  1
  Si  Si36  1  0.31648581  0.96058175  0.41329926  1
  Si  Si37  1  0.16708681  0.37117373  0.41687670  1
  Si  Si38  1  0.01554252  0.65820988  0.41767756  1
  Sn  Sn39  1  0.00190770  0.99195126  0.35645048  1
  Sn  Sn40  1  0.50090486  0.00089916  0.35076955  1
  Sn  Sn41  1  0.00113606  0.00016189  0.85042128  1
  Sn  Sn42  1  0.50191921  0.99806054  0.85180930  1
  Sn  Sn43  1  0.00536287  0.00241838  0.64853802  1
  Sn  Sn44  1  0.49359853  0.00498163  0.64595037  1
  Sn  Sn45  1  0.99494380  0.98351105  0.14964695  1
  Sn  Sn46  1  0.50314577  0.00954649  0.15166328  1
  Sn  Sn47  1  0.32917044  0.31495672  0.98727379  1
  Sn  Sn48  1  0.83124989  0.34508104  0.97813674  1
  Sn  Sn49  1  0.33037427  0.31486564  0.47729751  1
  Sn  Sn50  1  0.83409981  0.35264625  0.48420202  1
  Sn  Sn51  1  0.67258669  0.68103299  0.01351802  1
  Sn  Sn52  1  0.16848843  0.66697870  0.50962328  1
  Sn  Sn53  1  0.16450148  0.65964949  0.32121905  1
  Sn  Sn54  1  0.67144135  0.68291347  0.31272211  1
  Sn  Sn55  1  0.17040410  0.65901423  0.81153532  1
  Sn  Sn56  1  0.67131809  0.67941304  0.81667658  1
  S  S57  1  0.15083855  0.99582971  0.25101424  1
  S  S58  1  0.34918967  0.69985827  0.24935971  1
  S  S59  1  0.00559847  0.29483165  0.25066225  1
  S  S60  1  0.49706732  0.29782095  0.25174840  1
  S  S61  1  0.64987236  0.30511101  0.75210213  1
  S  S62  1  0.99727377  0.69865426  0.75213983  1
  S  S63  1  0.50462733  0.70847676  0.75037002  1
  S  S64  1  0.85110699  0.00230138  0.74919793  1
  S  S65  1  0.98483886  0.34078282  0.58493741  1
  S  S66  1  0.18564739  0.02776107  0.58312020  1
  S  S67  1  0.32786804  0.61909777  0.58310221  1
  S  S68  1  0.48392712  0.62623806  0.08272389  1
  S  S69  1  0.82928310  0.03978298  0.08313096  1
  S  S70  1  0.68380070  0.34106357  0.08149620  1
  S  S71  1  0.31420773  0.65763174  0.92026477  1
  S  S72  1  0.02228015  0.37612554  0.91697223  1
  S  S73  1  0.51709536  0.37455359  0.91742948  1
  S  S74  1  0.16885827  0.95910013  0.91663453  1
  S  S75  1  0.81176979  0.96487404  0.42003396  1
  S  S76  1  0.66593486  0.37710345  0.41625961  1
  S  S77  1  0.52242805  0.66781176  0.41692576  1
  O  O78  1  0.10617234  0.01478806  0.30248179  1
  O  O79  1  0.60222591  0.03959537  0.30696145  1
  O  O80  1  0.40380748  0.79341046  0.30066295  1
  O  O81  1  0.91197710  0.81313108  0.30961704  1
  O  O82  1  0.48208078  0.18449039  0.30335864  1
  O  O83  1  0.00151481  0.19128592  0.30210835  1
  O  O84  1  0.10419445  0.16842247  0.80864966  1
  O  O85  1  0.60675479  0.19916828  0.80577171  1
  O  O86  1  0.49935371  0.79759223  0.80428188  1
  O  O87  1  0.98244310  0.77940175  0.80492460  1
  O  O88  1  0.41309777  0.02293629  0.81336048  1
  O  O89  1  0.90147498  0.01162222  0.80259930  1
  O  O90  1  0.39621008  0.94885207  0.69761604  1
  O  O91  1  0.89120714  0.97652923  0.69552176  1
  O  O92  1  0.08282503  0.20302801  0.69313499  1
  O  O93  1  0.59807140  0.22242129  0.69854153  1
  O  O94  1  0.01213873  0.80737172  0.69902573  1
  O  O95  1  0.52099663  0.81688137  0.69708404  1
  O  O96  1  0.38831376  0.80553603  0.19390487  1
  O  O97  1  0.89020340  0.83331926  0.19373085  1
  O  O98  1  0.01940948  0.22076563  0.19467224  1
  O  O99  1  0.51315411  0.22199539  0.19765873  1
  O  O100  1  0.10111945  0.97692014  0.19557634  1
  O  O101  1  0.58383153  0.96131043  0.19133013  1
  O  O102  1  0.43042928  0.37945830  0.63910866  1
  O  O103  1  0.94644753  0.36153754  0.63814315  1
  O  O104  1  0.23457870  0.10776957  0.63557214  1
  O  O105  1  0.75138363  0.11425386  0.64090387  1
  O  O106  1  0.31491260  0.52220927  0.63629337  1
  O  O107  1  0.81983649  0.52233673  0.64488831  1
  O  O108  1  0.44543170  0.52693782  0.13522912  1
  O  O109  1  0.92824244  0.47687702  0.13734957  1
  O  O110  1  0.32109804  0.12673910  0.14035245  1
  O  O111  1  0.81534633  0.11123220  0.13552734  1
  O  O112  1  0.25463066  0.38981705  0.13832366  1
  O  O113  1  0.73490389  0.36766401  0.13346022  1
  O  O114  1  0.22075460  0.27167898  0.02680459  1
  O  O115  1  0.71940046  0.31077656  0.02660992  1
  O  O116  1  0.42897574  0.54921344  0.02839125  1
  O  O117  1  0.91863320  0.53964232  0.02306389  1
  O  O118  1  0.36555295  0.16279917  0.02402167  1
  O  O119  1  0.83873402  0.13793298  0.02808982  1
  O  O120  1  0.22128848  0.12977077  0.52845384  1
  O  O121  1  0.72735589  0.17800136  0.52775576  1
  O  O122  1  0.34048273  0.54091223  0.52934336  1
  O  O123  1  0.86095396  0.56315687  0.52786823  1
  O  O124  1  0.41844030  0.30360261  0.52404039  1
  O  O125  1  0.92920330  0.30742130  0.53203556  1
  O  O126  1  0.27441905  0.67934514  0.97218630  1
  O  O127  1  0.77507502  0.70167258  0.97301742  1
  O  O128  1  0.07206634  0.45366992  0.96940700  1
  O  O129  1  0.57030104  0.45446331  0.97028331  1
  O  O130  1  0.16094148  0.86655686  0.97025691  1
  O  O131  1  0.64072917  0.83691614  0.97409321  1
  O  O132  1  0.27822785  0.85051911  0.47383955  1
  O  O133  1  0.77236839  0.85782266  0.47175552  1
  O  O134  1  0.14717500  0.44719319  0.47564479  1
  O  O135  1  0.65701250  0.45324708  0.47004993  1
  O  O136  1  0.07439291  0.69420385  0.47616508  1
  O  O137  1  0.57188132  0.68937023  0.46964920  1
  O  O138  1  0.05746915  0.62972274  0.35804002  1
  O  O139  1  0.56286282  0.63982165  0.36350501  1
  O  O140  1  0.25818236  0.87568186  0.35536255  1
  O  O141  1  0.75890879  0.88606384  0.36588796  1
  O  O142  1  0.18841118  0.48838526  0.35797437  1
  O  O143  1  0.67396333  0.48072401  0.36293143  1
  O  O144  1  0.06278417  0.48659533  0.86336587  1
  O  O145  1  0.55770661  0.47729343  0.86363032  1
  O  O146  1  0.17736267  0.87309074  0.86321557  1
  O  O147  1  0.68040745  0.88045891  0.85798624  1
  O  O148  1  0.26179942  0.63011309  0.86605682  1
  O  O149  1  0.75438610  0.63322924  0.85662619  1
  O  O150  1  0.00405568  0.82812748  0.41466716  1
  O  O151  1  0.51556223  0.82737660  0.40978848  1
  O  O152  1  0.41417680  0.97712938  0.40892550  1
  O  O153  1  0.90048936  0.98895899  0.41261964  1
  O  O154  1  0.07974268  0.17942124  0.40993597  1
  O  O155  1  0.58573120  0.20072956  0.41157430  1
  O  O156  1  0.01489700  0.20263134  0.90962316  1
  O  O157  1  0.50672917  0.19944539  0.91389021  1
  O  O158  1  0.08964699  0.97821437  0.91194891  1
  O  O159  1  0.57993891  0.99151240  0.91129811  1
  O  O160  1  0.40306331  0.81602791  0.91317810  1
  O  O161  1  0.91314000  0.84935777  0.90878680  1
  O  O162  1  0.48569028  0.16157089  0.58796996  1
  O  O163  1  0.99166838  0.17839949  0.58756710  1
  O  O164  1  0.09520068  0.00588138  0.58645679  1
  O  O165  1  0.58887076  0.02434429  0.59308976  1
  O  O166  1  0.41349227  0.79430372  0.58543916  1
  O  O167  1  0.92232695  0.84056817  0.59175040  1
  O  O168  1  0.49300890  0.80262878  0.08483417  1
  O  O169  1  0.98596157  0.81279566  0.08928096  1
  O  O170  1  0.42336428  0.00535734  0.09090743  1
  O  O171  1  0.91265010  0.03247532  0.08478993  1
  O  O172  1  0.08726814  0.15534022  0.09403223  1
  O  O173  1  0.59409821  0.18256966  0.08605755  1
  O  O174  1  0.35115618  0.17300310  0.75006562  1
  O  O175  1  0.84330430  0.15557851  0.74711817  1
  O  O176  1  0.24385995  0.32007138  0.74234924  1
  O  O177  1  0.73673163  0.32830538  0.74953761  1
  O  O178  1  0.42650162  0.54136066  0.74838185  1
  O  O179  1  0.92272194  0.52491621  0.74725484  1
  O  O180  1  0.34363198  0.53251218  0.24623505  1
  O  O181  1  0.85026215  0.52916496  0.25055841  1
  O  O182  1  0.42174515  0.32001672  0.24575191  1
  O  O183  1  0.92709737  0.30572886  0.24831689  1
  O  O184  1  0.23770583  0.15031167  0.24829227  1
  O  O185  1  0.74377348  0.16752557  0.24209919  1
  O  O186  1  0.32648879  0.50222112  0.92382996  1
  O  O187  1  0.82689995  0.49998818  0.91635933  1
  O  O188  1  0.43004650  0.36292539  0.92170404  1
  O  O189  1  0.93246533  0.34962497  0.91882049  1
  O  O190  1  0.24990331  0.13861804  0.91644739  1
  O  O191  1  0.75410975  0.15028416  0.92516142  1
  O  O192  1  0.32872352  0.15378595  0.41628223  1
  O  O193  1  0.81843060  0.13689445  0.42448568  1
  O  O194  1  0.25505860  0.35554587  0.42418663  1
  O  O195  1  0.74482647  0.35768420  0.41648705  1
  O  O196  1  0.43276611  0.51527802  0.41899132  1
  O  O197  1  0.91985245  0.47770467  0.42139712  1
  O  O198  1  0.17061982  0.49217682  0.07525185  1
  O  O199  1  0.67121191  0.49538952  0.07398721  1
  O  O200  1  0.07199601  0.65175384  0.07840190  1
  O  O201  1  0.57212949  0.64261829  0.07537030  1
  O  O202  1  0.25504856  0.85411396  0.07594467  1
  O  O203  1  0.75213401  0.85556731  0.07835270  1
  O  O204  1  0.17618470  0.85236601  0.57777247  1
  O  O205  1  0.67069831  0.85179233  0.57434897  1
  O  O206  1  0.25277242  0.65161340  0.57707557  1
  O  O207  1  0.75357436  0.65743841  0.57820405  1
  O  O208  1  0.07384226  0.49541349  0.57831996  1
  O  O209  1  0.57262536  0.49527544  0.57801718  1
  O  O210  1  0.15508446  0.83277601  0.25400673  1
  O  O211  1  0.64430597  0.81797228  0.25666293  1
  O  O212  1  0.26200099  0.68724694  0.25294534  1
  O  O213  1  0.75565949  0.68615271  0.25671867  1
  O  O214  1  0.08704836  0.47272614  0.25284290  1
  O  O215  1  0.57945613  0.46627600  0.25832991  1
  O  O216  1  0.14489230  0.47112989  0.75625984  1
  O  O217  1  0.65069365  0.47489807  0.75622799  1
  O  O218  1  0.08081228  0.69719856  0.75874944  1
  O  O219  1  0.58558218  0.69121011  0.75473944  1
  O  O220  1  0.25839638  0.82654972  0.75783689  1
  O  O221  1  0.76269803  0.83795031  0.75170370  1
