# generated using pymatgen
data_Na6Ca5NbP3(SO6)6
_symmetry_space_group_name_H-M   'P 1'
_cell_length_a   9.24804112
_cell_length_b   9.28191715
_cell_length_c   23.59335319
_cell_angle_alpha   89.83528488
_cell_angle_beta   90.00000000
_cell_angle_gamma   119.87934281
_symmetry_Int_Tables_number   1
_chemical_formula_structural   Na6Ca5NbP3(SO6)6
_chemical_formula_sum   'Na12 Ca10 Nb2 P6 S12 O72'
_cell_volume   1756.03066339
_cell_formula_units_Z   2
loop_
 _symmetry_equiv_pos_site_id
 _symmetry_equiv_pos_as_xyz
  1  'x, y, z'
loop_
 _atom_site_type_symbol
 _atom_site_label
 _atom_site_symmetry_multiplicity
 _atom_site_fract_x
 _atom_site_fract_y
 _atom_site_fract_z
 _atom_site_occupancy
  Na  Na0  1  0.30540357  0.33537861  0.58048853  1
  Na  Na1  1  0.66850044  0.97092103  0.59287268  1
  Na  Na2  1  0.30242159  0.97092103  0.09287268  1
  Na  Na3  1  0.02997604  0.33537861  0.08048853  1
  Na  Na4  1  0.96375112  0.66723754  0.90622413  1
  Na  Na5  1  0.70348543  0.66723754  0.40622413  1
  Na  Na6  1  0.02837016  0.01339255  0.49380965  1
  Na  Na7  1  0.98502239  0.01339255  0.99380965  1
  Na  Na8  1  0.67820941  0.31913547  0.82600774  1
  Na  Na9  1  0.64092707  0.31913547  0.32600774  1
  Na  Na10  1  0.35772930  0.67721199  0.16928199  1
  Na  Na11  1  0.31948169  0.67721199  0.66928199  1
  Ca  Ca12  1  0.01386920  0.01095666  0.34699509  1
  Ca  Ca13  1  0.99708746  0.01095666  0.84699509  1
  Ca  Ca14  1  0.98931726  0.98182078  0.66165367  1
  Ca  Ca15  1  0.99250352  0.98182078  0.16165367  1
  Ca  Ca16  1  0.67671287  0.33861488  0.68818068  1
  Ca  Ca17  1  0.66190301  0.33861488  0.18818068  1
  Ca  Ca18  1  0.66524372  0.33012702  0.97711096  1
  Ca  Ca19  1  0.66488430  0.33012702  0.47711096  1
  Ca  Ca20  1  0.34294371  0.66360699  0.01497841  1
  Ca  Ca21  1  0.32066228  0.66360699  0.51497841  1
  Nb  Nb22  1  0.33365607  0.66259547  0.31459283  1
  Nb  Nb23  1  0.32893840  0.66259547  0.81459283  1
  P  P24  1  0.30832577  0.99122147  0.25021191  1
  P  P25  1  0.69326460  0.69419034  0.25813308  1
  P  P26  1  0.00092574  0.69419034  0.75813308  1
  P  P27  1  0.68289571  0.99122147  0.75021191  1
  P  P28  1  0.04235605  0.37590764  0.91779864  1
  P  P29  1  0.33355059  0.37590764  0.41779864  1
  S  S30  1  0.00940924  0.31450239  0.25075376  1
  S  S31  1  0.30509315  0.31450239  0.75075376  1
  S  S32  1  0.96588086  0.32654765  0.58369739  1
  S  S33  1  0.36968927  0.04001877  0.58379924  1
  S  S34  1  0.66697275  0.63576492  0.58084687  1
  S  S35  1  0.96879317  0.63576492  0.08084687  1
  S  S36  1  0.67033049  0.04001877  0.08379924  1
  S  S37  1  0.36066779  0.32654765  0.08369739  1
  S  S38  1  0.62993917  0.66637048  0.91333764  1
  S  S39  1  0.33249133  0.95478790  0.91483441  1
  S  S40  1  0.62229557  0.95478790  0.41483441  1
  S  S41  1  0.03643031  0.66637048  0.41333764  1
  O  O42  1  0.20967105  0.01227814  0.29717662  1
  O  O43  1  0.78842148  0.77689885  0.31204329  1
  O  O44  1  0.98953365  0.20833919  0.29898205  1
  O  O45  1  0.21880555  0.20833919  0.79898205  1
  O  O46  1  0.98847738  0.77689885  0.81204329  1
  O  O47  1  0.80260709  0.01227814  0.79717662  1
  O  O48  1  0.73363394  0.95197796  0.69217488  1
  O  O49  1  0.21034280  0.25199701  0.69695586  1
  O  O50  1  0.04332709  0.80054080  0.70457460  1
  O  O51  1  0.75721371  0.80054080  0.20457460  1
  O  O52  1  0.04165421  0.25199701  0.19695586  1
  O  O53  1  0.21834403  0.95197796  0.19217488  1
  O  O54  1  0.88306547  0.33922371  0.63466941  1
  O  O55  1  0.47176512  0.12387499  0.63378114  1
  O  O56  1  0.65103198  0.53063067  0.62973138  1
  O  O57  1  0.87959969  0.53063067  0.12973138  1
  O  O58  1  0.65211086  0.12387499  0.13378114  1
  O  O59  1  0.45615925  0.33922371  0.13466941  1
  O  O60  1  0.44467843  0.31411332  0.03206013  1
  O  O61  1  0.87953384  0.56008517  0.02716972  1
  O  O62  1  0.68680213  0.13695629  0.03145482  1
  O  O63  1  0.45015516  0.13695629  0.53145482  1
  O  O64  1  0.68055232  0.56008517  0.52716972  1
  O  O65  1  0.86943589  0.31411332  0.53206013  1
  O  O66  1  0.55430473  0.67991201  0.96617788  1
  O  O67  1  0.12539524  0.45225490  0.97458642  1
  O  O68  1  0.32205027  0.86852357  0.96883449  1
  O  O69  1  0.54647230  0.86852357  0.46883449  1
  O  O70  1  0.32685866  0.45225490  0.47458642  1
  O  O71  1  0.12560628  0.67991201  0.46617788  1
  O  O72  1  0.13688353  0.66322094  0.36365384  1
  O  O73  1  0.51014009  0.85260010  0.36627353  1
  O  O74  1  0.33109078  0.49738538  0.36795934  1
  O  O75  1  0.16629360  0.49738538  0.86795934  1
  O  O76  1  0.34245901  0.85260010  0.86627353  1
  O  O77  1  0.52633641  0.66322094  0.86365384  1
  O  O78  1  0.00896056  0.81078530  0.41014887  1
  O  O79  1  0.78543909  0.96231335  0.40945795  1
  O  O80  1  0.18317782  0.20239404  0.41214085  1
  O  O81  1  0.01921622  0.20239404  0.91214085  1
  O  O82  1  0.17687425  0.96231335  0.90945795  1
  O  O83  1  0.80182474  0.81078530  0.91014887  1
  O  O84  1  0.98210083  0.17207530  0.58641553  1
  O  O85  1  0.20159297  0.02646967  0.58775074  1
  O  O86  1  0.81323977  0.80803801  0.58544448  1
  O  O87  1  0.99479824  0.80803801  0.08544448  1
  O  O88  1  0.82487670  0.02646967  0.08775074  1
  O  O89  1  0.18997447  0.17207530  0.08641553  1
  O  O90  1  0.64515806  0.13362309  0.74828900  1
  O  O91  1  0.47578375  0.34511905  0.74645314  1
  O  O92  1  0.85686263  0.51696597  0.75219919  1
  O  O93  1  0.66010433  0.51696597  0.25219919  1
  O  O94  1  0.86933630  0.34511905  0.24645314  1
  O  O95  1  0.48846603  0.13362309  0.24828900  1
  O  O96  1  0.64099826  0.51204685  0.91178073  1
  O  O97  1  0.87962858  0.38383327  0.91021575  1
  O  O98  1  0.48200594  0.12046311  0.91215237  1
  O  O99  1  0.63845817  0.12046311  0.41215237  1
  O  O100  1  0.50420569  0.38383327  0.41021575  1
  O  O101  1  0.87104959  0.51204685  0.41178073  1
  O  O102  1  0.33306510  0.47301282  0.08168601  1
  O  O103  1  0.14058247  0.65211558  0.08009103  1
  O  O104  1  0.51613200  0.87190609  0.08063293  1
  O  O105  1  0.35577309  0.87190609  0.58063293  1
  O  O106  1  0.51153211  0.65211558  0.58009103  1
  O  O107  1  0.13994671  0.47301282  0.58168601  1
  O  O108  1  0.32009395  0.82535607  0.26616157  1
  O  O109  1  0.50705825  0.67437126  0.26791529  1
  O  O110  1  0.16738814  0.48602064  0.26052889  1
  O  O111  1  0.31863150  0.48602064  0.76052889  1
  O  O112  1  0.16731201  0.67437126  0.76791529  1
  O  O113  1  0.50526112  0.82535607  0.76616157  1
