# generated using pymatgen
data_In7Cl9
_symmetry_space_group_name_H-M   'P 1'
_cell_length_a   12.23176280
_cell_length_b   12.23176280
_cell_length_c   12.23176280
_cell_angle_alpha   90.00000000
_cell_angle_beta   90.00000000
_cell_angle_gamma   90.00000000
_symmetry_Int_Tables_number   1
_chemical_formula_structural   In7Cl9
_chemical_formula_sum   'In28 Cl36'
_cell_volume   1830.06768234
_cell_formula_units_Z   4
loop_
 _symmetry_equiv_pos_site_id
 _symmetry_equiv_pos_as_xyz
  1  'x, y, z'
loop_
 _atom_site_type_symbol
 _atom_site_label
 _atom_site_symmetry_multiplicity
 _atom_site_fract_x
 _atom_site_fract_y
 _atom_site_fract_z
 _atom_site_occupancy
  In  In0  1  0.81806715  0.43170652  0.32755390  1
  In  In1  1  0.31806715  0.06829348  0.67244610  1
  In  In2  1  0.18193285  0.93170652  0.17244610  1
  In  In3  1  0.06829348  0.67244610  0.31806715  1
  In  In4  1  0.17244610  0.18193285  0.93170652  1
  In  In5  1  0.67244610  0.31806715  0.06829348  1
  In  In6  1  0.43170652  0.32755390  0.81806715  1
  In  In7  1  0.32755390  0.81806715  0.43170652  1
  In  In8  1  0.93170652  0.17244610  0.18193285  1
  In  In9  1  0.56829348  0.82755390  0.68193285  1
  In  In10  1  0.82755390  0.68193285  0.56829348  1
  In  In11  1  0.68193285  0.56829348  0.82755390  1
  In  In12  1  0.18193285  0.56829348  0.67244610  1
  In  In13  1  0.68193285  0.93170652  0.32755390  1
  In  In14  1  0.81806715  0.06829348  0.82755390  1
  In  In15  1  0.93170652  0.32755390  0.68193285  1
  In  In16  1  0.82755390  0.81806715  0.06829348  1
  In  In17  1  0.32755390  0.68193285  0.93170652  1
  In  In18  1  0.56829348  0.67244610  0.18193285  1
  In  In19  1  0.67244610  0.18193285  0.56829348  1
  In  In20  1  0.06829348  0.82755390  0.81806715  1
  In  In21  1  0.43170652  0.17244610  0.31806715  1
  In  In22  1  0.17244610  0.31806715  0.43170652  1
  In  In23  1  0.31806715  0.43170652  0.17244610  1
  In  In24  1  0.50000000  0.50000000  0.50000000  1
  In  In25  1  0.50000000  0.00000000  0.00000000  1
  In  In26  1  -0.00000000  0.00000000  0.50000000  1
  In  In27  1  -0.00000000  0.50000000  0.00000000  1
  Cl  Cl28  1  0.94990462  0.19644830  0.45557074  1
  Cl  Cl29  1  0.44990462  0.30355170  0.54442926  1
  Cl  Cl30  1  0.05009538  0.69644830  0.04442926  1
  Cl  Cl31  1  0.30355170  0.54442926  0.44990462  1
  Cl  Cl32  1  0.04442926  0.05009538  0.69644830  1
  Cl  Cl33  1  0.54442926  0.44990462  0.30355170  1
  Cl  Cl34  1  0.19644830  0.45557074  0.94990462  1
  Cl  Cl35  1  0.45557074  0.94990462  0.19644830  1
  Cl  Cl36  1  0.69644830  0.04442926  0.05009538  1
  Cl  Cl37  1  0.80355170  0.95557074  0.55009538  1
  Cl  Cl38  1  0.95557074  0.55009538  0.80355170  1
  Cl  Cl39  1  0.55009538  0.80355170  0.95557074  1
  Cl  Cl40  1  0.05009538  0.80355170  0.54442926  1
  Cl  Cl41  1  0.55009538  0.69644830  0.45557074  1
  Cl  Cl42  1  0.94990462  0.30355170  0.95557074  1
  Cl  Cl43  1  0.83398699  0.66601301  0.33398699  1
  Cl  Cl44  1  0.69644830  0.45557074  0.55009538  1
  Cl  Cl45  1  0.45557074  0.55009538  0.69644830  1
  Cl  Cl46  1  0.80355170  0.54442926  0.05009538  1
  Cl  Cl47  1  0.54442926  0.05009538  0.80355170  1
  Cl  Cl48  1  0.30355170  0.95557074  0.94990462  1
  Cl  Cl49  1  0.19644830  0.04442926  0.44990462  1
  Cl  Cl50  1  0.04442926  0.44990462  0.19644830  1
  Cl  Cl51  1  0.44990462  0.19644830  0.04442926  1
  Cl  Cl52  1  0.16601301  0.33398699  0.66601301  1
  Cl  Cl53  1  0.33398699  0.66601301  0.16601301  1
  Cl  Cl54  1  0.66601301  0.16601301  0.33398699  1
  Cl  Cl55  1  0.83398699  0.83398699  0.83398699  1
  Cl  Cl56  1  -0.00000000  0.00000000  0.00000000  1
  Cl  Cl57  1  0.50000000  0.00000000  0.50000000  1
  Cl  Cl58  1  0.50000000  0.50000000  0.00000000  1
  Cl  Cl59  1  -0.00000000  0.50000000  0.50000000  1
  Cl  Cl60  1  0.16601301  0.16601301  0.16601301  1
  Cl  Cl61  1  0.33398699  0.83398699  0.66601301  1
  Cl  Cl62  1  0.66601301  0.33398699  0.83398699  1
  Cl  Cl63  1  0.95557074  0.94990462  0.30355170  1
