# generated using pymatgen
data_Na14Zr8Si11SO48
_symmetry_space_group_name_H-M   'P 1'
_cell_length_a   18.53702434
_cell_length_b   9.27921027
_cell_length_c   23.05797398
_cell_angle_alpha   90.01272806
_cell_angle_beta   90.00771035
_cell_angle_gamma   120.00374294
_symmetry_Int_Tables_number   1
_chemical_formula_structural   Na14Zr8Si11SO48
_chemical_formula_sum   'Na42 Zr24 Si33 S3 O144'
_cell_volume   3434.68096604
_cell_formula_units_Z   3
loop_
 _symmetry_equiv_pos_site_id
 _symmetry_equiv_pos_as_xyz
  1  'x, y, z'
loop_
 _atom_site_type_symbol
 _atom_site_label
 _atom_site_symmetry_multiplicity
 _atom_site_fract_x
 _atom_site_fract_y
 _atom_site_fract_z
 _atom_site_occupancy
  Na  Na0  1  0.32040777  0.99998778  0.24997417  1
  Na  Na1  1  0.82029391  0.00001318  0.25001878  1
  Na  Na2  1  0.32055837  0.64248024  0.75078290  1
  Na  Na3  1  0.81669001  0.63163739  0.74934879  1
  Na  Na4  1  0.50063131  0.36465732  0.75097228  1
  Na  Na5  1  0.68456658  0.00274137  0.74931795  1
  Na  Na6  1  0.15073470  0.33535620  0.58084442  1
  Na  Na7  1  0.65045661  0.33285686  0.58406248  1
  Na  Na8  1  0.01650423  0.69457508  0.58349050  1
  Na  Na9  1  0.51732321  0.70222013  0.58298525  1
  Na  Na10  1  0.33315346  0.96489979  0.58354769  1
  Na  Na11  1  0.83175054  0.96899996  0.58337734  1
  Na  Na12  1  0.15113290  0.96755084  0.08159027  1
  Na  Na13  1  0.65106661  0.96835874  0.08155538  1
  Na  Na14  1  0.33179325  0.69624982  0.08341478  1
  Na  Na15  1  0.83171777  0.69569771  0.08367359  1
  Na  Na16  1  0.01730860  0.33767678  0.08333734  1
  Na  Na17  1  0.51708161  0.33681088  0.08346743  1
  Na  Na18  1  0.48288429  0.66694150  0.91647154  1
  Na  Na19  1  0.98386654  0.66220089  0.91672599  1
  Na  Na20  1  0.34996743  0.03269981  0.91652092  1
  Na  Na21  1  0.84857235  0.03539991  0.91662797  1
  Na  Na22  1  0.16749311  0.30419899  0.91909360  1
  Na  Na23  1  0.66637228  0.29823572  0.91633319  1
  Na  Na24  1  0.48382318  0.30400653  0.41636508  1
  Na  Na25  1  0.98362028  0.30417062  0.41657895  1
  Na  Na26  1  0.16705416  0.03166855  0.41837599  1
  Na  Na27  1  0.66700929  0.03217039  0.41861646  1
  Na  Na28  1  0.34867113  0.66317029  0.41646654  1
  Na  Na29  1  0.84851140  0.66225310  0.41652658  1
  Na  Na30  1  0.00090790  0.00093388  0.49970032  1
  Na  Na31  1  0.50073846  0.99948359  0.50120614  1
  Na  Na32  1  0.00136120  0.00197777  0.00037957  1
  Na  Na33  1  0.50044781  0.99993202  0.99871218  1
  Na  Na34  1  0.33371035  0.32693977  0.83445919  1
  Na  Na35  1  0.83780771  0.33422839  0.83097340  1
  Na  Na36  1  0.33837816  0.34894740  0.33180392  1
  Na  Na37  1  0.83829777  0.34895491  0.33201383  1
  Na  Na38  1  0.16386765  0.65112873  0.16796748  1
  Na  Na39  1  0.66387649  0.65099948  0.16818758  1
  Na  Na40  1  0.16346098  0.67607431  0.66785686  1
  Na  Na41  1  0.66711452  0.66722955  0.66677391  1
  Zr  Zr42  1  0.99385078  0.99628719  0.35207784  1
  Zr  Zr43  1  0.49388970  0.99642074  0.35219561  1
  Zr  Zr44  1  0.99461414  0.99142277  0.85260475  1
  Zr  Zr45  1  0.49915179  0.99990231  0.85063227  1
  Zr  Zr46  1  0.99584734  0.98782402  0.64727374  1
  Zr  Zr47  1  0.49969899  0.99970788  0.64943968  1
  Zr  Zr48  1  0.99572455  0.00363823  0.14790559  1
  Zr  Zr49  1  0.49568802  0.00376082  0.14779841  1
  Zr  Zr50  1  0.33528583  0.32820503  0.68310311  1
  Zr  Zr51  1  0.83727114  0.33524366  0.68652409  1
  Zr  Zr52  1  0.33920363  0.34876952  0.18508080  1
  Zr  Zr53  1  0.83921476  0.34892219  0.18506627  1
  Zr  Zr54  1  0.33361400  0.33521094  0.98254139  1
  Zr  Zr55  1  0.83331829  0.33324705  0.98243864  1
  Zr  Zr56  1  0.33363930  0.33383199  0.48202078  1
  Zr  Zr57  1  0.83409987  0.33256637  0.48239748  1
  Zr  Zr58  1  0.16702127  0.66583830  0.01762061  1
  Zr  Zr59  1  0.66685205  0.66652756  0.01797544  1
  Zr  Zr60  1  0.16660095  0.66650325  0.51759172  1
  Zr  Zr61  1  0.66640114  0.66715849  0.51748175  1
  Zr  Zr62  1  0.16477571  0.65130031  0.31494971  1
  Zr  Zr63  1  0.66478185  0.65105185  0.31498919  1
  Zr  Zr64  1  0.16472515  0.67771590  0.81579847  1
  Zr  Zr65  1  0.66686492  0.66735439  0.81484794  1
  Si  Si66  1  0.35085955  0.70244231  0.25019356  1
  Si  Si67  1  0.85079124  0.70238677  0.25017336  1
  Si  Si68  1  0.99963955  0.29751525  0.24981594  1
  Si  Si69  1  0.49964939  0.29747953  0.24982193  1
  Si  Si70  1  0.64783473  0.29504570  0.74999415  1
  Si  Si71  1  0.00161406  0.70470625  0.74972243  1
  Si  Si72  1  0.49850421  0.70285338  0.75002163  1
  Si  Si73  1  0.35061853  0.99779637  0.74991758  1
  Si  Si74  1  0.85258826  0.00193170  0.75027973  1
  Si  Si75  1  0.48159206  0.33321179  0.58255930  1
  Si  Si76  1  0.98145572  0.33393495  0.58299374  1
  Si  Si77  1  0.18619266  0.03957805  0.58256583  1
  Si  Si78  1  0.68652051  0.04021348  0.58400851  1
  Si  Si79  1  0.33283727  0.62642523  0.58446017  1
  Si  Si80  1  0.83186577  0.62379627  0.58372205  1
  Si  Si81  1  0.48205543  0.63069815  0.08236342  1
  Si  Si82  1  0.98205614  0.63052624  0.08212519  1
  Si  Si83  1  0.33160323  0.04099211  0.08473629  1
  Si  Si84  1  0.83170661  0.04081021  0.08489132  1
  Si  Si85  1  0.18675218  0.33197733  0.08358735  1
  Si  Si86  1  0.68684591  0.33196584  0.08352685  1
  Si  Si87  1  0.31276337  0.66551793  0.91489799  1
  Si  Si88  1  0.81285707  0.66409313  0.91679209  1
  Si  Si89  1  0.02032631  0.37305440  0.91665776  1
  Si  Si90  1  0.51936621  0.37208528  0.91651260  1
  Si  Si91  1  0.16707170  0.96395336  0.91817181  1
  Si  Si92  1  0.66648040  0.96146911  0.91667077  1
  Si  Si93  1  0.31127153  0.95921169  0.41517223  1
  Si  Si94  1  0.81127992  0.95920197  0.41510132  1
  Si  Si95  1  0.16669059  0.36959547  0.41771717  1
  Si  Si96  1  0.66679141  0.36967261  0.41797669  1
  Si  Si97  1  0.02076171  0.66801998  0.41647529  1
  Si  Si98  1  0.52069374  0.66800588  0.41631971  1
  S  S99  1  0.14692636  0.00003062  0.25001742  1
  S  S100  1  0.64692246  -0.00001732  0.24998975  1
  S  S101  1  0.14728683  0.29439670  0.74993072  1
  O  O102  1  0.10559291  0.01937859  0.30259920  1
  O  O103  1  0.60559824  0.01937470  0.30258693  1
  O  O104  1  0.40898233  0.79444648  0.30782418  1
  O  O105  1  0.90898558  0.79447328  0.30779250  1
  O  O106  1  0.48759406  0.17772853  0.30662380  1
  O  O107  1  0.98762836  0.17768028  0.30661714  1
  O  O108  1  0.10616309  0.19204588  0.80263251  1
  O  O109  1  0.60294835  0.17580522  0.80693258  1
  O  O110  1  0.48344274  0.79154840  0.80694887  1
  O  O111  1  0.98881846  0.79934279  0.80665182  1
  O  O112  1  0.41087312  0.03122834  0.80710030  1
  O  O113  1  0.91004553  0.02432708  0.80779460  1
  O  O114  1  0.39622894  0.97127984  0.69261006  1
  O  O115  1  0.89873256  0.97341433  0.69362106  1
  O  O116  1  0.09627836  0.21129736  0.69725085  1
  O  O117  1  0.58759449  0.20744802  0.69308416  1
  O  O118  1  0.01306646  0.82083087  0.69216880  1
  O  O119  1  0.51447392  0.82183178  0.69299409  1
  O  O120  1  0.39871095  0.82227142  0.19339245  1
  O  O121  1  0.89869266  0.82226258  0.19338595  1
  O  O122  1  0.01164188  0.20516052  0.19225239  1
  O  O123  1  0.51165541  0.20527367  0.19224223  1
  O  O124  1  0.09590735  0.98062956  0.19740258  1
  O  O125  1  0.59591850  0.98058355  0.19738576  1
  O  O126  1  0.43764775  0.36531546  0.63968662  1
  O  O127  1  0.93512154  0.36774329  0.63691930  1
  O  O128  1  0.24861407  0.13257497  0.63727989  1
  O  O129  1  0.74618917  0.12757420  0.64038354  1
  O  O130  1  0.31698067  0.50712607  0.64136047  1
  O  O131  1  0.81695287  0.50830772  0.64052818  1
  O  O132  1  0.43658420  0.50395956  0.13686309  1
  O  O133  1  0.93642441  0.50413171  0.13673945  1
  O  O134  1  0.31622576  0.12667012  0.14152631  1
  O  O135  1  0.81624962  0.12667791  0.14157878  1
  O  O136  1  0.24995531  0.36435528  0.13739829  1
  O  O137  1  0.75000429  0.36452954  0.13743963  1
  O  O138  1  0.22753944  0.29930111  0.02483659  1
  O  O139  1  0.72805765  0.29981063  0.02493851  1
  O  O140  1  0.42240039  0.54770446  0.02501428  1
  O  O141  1  0.92227288  0.54754961  0.02485866  1
  O  O142  1  0.34942859  0.15916232  0.02700251  1
  O  O143  1  0.84960663  0.15846662  0.02705652  1
  O  O144  1  0.22773237  0.15582784  0.52473121  1
  O  O145  1  0.72976893  0.15745190  0.52619362  1
  O  O146  1  0.34843355  0.53869779  0.52728836  1
  O  O147  1  0.84991233  0.54184069  0.52612416  1
  O  O148  1  0.42149784  0.30160644  0.52610940  1
  O  O149  1  0.92272565  0.29710540  0.52492568  1
  O  O150  1  0.26958389  0.69732943  0.97259966  1
  O  O151  1  0.77151447  0.70000743  0.97392978  1
  O  O152  1  0.07782892  0.45528029  0.97511634  1
  O  O153  1  0.57871864  0.45952264  0.97362848  1
  O  O154  1  0.14852688  0.84426582  0.97529172  1
  O  O155  1  0.65115026  0.84284131  0.97380594  1
  O  O156  1  0.27023295  0.84113498  0.47296771  1
  O  O157  1  0.77032821  0.84148567  0.47291627  1
  O  O158  1  0.14865118  0.45266467  0.47509473  1
  O  O159  1  0.64859298  0.45313157  0.47514540  1
  O  O160  1  0.07804126  0.70055442  0.47514032  1
  O  O161  1  0.57788324  0.70022399  0.47498254  1
  O  O162  1  0.06774494  0.63567524  0.36263975  1
  O  O163  1  0.56764663  0.63530984  0.36253953  1
  O  O164  1  0.25289567  0.87338063  0.35843001  1
  O  O165  1  0.75298421  0.87341543  0.35836145  1
  O  O166  1  0.18439630  0.49600157  0.36314626  1
  O  O167  1  0.68445593  0.49596712  0.36327943  1
  O  O168  1  0.06708401  0.49907361  0.86259754  1
  O  O169  1  0.56322476  0.49093904  0.85971539  1
  O  O170  1  0.18428721  0.87305315  0.86327594  1
  O  O171  1  0.68244823  0.87388239  0.85982363  1
  O  O172  1  0.25312523  0.63235036  0.85823700  1
  O  O173  1  0.75479852  0.63540022  0.85973533  1
  O  O174  1  0.01312320  0.83672343  0.40993928  1
  O  O175  1  0.51308333  0.83658312  0.40982607  1
  O  O176  1  0.40491428  0.97725107  0.41102933  1
  O  O177  1  0.90504644  0.97748774  0.41108492  1
  O  O178  1  0.08418207  0.18474888  0.40958487  1
  O  O179  1  0.58434487  0.18506134  0.40947275  1
  O  O180  1  0.01319839  0.18957068  0.90984831  1
  O  O181  1  0.51086723  0.18758500  0.91186954  1
  O  O182  1  0.08458505  0.98412093  0.90972742  1
  O  O183  1  0.58249258  0.97787746  0.91179702  1
  O  O184  1  0.40531135  0.83367625  0.91106786  1
  O  O185  1  0.90605095  0.83343934  0.91177731  1
  O  O186  1  0.48893318  0.16512234  0.58791861  1
  O  O187  1  0.99198332  0.16898196  0.59090667  1
  O  O188  1  0.09466732  0.02608550  0.58970016  1
  O  O189  1  0.59370550  0.02205267  0.58831172  1
  O  O190  1  0.41673168  0.81096761  0.58882276  1
  O  O191  1  0.91659158  0.81113005  0.58827511  1
  O  O192  1  0.49189463  0.81512535  0.09062482  1
  O  O193  1  0.99178109  0.81509440  0.09048103  1
  O  O194  1  0.41615633  0.02265607  0.08894699  1
  O  O195  1  0.91634156  0.02252794  0.08888633  1
  O  O196  1  0.09467980  0.16321423  0.09006222  1
  O  O197  1  0.59483953  0.16333911  0.09015257  1
  O  O198  1  0.34637638  0.17036153  0.74474864  1
  O  O199  1  0.83825073  0.16048906  0.74614507  1
  O  O200  1  0.23119208  0.31285120  0.74550484  1
  O  O201  1  0.73933177  0.31160300  0.74516555  1
  O  O202  1  0.41316699  0.51932364  0.74530917  1
  O  O203  1  0.91310090  0.52952561  0.74524049  1
  O  O204  1  0.34063028  0.51776399  0.24573574  1
  O  O205  1  0.84066241  0.51785787  0.24576601  1
  O  O206  1  0.40989251  0.29344768  0.24548901  1
  O  O207  1  0.90989524  0.29338662  0.24547185  1
  O  O208  1  0.23080571  0.14876715  0.24560558  1
  O  O209  1  0.73082406  0.14875868  0.24558755  1
  O  O210  1  0.32186081  0.49867311  0.92131729  1
  O  O211  1  0.82307692  0.49961609  0.92165242  1
  O  O212  1  0.42697705  0.35508410  0.92163146  1
  O  O213  1  0.92751033  0.35351433  0.92183015  1
  O  O214  1  0.25103276  0.14742167  0.92210197  1
  O  O215  1  0.75066070  0.14533816  0.92200946  1
  O  O216  1  0.32260147  0.14536787  0.42163059  1
  O  O217  1  0.82252630  0.14547360  0.42143727  1
  O  O218  1  0.25079135  0.35462027  0.42200909  1
  O  O219  1  0.75092076  0.35439433  0.42243489  1
  O  O220  1  0.42772774  0.50169924  0.42163922  1
  O  O221  1  0.92783611  0.50161628  0.42166601  1
  O  O222  1  0.17722912  0.49858176  0.07842480  1
  O  O223  1  0.67715182  0.49829739  0.07829140  1
  O  O224  1  0.07369460  0.64562871  0.07786781  1
  O  O225  1  0.57366182  0.64577435  0.07786767  1
  O  O226  1  0.24987051  0.85434370  0.07821619  1
  O  O227  1  0.74987063  0.85440496  0.07849094  1
  O  O228  1  0.17714423  0.85481292  0.57826680  1
  O  O229  1  0.67794804  0.85528546  0.57813276  1
  O  O230  1  0.24921443  0.64400765  0.57851805  1
  O  O231  1  0.74993633  0.64633253  0.57818038  1
  O  O232  1  0.07349282  0.50138075  0.57793055  1
  O  O233  1  0.57313004  0.50165469  0.57854183  1
  O  O234  1  0.15638098  0.85138291  0.25442501  1
  O  O235  1  0.65640665  0.85136507  0.25442582  1
  O  O236  1  0.26314980  0.70657594  0.25454426  1
  O  O237  1  0.76314058  0.70658697  0.25451466  1
  O  O238  1  0.08179858  0.48222301  0.25421447  1
  O  O239  1  0.58180151  0.48225098  0.25419308  1
  O  O240  1  0.15676920  0.46133793  0.75435914  1
  O  O241  1  0.65512312  0.47848796  0.75502395  1
  O  O242  1  0.08371100  0.68420189  0.75421216  1
  O  O243  1  0.58215689  0.68551414  0.75474482  1
  O  O244  1  0.26253421  0.82139358  0.75492654  1
  O  O245  1  0.76133812  0.82974795  0.75462850  1
