# generated using pymatgen
data_Na10Mg2Si7Sn6S5O48
_symmetry_space_group_name_H-M   'P 1'
_cell_length_a   18.00688225
_cell_length_b   9.04808461
_cell_length_c   22.51205524
_cell_angle_alpha   90.11270793
_cell_angle_beta   89.65507636
_cell_angle_gamma   120.15231041
_symmetry_Int_Tables_number   1
_chemical_formula_structural   Na10Mg2Si7Sn6S5O48
_chemical_formula_sum   'Na30 Mg6 Si21 Sn18 S15 O144'
_cell_volume   3171.49598964
_cell_formula_units_Z   3
loop_
 _symmetry_equiv_pos_site_id
 _symmetry_equiv_pos_as_xyz
  1  'x, y, z'
loop_
 _atom_site_type_symbol
 _atom_site_label
 _atom_site_symmetry_multiplicity
 _atom_site_fract_x
 _atom_site_fract_y
 _atom_site_fract_z
 _atom_site_occupancy
  Na  Na0  1  0.81812002  0.01194066  0.24819286  1
  Na  Na1  1  0.18697178  0.37540407  0.24567459  1
  Na  Na2  1  0.69064327  0.35923048  0.25737493  1
  Na  Na3  1  0.99061765  0.61185929  0.25682603  1
  Na  Na4  1  0.49452511  0.63486546  0.24212794  1
  Na  Na5  1  0.31913690  0.62482023  0.74854248  1
  Na  Na6  1  0.99457333  0.35392844  0.74456387  1
  Na  Na7  1  0.49122060  0.37325723  0.75594832  1
  Na  Na8  1  0.19258450  0.02484970  0.74919589  1
  Na  Na9  1  0.68715682  0.99754674  0.74674746  1
  Na  Na10  1  0.14843207  0.32721702  0.57924636  1
  Na  Na11  1  0.01501087  0.69105601  0.58374583  1
  Na  Na12  1  0.48784563  0.66512676  0.91937974  1
  Na  Na13  1  0.99280935  0.67237459  0.92216831  1
  Na  Na14  1  0.84874990  0.03116475  0.91261428  1
  Na  Na15  1  0.49384093  0.31576967  0.42202682  1
  Na  Na16  1  0.16401372  0.02334269  0.42140512  1
  Na  Na17  1  0.34846080  0.66459722  0.41250554  1
  Na  Na18  1  0.99267161  0.00397500  0.49879186  1
  Na  Na19  1  0.51626569  0.00989460  0.49506612  1
  Na  Na20  1  0.01444876  0.02209629  0.99498961  1
  Na  Na21  1  0.50430639  0.01648035  0.99957239  1
  Na  Na22  1  0.32622000  0.31040426  0.83081649  1
  Na  Na23  1  0.83003140  0.33340358  0.83396168  1
  Na  Na24  1  0.33694604  0.34113540  0.33214980  1
  Na  Na25  1  0.83151957  0.34026955  0.33183349  1
  Na  Na26  1  0.17950549  0.67403087  0.16365903  1
  Na  Na27  1  0.66106148  0.67286293  0.16323605  1
  Na  Na28  1  0.17258483  0.68035654  0.66436547  1
  Na  Na29  1  0.67668540  0.68295901  0.66365227  1
  Mg  Mg30  1  0.33108493  0.32379331  0.68978192  1
  Mg  Mg31  1  0.83695148  0.32731835  0.68204030  1
  Mg  Mg32  1  0.33944168  0.34872357  0.18106482  1
  Mg  Mg33  1  0.83389230  0.33426224  0.18986608  1
  Mg  Mg34  1  0.16305850  0.67246457  0.01621935  1
  Mg  Mg35  1  0.66183384  0.65329475  0.51606150  1
  Si  Si36  1  0.64617176  0.99551460  0.24984446  1
  Si  Si37  1  0.35036268  0.70265547  0.25167795  1
  Si  Si38  1  0.85231345  0.71028097  0.24939224  1
  Si  Si39  1  0.00276699  0.29631884  0.24993193  1
  Si  Si40  1  0.14716392  0.30033374  0.75014466  1
  Si  Si41  1  0.50298251  0.70924568  0.75084984  1
  Si  Si42  1  0.35295644  0.99584175  0.75014543  1
  Si  Si43  1  0.85126530  0.99712585  0.75083262  1
  Si  Si44  1  0.97763840  0.33343855  0.58297856  1
  Si  Si45  1  0.18624957  0.03566480  0.58838897  1
  Si  Si46  1  0.48274982  0.62787867  0.08271778  1
  Si  Si47  1  0.80976206  0.66731925  0.91808745  1
  Si  Si48  1  0.02390004  0.38027416  0.92173388  1
  Si  Si49  1  0.51940159  0.36633268  0.91427303  1
  Si  Si50  1  0.16875718  0.96510932  0.91772260  1
  Si  Si51  1  0.66466578  0.96443571  0.91665082  1
  Si  Si52  1  0.31179598  0.95420589  0.41612735  1
  Si  Si53  1  0.16452172  0.36829621  0.41865639  1
  Si  Si54  1  0.66836983  0.37214706  0.41716896  1
  Si  Si55  1  0.01567727  0.66558357  0.41307608  1
  Si  Si56  1  0.52277198  0.66685271  0.42182502  1
  Sn  Sn57  1  0.99480164  0.99783243  0.35421197  1
  Sn  Sn58  1  0.50401706  0.99161545  0.35494730  1
  Sn  Sn59  1  0.00251631  0.01446298  0.85562753  1
  Sn  Sn60  1  0.49947702  0.00216386  0.85321311  1
  Sn  Sn61  1  0.99862290  0.01864893  0.64652615  1
  Sn  Sn62  1  0.49884264  0.99162255  0.64984782  1
  Sn  Sn63  1  0.99772245  0.00835843  0.14888499  1
  Sn  Sn64  1  0.49434319  0.96680065  0.14587728  1
  Sn  Sn65  1  0.33568016  0.32175677  0.98165813  1
  Sn  Sn66  1  0.83167820  0.33818253  0.98059080  1
  Sn  Sn67  1  0.33084067  0.32515546  0.48217932  1
  Sn  Sn68  1  0.83352420  0.33876247  0.47846314  1
  Sn  Sn69  1  0.65918008  0.65958401  0.01453151  1
  Sn  Sn70  1  0.16262102  0.66869675  0.51505755  1
  Sn  Sn71  1  0.16765882  0.66275166  0.31738888  1
  Sn  Sn72  1  0.66612914  0.66275519  0.31923182  1
  Sn  Sn73  1  0.16687043  0.67149545  0.81973576  1
  Sn  Sn74  1  0.66994851  0.67675223  0.81734511  1
  S  S75  1  0.14842685  0.00103738  0.24749832  1
  S  S76  1  0.49728364  0.28384670  0.24821116  1
  S  S77  1  0.64894806  0.29644983  0.74716185  1
  S  S78  1  0.99613871  0.70484619  0.74931321  1
  S  S79  1  0.48365200  0.32848660  0.58715185  1
  S  S80  1  0.68282533  0.03837662  0.58557208  1
  S  S81  1  0.33885811  0.63324074  0.58381981  1
  S  S82  1  0.82968716  0.62393574  0.58592877  1
  S  S83  1  0.98178943  0.63630494  0.08701048  1
  S  S84  1  0.33459686  0.03664550  0.08662266  1
  S  S85  1  0.83574604  0.04197673  0.08350302  1
  S  S86  1  0.18315351  0.32655487  0.08576983  1
  S  S87  1  0.68579401  0.33253840  0.08689539  1
  S  S88  1  0.31243536  0.66311925  0.91976391  1
  S  S89  1  0.81160175  0.96012017  0.41964164  1
  O  O90  1  0.11276850  0.03449522  0.30303992  1
  O  O91  1  0.60680443  0.05208285  0.30517960  1
  O  O92  1  0.41129212  0.78703076  0.31030273  1
  O  O93  1  0.91869797  0.79489245  0.30516512  1
  O  O94  1  0.48813787  0.19348291  0.30520528  1
  O  O95  1  0.98268358  0.16908481  0.30704495  1
  O  O96  1  0.10148671  0.15692616  0.80226386  1
  O  O97  1  0.61200256  0.18471087  0.80072384  1
  O  O98  1  0.48489485  0.79119005  0.81123835  1
  O  O99  1  0.98779816  0.78356530  0.80478032  1
  O  O100  1  0.41882184  0.03649559  0.80523931  1
  O  O101  1  0.91067235  0.03455563  0.81019362  1
  O  O102  1  0.39218873  0.94358892  0.69178635  1
  O  O103  1  0.89486932  0.96139221  0.69236135  1
  O  O104  1  0.08818386  0.23088621  0.68885627  1
  O  O105  1  0.59138445  0.21827138  0.69415437  1
  O  O106  1  0.00878817  0.81113268  0.69539593  1
  O  O107  1  0.53479096  0.85239213  0.69617300  1
  O  O108  1  0.39055154  0.82301456  0.19264554  1
  O  O109  1  0.89210429  0.84369636  0.19193415  1
  O  O110  1  0.03493100  0.22270489  0.19350117  1
  O  O111  1  0.51177104  0.19839641  0.19672695  1
  O  O112  1  0.08914344  0.96604285  0.19582186  1
  O  O113  1  0.58146475  0.94355072  0.19245976  1
  O  O114  1  0.43764402  0.33743147  0.63971868  1
  O  O115  1  0.94325943  0.37328113  0.64346393  1
  O  O116  1  0.23747578  0.12735828  0.64689873  1
  O  O117  1  0.72845505  0.12583845  0.64044498  1
  O  O118  1  0.33514236  0.53572293  0.63640458  1
  O  O119  1  0.81917475  0.51713671  0.63771995  1
  O  O120  1  0.44193829  0.53406057  0.14455074  1
  O  O121  1  0.93419523  0.53417275  0.13914714  1
  O  O122  1  0.32417611  0.12623066  0.13738779  1
  O  O123  1  0.83242371  0.13103236  0.13674019  1
  O  O124  1  0.22817174  0.32998479  0.14096926  1
  O  O125  1  0.73458689  0.34220192  0.13990009  1
  O  O126  1  0.22676384  0.30721437  0.03202787  1
  O  O127  1  0.72469347  0.30254400  0.03175286  1
  O  O128  1  0.42463102  0.53274450  0.02249436  1
  O  O129  1  0.93090572  0.55864192  0.03060635  1
  O  O130  1  0.34497497  0.13217412  0.02943040  1
  O  O131  1  0.84240406  0.13918666  0.02758508  1
  O  O132  1  0.22426101  0.15937522  0.52760214  1
  O  O133  1  0.72476239  0.14389104  0.53150422  1
  O  O134  1  0.34709102  0.55420293  0.52725345  1
  O  O135  1  0.84414603  0.54809820  0.53011238  1
  O  O136  1  0.43304524  0.30449858  0.53078208  1
  O  O137  1  0.91768979  0.31132470  0.52532844  1
  O  O138  1  0.26773739  0.68020453  0.97050407  1
  O  O139  1  0.77058216  0.71796090  0.97569097  1
  O  O140  1  0.08210877  0.46889600  0.97689869  1
  O  O141  1  0.57877224  0.44746523  0.97264981  1
  O  O142  1  0.15161435  0.84020382  0.97193506  1
  O  O143  1  0.64108947  0.83098205  0.97102864  1
  O  O144  1  0.27329011  0.82354019  0.47289135  1
  O  O145  1  0.76685006  0.85500201  0.47071151  1
  O  O146  1  0.15340536  0.45285535  0.47958029  1
  O  O147  1  0.65206233  0.46464018  0.47124127  1
  O  O148  1  0.07736745  0.71072215  0.47198250  1
  O  O149  1  0.58119181  0.69587504  0.47703645  1
  O  O150  1  0.05938241  0.64496955  0.35195839  1
  O  O151  1  0.55532800  0.62029098  0.35763160  1
  O  O152  1  0.24527363  0.88219826  0.36015369  1
  O  O153  1  0.76832326  0.88693085  0.36095053  1
  O  O154  1  0.18628057  0.48788953  0.35961020  1
  O  O155  1  0.68446018  0.47652321  0.35230798  1
  O  O156  1  0.05628182  0.49144810  0.85776512  1
  O  O157  1  0.55972534  0.48472135  0.85395638  1
  O  O158  1  0.18524185  0.89417943  0.85261662  1
  O  O159  1  0.68896700  0.89732168  0.85561319  1
  O  O160  1  0.26812969  0.64710360  0.86132651  1
  O  O161  1  0.75062078  0.62273840  0.85912730  1
  O  O162  1  0.01087902  0.84313654  0.41116057  1
  O  O163  1  0.50112773  0.82164401  0.41525314  1
  O  O164  1  0.40754335  0.98213746  0.40763409  1
  O  O165  1  0.89901009  0.97843576  0.41740690  1
  O  O166  1  0.08253940  0.17440323  0.41196482  1
  O  O167  1  0.57721088  0.18827135  0.41074219  1
  O  O168  1  0.00254310  0.18235673  0.91534442  1
  O  O169  1  0.50562980  0.17449928  0.91141202  1
  O  O170  1  0.07783853  0.96771923  0.91052069  1
  O  O171  1  0.57697598  0.97460518  0.91132608  1
  O  O172  1  0.40096021  0.81688725  0.91686360  1
  O  O173  1  0.90604585  0.83521678  0.91034134  1
  O  O174  1  0.49195660  0.16831612  0.58844067  1
  O  O175  1  0.99065560  0.16472530  0.58095553  1
  O  O176  1  0.08473041  0.00138773  0.58980976  1
  O  O177  1  0.59402970  0.02445397  0.58512358  1
  O  O178  1  0.41659966  0.81018946  0.58305680  1
  O  O179  1  0.91394010  0.79181803  0.58944059  1
  O  O180  1  0.49281640  0.82219875  0.07776239  1
  O  O181  1  0.99052124  0.81286810  0.08865893  1
  O  O182  1  0.41813945  0.03484804  0.08932059  1
  O  O183  1  0.91687669  0.02989147  0.08215969  1
  O  O184  1  0.09467730  0.16169615  0.08444452  1
  O  O185  1  0.59606594  0.18411376  0.08902155  1
  O  O186  1  0.34426476  0.16364865  0.74616597  1
  O  O187  1  0.83955884  0.16521760  0.74507062  1
  O  O188  1  0.24307119  0.33222504  0.74489217  1
  O  O189  1  0.73376118  0.31424774  0.73862200  1
  O  O190  1  0.41873958  0.52694617  0.74043684  1
  O  O191  1  0.92081250  0.53209774  0.74520738  1
  O  O192  1  0.33861187  0.51083170  0.24674041  1
  O  O193  1  0.84078079  0.52282278  0.24203577  1
  O  O194  1  0.42214203  0.30656468  0.24274320  1
  O  O195  1  0.91834061  0.31118421  0.24117659  1
  O  O196  1  0.23302573  0.15346057  0.23845696  1
  O  O197  1  0.74126065  0.15641231  0.24117286  1
  O  O198  1  0.32290734  0.50981007  0.92175050  1
  O  O199  1  0.82721066  0.50729978  0.92643249  1
  O  O200  1  0.42683892  0.36367134  0.91907313  1
  O  O201  1  0.92551172  0.36003869  0.92533983  1
  O  O202  1  0.25039372  0.16291813  0.92298495  1
  O  O203  1  0.75224839  0.14869364  0.92590327  1
  O  O204  1  0.32226243  0.14345087  0.42558866  1
  O  O205  1  0.82075201  0.13233787  0.42082678  1
  O  O206  1  0.25219325  0.35260022  0.42237334  1
  O  O207  1  0.74850966  0.33357831  0.42150498  1
  O  O208  1  0.42506394  0.48858348  0.42605357  1
  O  O209  1  0.92233689  0.49364606  0.41838534  1
  O  O210  1  0.17393355  0.47780352  0.08231845  1
  O  O211  1  0.68428184  0.49491470  0.08113314  1
  O  O212  1  0.06683190  0.65349090  0.08361543  1
  O  O213  1  0.57990990  0.64671335  0.07954433  1
  O  O214  1  0.26121362  0.86143110  0.08163005  1
  O  O215  1  0.75912197  0.86903610  0.08135554  1
  O  O216  1  0.17493061  0.84435817  0.57909739  1
  O  O217  1  0.67421100  0.86907973  0.58220602  1
  O  O218  1  0.25828241  0.64127707  0.58212390  1
  O  O219  1  0.75746340  0.65403501  0.57979264  1
  O  O220  1  0.07715377  0.50225827  0.57698319  1
  O  O221  1  0.56921289  0.48072115  0.58330380  1
  O  O222  1  0.15238242  0.84193451  0.25132996  1
  O  O223  1  0.64937534  0.81652865  0.25899035  1
  O  O224  1  0.25505672  0.68559537  0.25521194  1
  O  O225  1  0.75764455  0.69912621  0.25569260  1
  O  O226  1  0.08732125  0.48923880  0.25495471  1
  O  O227  1  0.57788923  0.45901653  0.24973131  1
  O  O228  1  0.14902438  0.48438151  0.75947791  1
  O  O229  1  0.65195283  0.46160533  0.75321446  1
  O  O230  1  0.07711010  0.69332542  0.75072415  1
  O  O231  1  0.58790229  0.68519457  0.75451666  1
  O  O232  1  0.25793678  0.81798968  0.75561744  1
  O  O233  1  0.75605496  0.82300336  0.75299043  1
