# generated using pymatgen
data_Na12Ca4Ta2Si6(SO12)3
_symmetry_space_group_name_H-M   'P 1'
_cell_length_a   9.45076816
_cell_length_b   9.43184727
_cell_length_c   22.69223108
_cell_angle_alpha   90.32953718
_cell_angle_beta   90.00000000
_cell_angle_gamma   120.06638227
_symmetry_Int_Tables_number   1
_chemical_formula_structural   Na12Ca4Ta2Si6(SO12)3
_chemical_formula_sum   'Na24 Ca8 Ta4 Si12 S6 O72'
_cell_volume   1750.53667649
_cell_formula_units_Z   2
loop_
 _symmetry_equiv_pos_site_id
 _symmetry_equiv_pos_as_xyz
  1  'x, y, z'
loop_
 _atom_site_type_symbol
 _atom_site_label
 _atom_site_symmetry_multiplicity
 _atom_site_fract_x
 _atom_site_fract_y
 _atom_site_fract_z
 _atom_site_occupancy
  Na  Na0  1  0.65720681  0.02217162  0.25861789  1
  Na  Na1  1  0.33269254  0.32425009  0.25415034  1
  Na  Na2  1  0.00106811  0.64580344  0.23448111  1
  Na  Na3  1  0.64473532  0.64580344  0.73448111  1
  Na  Na4  1  0.99155755  0.32425009  0.75415034  1
  Na  Na5  1  0.36496481  0.02217162  0.75861789  1
  Na  Na6  1  0.30962393  0.35206711  0.58613460  1
  Na  Na7  1  0.02847246  0.70934919  0.57251768  1
  Na  Na8  1  0.66470731  0.93951483  0.57962492  1
  Na  Na9  1  0.27480852  0.93951483  0.07962492  1
  Na  Na10  1  0.68087773  0.70934919  0.07251768  1
  Na  Na11  1  0.04244418  0.35206711  0.08613460  1
  Na  Na12  1  0.00274636  0.70184104  0.91661312  1
  Na  Na13  1  0.70991132  0.01947623  0.90432318  1
  Na  Na14  1  0.30339797  0.28202055  0.90513905  1
  Na  Na15  1  0.97862158  0.28202055  0.40513905  1
  Na  Na16  1  0.30956391  0.01947623  0.40432318  1
  Na  Na17  1  0.69909368  0.70184104  0.41661312  1
  Na  Na18  1  0.98748054  0.98907236  0.49000058  1
  Na  Na19  1  0.00159182  0.98907236  0.99000058  1
  Na  Na20  1  0.64731142  0.31680828  0.82494866  1
  Na  Na21  1  0.66949786  0.31680828  0.32494866  1
  Na  Na22  1  0.29703276  0.66354388  0.16967671  1
  Na  Na23  1  0.36651013  0.66354388  0.66967671  1
  Ca  Ca24  1  0.00235416  0.00143894  0.34637994  1
  Ca  Ca25  1  0.99908478  0.00143894  0.84637994  1
  Ca  Ca26  1  0.98844271  0.00272843  0.65279537  1
  Ca  Ca27  1  0.01428572  0.00272843  0.15279537  1
  Ca  Ca28  1  0.66158782  0.33519509  0.68439255  1
  Ca  Ca29  1  0.67360827  0.33519509  0.18439255  1
  Ca  Ca30  1  0.33043768  0.66704863  0.01372300  1
  Ca  Ca31  1  0.33660995  0.66704863  0.51372300  1
  Ta  Ta32  1  0.67893480  0.34400979  0.97378666  1
  Ta  Ta33  1  0.66507599  0.34400979  0.47378666  1
  Ta  Ta34  1  0.32296735  0.66635457  0.32340390  1
  Ta  Ta35  1  0.34338621  0.66635457  0.82340390  1
  Si  Si36  1  0.31006598  0.98934757  0.25194120  1
  Si  Si37  1  0.00911855  0.31636439  0.25145374  1
  Si  Si38  1  0.30724584  0.31636439  0.75145374  1
  Si  Si39  1  0.67928158  0.98934757  0.75194120  1
  Si  Si40  1  0.67194689  0.63502773  0.58375169  1
  Si  Si41  1  0.96308183  0.63502773  0.08375169  1
  Si  Si42  1  0.63524129  0.66280969  0.92307103  1
  Si  Si43  1  0.03435073  0.37027274  0.92058992  1
  Si  Si44  1  0.34061853  0.97005156  0.92276626  1
  Si  Si45  1  0.62943203  0.97005156  0.42276626  1
  Si  Si46  1  0.33592101  0.37027274  0.42058992  1
  Si  Si47  1  0.02756740  0.66280969  0.42307103  1
  S  S48  1  0.67852500  0.69532102  0.25154087  1
  S  S49  1  0.01679602  0.69532102  0.75154087  1
  S  S50  1  0.95134199  0.32864223  0.58018568  1
  S  S51  1  0.37365630  0.04705821  0.57989217  1
  S  S52  1  0.67340291  0.04705821  0.07989217  1
  S  S53  1  0.37730124  0.32864223  0.08018568  1
  O  O54  1  0.22257588  0.01433840  0.30860410  1
  O  O55  1  0.78008919  0.76936441  0.30403661  1
  O  O56  1  0.97266569  0.19700438  0.30691701  1
  O  O57  1  0.22433869  0.19700438  0.80691701  1
  O  O58  1  0.98927522  0.76936441  0.80403661  1
  O  O59  1  0.79176252  0.01433840  0.80860410  1
  O  O60  1  0.74557752  0.94337161  0.69192886  1
  O  O61  1  0.19677749  0.24720072  0.69097435  1
  O  O62  1  0.03506915  0.79336442  0.69802923  1
  O  O63  1  0.75829528  0.79336442  0.19802923  1
  O  O64  1  0.05042323  0.24720072  0.19097435  1
  O  O65  1  0.19779409  0.94337161  0.19192886  1
  O  O66  1  0.87181131  0.33066772  0.63549016  1
  O  O67  1  0.46150592  0.12237405  0.63457146  1
  O  O68  1  0.67310587  0.54483624  0.64307519  1
  O  O69  1  0.87173137  0.54483624  0.14307519  1
  O  O70  1  0.66086913  0.12237405  0.13457146  1
  O  O71  1  0.45885741  0.33066772  0.13549016  1
  O  O72  1  0.47557247  0.32248127  0.02830023  1
  O  O73  1  0.83361985  0.50717083  0.02646287  1
  O  O74  1  0.67384201  0.14783322  0.02768403  1
  O  O75  1  0.47399220  0.14783322  0.52768403  1
  O  O76  1  0.67355197  0.50717083  0.52646287  1
  O  O77  1  0.84690980  0.32248127  0.52830023  1
  O  O78  1  0.56720034  0.69403836  0.98279106  1
  O  O79  1  0.12513274  0.43982163  0.98185816  1
  O  O80  1  0.31070216  0.87290875  0.98301268  1
  O  O81  1  0.56220560  0.87290875  0.48301268  1
  O  O82  1  0.31468788  0.43982163  0.48185816  1
  O  O83  1  0.12683701  0.69403836  0.48279106  1
  O  O84  1  0.14072211  0.63981140  0.36864355  1
  O  O85  1  0.49717821  0.85882787  0.36746381  1
  O  O86  1  0.36628309  0.50441490  0.36565562  1
  O  O87  1  0.13813082  0.50441490  0.86565562  1
  O  O88  1  0.36164866  0.85882787  0.86746381  1
  O  O89  1  0.49908830  0.63981140  0.86864355  1
  O  O90  1  0.97982438  0.79963893  0.40961774  1
  O  O91  1  0.81015047  0.00017771  0.41064027  1
  O  O92  1  0.18955333  0.18621617  0.41045927  1
  O  O93  1  0.99666284  0.18621617  0.91045927  1
  O  O94  1  0.19002724  0.00017771  0.91064027  1
  O  O95  1  0.81981455  0.79963893  0.90961774  1
  O  O96  1  0.96646733  0.17917962  0.57601841  1
  O  O97  1  0.21397612  0.04258805  0.57751675  1
  O  O98  1  0.84104237  0.80982798  0.57311166  1
  O  O99  1  0.96878561  0.80982798  0.07311166  1
  O  O100  1  0.82861193  0.04258805  0.07751675  1
  O  O101  1  0.21271229  0.17917962  0.07601841  1
  O  O102  1  0.64927736  0.14551761  0.74902857  1
  O  O103  1  0.49798431  0.36087110  0.75015744  1
  O  O104  1  0.88111128  0.52283899  0.74618326  1
  O  O105  1  0.64172871  0.52283899  0.24618326  1
  O  O106  1  0.86288779  0.36087110  0.25015744  1
  O  O107  1  0.49624125  0.14551761  0.24902857  1
  O  O108  1  0.62557891  0.47689632  0.92411798  1
  O  O109  1  0.84944804  0.36575908  0.92143842  1
  O  O110  1  0.51964128  0.14959314  0.92469726  1
  O  O111  1  0.62995287  0.14959314  0.42469726  1
  O  O112  1  0.51631204  0.36575908  0.42143842  1
  O  O113  1  0.85131841  0.47689632  0.42411798  1
  O  O114  1  0.36430793  0.47907264  0.07841711  1
  O  O115  1  0.14229508  0.64753665  0.08389915  1
  O  O116  1  0.53119326  0.87782887  0.07750460  1
  O  O117  1  0.34663461  0.87782887  0.57750460  1
  O  O118  1  0.50524056  0.64753665  0.58389915  1
  O  O119  1  0.11476371  0.47907264  0.57841711  1
  O  O120  1  0.32617882  0.81909605  0.26353843  1
  O  O121  1  0.51807112  0.69289285  0.25770189  1
  O  O122  1  0.18673771  0.49704886  0.26455099  1
  O  O123  1  0.31031014  0.49704886  0.76455099  1
  O  O124  1  0.17482072  0.69289285  0.75770189  1
  O  O125  1  0.49291623  0.81909605  0.76353843  1
