# generated using pymatgen
data_Na4ScNb3Si4(PO12)2
_symmetry_space_group_name_H-M   'P 1'
_cell_length_a   8.98674708
_cell_length_b   8.99675887
_cell_length_c   22.84863484
_cell_angle_alpha   90.04651362
_cell_angle_beta   89.89981163
_cell_angle_gamma   120.07204077
_symmetry_Int_Tables_number   1
_chemical_formula_structural   Na4ScNb3Si4(PO12)2
_chemical_formula_sum   'Na12 Sc3 Nb9 Si12 P6 O72'
_cell_volume   1598.68572743
_cell_formula_units_Z   3
loop_
 _symmetry_equiv_pos_site_id
 _symmetry_equiv_pos_as_xyz
  1  'x, y, z'
loop_
 _atom_site_type_symbol
 _atom_site_label
 _atom_site_symmetry_multiplicity
 _atom_site_fract_x
 _atom_site_fract_y
 _atom_site_fract_z
 _atom_site_occupancy
  Na  Na0  1  0.63417543  0.62620513  0.74717338  1
  Na  Na1  1  0.99494514  0.36632251  0.74775864  1
  Na  Na2  1  0.30948268  0.97371071  0.08416004  1
  Na  Na3  1  0.02829076  0.33933869  0.08419388  1
  Na  Na4  1  0.96664899  0.29601409  0.41401814  1
  Na  Na5  1  0.70559818  0.67528295  0.41537599  1
  Na  Na6  1  0.00545727  0.99727629  0.49973661  1
  Na  Na7  1  0.99305025  0.99288975  0.99673118  1
  Na  Na8  1  0.65687407  0.32271927  0.83321274  1
  Na  Na9  1  0.65930755  0.32600137  0.32672282  1
  Na  Na10  1  0.34084920  0.66582212  0.16603445  1
  Na  Na11  1  0.33382931  0.67137744  0.66606085  1
  Sc  Sc12  1  0.00368259  0.99852744  0.35217083  1
  Sc  Sc13  1  0.66031852  0.32854218  0.68527586  1
  Sc  Sc14  1  0.66678578  0.33387027  0.18448967  1
  Nb  Nb15  1  0.00406991  0.00821876  0.85659336  1
  Nb  Nb16  1  0.99276921  0.00168118  0.64472128  1
  Nb  Nb17  1  0.99473538  0.99609604  0.14600474  1
  Nb  Nb18  1  0.66744956  0.33428563  0.97792248  1
  Nb  Nb19  1  0.66987596  0.33189038  0.48174720  1
  Nb  Nb20  1  0.33814306  0.66729597  0.01862621  1
  Nb  Nb21  1  0.33504993  0.66966491  0.52231780  1
  Nb  Nb22  1  0.33101321  0.67212680  0.31081848  1
  Nb  Nb23  1  0.33628660  0.67020961  0.81459175  1
  Si  Si24  1  0.29149766  0.28786801  0.75009207  1
  Si  Si25  1  0.70871818  0.00104328  0.75114055  1
  Si  Si26  1  0.95862617  0.33454508  0.58566851  1
  Si  Si27  1  0.66783598  0.62376678  0.58477253  1
  Si  Si28  1  0.95299143  0.62055556  0.08379320  1
  Si  Si29  1  0.66457773  0.04405260  0.08389955  1
  Si  Si30  1  0.38211959  0.33819371  0.08444272  1
  Si  Si31  1  0.62555055  0.66565801  0.91579369  1
  Si  Si32  1  0.04263560  0.37917455  0.91657043  1
  Si  Si33  1  0.33356237  0.95750058  0.91741879  1
  Si  Si34  1  0.61966877  0.95737019  0.41652286  1
  Si  Si35  1  0.04685133  0.67110899  0.41723725  1
  P  P36  1  0.29213314  0.00339038  0.25039182  1
  P  P37  1  0.70803871  0.70649839  0.25214427  1
  P  P38  1  0.99902124  0.29045906  0.25176116  1
  P  P39  1  0.00391346  0.71781634  0.75024792  1
  P  P40  1  0.37485075  0.04309344  0.58349916  1
  P  P41  1  0.33462037  0.38209764  0.41662015  1
  O  O42  1  0.20196760  0.01953547  0.30446354  1
  O  O43  1  0.81200276  0.79274526  0.30757590  1
  O  O44  1  0.98137245  0.18685075  0.30723880  1
  O  O45  1  0.18962005  0.16667786  0.80657382  1
  O  O46  1  0.97518210  0.80376871  0.80427554  1
  O  O47  1  0.83509639  0.02214814  0.80597778  1
  O  O48  1  0.80189670  0.96312636  0.69376349  1
  O  O49  1  0.16059168  0.19171989  0.69401517  1
  O  O50  1  0.03024037  0.82938371  0.69505646  1
  O  O51  1  0.80227438  0.82807413  0.19758585  1
  O  O52  1  0.02620052  0.20139021  0.19594269  1
  O  O53  1  0.17719470  0.97200601  0.19438804  1
  O  O54  1  0.88162717  0.36783804  0.64400439  1
  O  O55  1  0.48586357  0.11772305  0.63760748  1
  O  O56  1  0.63135483  0.51336318  0.64347024  1
  O  O57  1  0.88110880  0.49988019  0.14003654  1
  O  O58  1  0.62154907  0.11933746  0.14053107  1
  O  O59  1  0.49227399  0.36894605  0.14197951  1
  O  O60  1  0.46367015  0.29335861  0.02685686  1
  O  O61  1  0.83291675  0.53301666  0.02563889  1
  O  O62  1  0.70664446  0.16969223  0.02644431  1
  O  O63  1  0.46638177  0.15834759  0.52833162  1
  O  O64  1  0.69037981  0.52792519  0.52501434  1
  O  O65  1  0.83633586  0.30409804  0.52595348  1
  O  O66  1  0.52944559  0.69546405  0.97202229  1
  O  O67  1  0.16111851  0.46680009  0.97459792  1
  O  O68  1  0.30462318  0.83849764  0.97526304  1
  O  O69  1  0.52530947  0.82933979  0.47173286  1
  O  O70  1  0.30615563  0.46842428  0.47088702  1
  O  O71  1  0.16688026  0.68707186  0.47260471  1
  O  O72  1  0.13742395  0.62975411  0.36060817  1
  O  O73  1  0.49488579  0.85614666  0.35963241  1
  O  O74  1  0.36847988  0.49997617  0.36218499  1
  O  O75  1  0.13509511  0.49547611  0.85777079  1
  O  O76  1  0.36035547  0.85923532  0.86040395  1
  O  O77  1  0.50357277  0.63852128  0.85779317  1
  O  O78  1  0.01272998  0.82965497  0.41292912  1
  O  O79  1  0.81060064  0.98151372  0.41178294  1
  O  O80  1  0.17155411  0.20593294  0.41127097  1
  O  O81  1  0.02574535  0.18971958  0.91013490  1
  O  O82  1  0.16120284  0.97148838  0.90896646  1
  O  O83  1  0.81285472  0.83625063  0.90838278  1
  O  O84  1  0.97863095  0.16174441  0.58883976  1
  O  O85  1  0.19447249  0.02284999  0.58824405  1
  O  O86  1  0.84250726  0.81432896  0.58866850  1
  O  O87  1  0.98450768  0.81875205  0.09219281  1
  O  O88  1  0.84096245  0.02888754  0.09219571  1
  O  O89  1  0.18427826  0.16290987  0.09263822  1
  O  O90  1  0.70342864  0.17612665  0.74701867  1
  O  O91  1  0.48527235  0.32293719  0.74825809  1
  O  O92  1  0.84337613  0.53700632  0.74596707  1
  O  O93  1  0.68726690  0.52951071  0.24546890  1
  O  O94  1  0.84366749  0.31360696  0.24570219  1
  O  O95  1  0.47225135  0.15601997  0.24561263  1
  O  O96  1  0.63861903  0.49325570  0.92318025  1
  O  O97  1  0.85331604  0.35883833  0.92269800  1
  O  O98  1  0.50513857  0.14490001  0.92347985  1
  O  O99  1  0.63889376  0.14843015  0.42319582  1
  O  O100  1  0.50032128  0.36954392  0.42366983  1
  O  O101  1  0.85482729  0.49182592  0.42383996  1
  O  O102  1  0.34019195  0.49494922  0.07502984  1
  O  O103  1  0.14926588  0.65183462  0.07404150  1
  O  O104  1  0.49589385  0.85267784  0.07436650  1
  O  O105  1  0.35531079  0.86253097  0.57339621  1
  O  O106  1  0.50138249  0.64917099  0.57245151  1
  O  O107  1  0.14912303  0.50028851  0.57262903  1
  O  O108  1  0.30167647  0.83098416  0.25648139  1
  O  O109  1  0.52713107  0.69507917  0.25648433  1
  O  O110  1  0.17031541  0.47119100  0.25680290  1
  O  O111  1  0.29762938  0.47568093  0.75592989  1
  O  O112  1  0.16402762  0.69342436  0.75585504  1
  O  O113  1  0.52333345  0.82033110  0.75549228  1
