# generated using pymatgen
data_Na2MgSi2Ge3(SO6)4
_symmetry_space_group_name_H-M   'P 1'
_cell_length_a   8.49387937
_cell_length_b   8.49183189
_cell_length_c   22.17978235
_cell_angle_alpha   88.51088157
_cell_angle_beta   90.18396347
_cell_angle_gamma   119.56812068
_symmetry_Int_Tables_number   1
_chemical_formula_structural   Na2MgSi2Ge3(SO6)4
_chemical_formula_sum   'Na6 Mg3 Si6 Ge9 S12 O72'
_cell_volume   1390.89950865
_cell_formula_units_Z   3
loop_
 _symmetry_equiv_pos_site_id
 _symmetry_equiv_pos_as_xyz
  1  'x, y, z'
loop_
 _atom_site_type_symbol
 _atom_site_label
 _atom_site_symmetry_multiplicity
 _atom_site_fract_x
 _atom_site_fract_y
 _atom_site_fract_z
 _atom_site_occupancy
  Na  Na0  1  0.98195415  0.98542218  0.50455993  1
  Na  Na1  1  0.02489884  0.02338150  0.00020534  1
  Na  Na2  1  0.66756275  0.31824041  0.83422449  1
  Na  Na3  1  0.66097989  0.31533836  0.33560407  1
  Na  Na4  1  0.33642707  0.65978655  0.16408331  1
  Na  Na5  1  0.35867826  0.67679092  0.67075694  1
  Mg  Mg6  1  0.97503089  0.98098950  0.64411540  1
  Mg  Mg7  1  0.01256528  0.01292539  0.14115156  1
  Mg  Mg8  1  0.34757197  0.68489055  0.31623701  1
  Si  Si9  1  0.70491585  0.99295954  0.75016457  1
  Si  Si10  1  0.66916480  0.60900098  0.58213004  1
  Si  Si11  1  0.38562733  0.34589429  0.07813917  1
  Si  Si12  1  0.04361318  0.38394161  0.91609355  1
  Si  Si13  1  0.32024821  0.94702778  0.91726388  1
  Si  Si14  1  0.62685842  0.96699277  0.41588528  1
  Ge  Ge15  1  0.98839680  0.99628480  0.35338279  1
  Ge  Ge16  1  0.00113788  0.02257468  0.85668382  1
  Ge  Ge17  1  0.66372012  0.33185832  0.69121895  1
  Ge  Ge18  1  0.65784572  0.33989413  0.18079287  1
  Ge  Ge19  1  0.65061841  0.31445400  0.97295080  1
  Ge  Ge20  1  0.67092247  0.33060740  0.48237868  1
  Ge  Ge21  1  0.31442311  0.64513088  0.01502135  1
  Ge  Ge22  1  0.36348825  0.67332110  0.52290957  1
  Ge  Ge23  1  0.33026103  0.68680360  0.81636108  1
  S  S24  1  0.29006692  0.00682074  0.24956287  1
  S  S25  1  0.71596529  0.70591461  0.24879180  1
  S  S26  1  -0.00768151  0.29176039  0.24819244  1
  S  S27  1  0.28877319  0.29059848  0.74979553  1
  S  S28  1  -0.00154219  0.70842565  0.75044821  1
  S  S29  1  0.96630874  0.34474907  0.58145682  1
  S  S30  1  0.37853071  0.03974747  0.58321765  1
  S  S31  1  0.95275328  0.61553139  0.08289964  1
  S  S32  1  0.66060048  0.04680701  0.08392814  1
  S  S33  1  0.62023283  0.66831271  0.91595928  1
  S  S34  1  0.33002776  0.37125786  0.41630783  1
  S  S35  1  0.04630455  0.66904199  0.41646422  1
  O  O36  1  0.20948295  0.03659688  0.30682714  1
  O  O37  1  0.82383373  0.78285584  0.30632010  1
  O  O38  1  0.95857465  0.17709801  0.30649978  1
  O  O39  1  0.21442941  0.17633839  0.80689004  1
  O  O40  1  0.97271973  0.78664281  0.80508578  1
  O  O41  1  0.83399881  0.03531023  0.81061683  1
  O  O42  1  0.77088649  0.95615414  0.68882456  1
  O  O43  1  0.18790364  0.20692487  0.69615001  1
  O  O44  1  0.03067442  0.81465247  0.69486154  1
  O  O45  1  0.80491071  0.81740364  0.19612518  1
  O  O46  1  0.01535769  0.20544778  0.19630188  1
  O  O47  1  0.18565692  0.99493743  0.19692079  1
  O  O48  1  0.88293887  0.37200201  0.63539617  1
  O  O49  1  0.49612503  0.11114590  0.63638859  1
  O  O50  1  0.62833876  0.47799111  0.64307425  1
  O  O51  1  0.87891753  0.49804011  0.14123462  1
  O  O52  1  0.63230319  0.13172798  0.14026809  1
  O  O53  1  0.50521703  0.38822774  0.14262280  1
  O  O54  1  0.49452090  0.32032995  0.02294620  1
  O  O55  1  0.84878608  0.52991065  0.02973469  1
  O  O56  1  0.70358552  0.16348080  0.02823504  1
  O  O57  1  0.46257802  0.14411445  0.52580132  1
  O  O58  1  0.68487466  0.51180807  0.52092551  1
  O  O59  1  0.85087023  0.30357129  0.52608390  1
  O  O60  1  0.54280247  0.70091579  0.97130256  1
  O  O61  1  0.16426316  0.44973446  0.97704465  1
  O  O62  1  0.29323358  0.82541149  0.97964815  1
  O  O63  1  0.54333099  0.83550426  0.47743867  1
  O  O64  1  0.28902085  0.44339798  0.47149577  1
  O  O65  1  0.15271101  0.69615394  0.47182607  1
  O  O66  1  0.12244337  0.63993005  0.36218798  1
  O  O67  1  0.51504128  0.90216710  0.35633430  1
  O  O68  1  0.35291376  0.47846838  0.36163060  1
  O  O69  1  0.13815931  0.50776289  0.85583833  1
  O  O70  1  0.37514569  0.87597548  0.85870592  1
  O  O71  1  0.50692416  0.63328185  0.86202658  1
  O  O72  1  0.03252029  0.84070134  0.41002839  1
  O  O73  1  0.83167072  0.98441048  0.40921294  1
  O  O74  1  0.17158139  0.18334026  0.41105410  1
  O  O75  1  0.01657462  0.18127134  0.91115386  1
  O  O76  1  0.13504378  0.95785307  0.90688882  1
  O  O77  1  0.80124628  0.82968536  0.91040413  1
  O  O78  1  0.00380399  0.19563244  0.58704403  1
  O  O79  1  0.20538679  0.03224311  0.58900587  1
  O  O80  1  0.84125277  0.80365349  0.58164185  1
  O  O81  1  0.96024437  0.78881673  0.09037465  1
  O  O82  1  0.81601788  0.02051352  0.09178053  1
  O  O83  1  0.19104655  0.17142677  0.08137686  1
  O  O84  1  0.68323305  0.18136173  0.74330687  1
  O  O85  1  0.47696802  0.31200496  0.74822741  1
  O  O86  1  0.83099294  0.52359014  0.74697116  1
  O  O87  1  0.70774960  0.52267707  0.24658556  1
  O  O88  1  0.81940349  0.30242646  0.24403776  1
  O  O89  1  0.47686213  0.17473544  0.24634202  1
  O  O90  1  0.64214133  0.50609770  0.92164701  1
  O  O91  1  0.84689487  0.37423070  0.92515223  1
  O  O92  1  0.49882361  0.14904099  0.92200263  1
  O  O93  1  0.65976052  0.17228369  0.42914573  1
  O  O94  1  0.49597830  0.35504704  0.42304078  1
  O  O95  1  0.85857539  0.51296951  0.42291483  1
  O  O96  1  0.38254113  0.54059069  0.07337846  1
  O  O97  1  0.13708296  0.63333892  0.08135100  1
  O  O98  1  0.48987276  0.87659685  0.08034086  1
  O  O99  1  0.35441556  0.85200888  0.57729022  1
  O  O100  1  0.47067882  0.60880380  0.57938526  1
  O  O101  1  0.13694263  0.52372371  0.57202173  1
  O  O102  1  0.30750878  0.84396723  0.25491863  1
  O  O103  1  0.53159733  0.67718638  0.25534861  1
  O  O104  1  0.14862162  0.47183938  0.25619361  1
  O  O105  1  0.30590839  0.47035459  0.75630712  1
  O  O106  1  0.15919731  0.67898278  0.75460693  1
  O  O107  1  0.50113468  0.81169859  0.76056429  1
