# generated using pymatgen
data_Na6Ca3ZrSi2(SO6)4
_symmetry_space_group_name_H-M   'P 1'
_cell_length_a   9.39152076
_cell_length_b   9.41251578
_cell_length_c   23.43030784
_cell_angle_alpha   90.20797272
_cell_angle_beta   89.83584686
_cell_angle_gamma   119.91474206
_symmetry_Int_Tables_number   1
_chemical_formula_structural   Na6Ca3ZrSi2(SO6)4
_chemical_formula_sum   'Na18 Ca9 Zr3 Si6 S12 O72'
_cell_volume   1795.22774796
_cell_formula_units_Z   3
loop_
 _symmetry_equiv_pos_site_id
 _symmetry_equiv_pos_as_xyz
  1  'x, y, z'
loop_
 _atom_site_type_symbol
 _atom_site_label
 _atom_site_symmetry_multiplicity
 _atom_site_fract_x
 _atom_site_fract_y
 _atom_site_fract_z
 _atom_site_occupancy
  Na  Na0  1  0.63210152  0.99598544  0.26158774  1
  Na  Na1  1  0.36805951  0.36409816  0.23997841  1
  Na  Na2  1  0.64155535  0.65260007  0.73830731  1
  Na  Na3  1  0.32454289  0.35379235  0.58989111  1
  Na  Na4  1  0.01661599  0.70023080  0.58318851  1
  Na  Na5  1  0.66562873  0.93860573  0.58464441  1
  Na  Na6  1  0.29707904  0.97517976  0.07257132  1
  Na  Na7  1  0.05670396  0.33744516  0.07244371  1
  Na  Na8  1  0.99409437  0.67688920  0.91575400  1
  Na  Na9  1  0.71186938  0.03946797  0.90095658  1
  Na  Na10  1  0.29910870  0.28350484  0.91846827  1
  Na  Na11  1  0.69399426  0.69350405  0.42263526  1
  Na  Na12  1  0.97272980  0.99133219  0.49614546  1
  Na  Na13  1  0.02314581  0.02167894  0.99440973  1
  Na  Na14  1  0.67340232  0.29788504  0.82426913  1
  Na  Na15  1  0.67544683  0.31517949  0.33724021  1
  Na  Na16  1  0.33736791  0.64753877  0.15984674  1
  Na  Na17  1  0.36241201  0.67958387  0.67107376  1
  Ca  Ca18  1  0.00201847  0.00433425  0.35126327  1
  Ca  Ca19  1  0.00022558  0.00990724  0.84569865  1
  Ca  Ca20  1  0.98118414  0.99335541  0.65552605  1
  Ca  Ca21  1  0.00209354  0.99716968  0.14696315  1
  Ca  Ca22  1  0.66400390  0.32256262  0.68659101  1
  Ca  Ca23  1  0.66747544  0.34440381  0.18160759  1
  Ca  Ca24  1  0.33749301  0.66179324  0.01606513  1
  Ca  Ca25  1  0.34329903  0.67287744  0.51191003  1
  Ca  Ca26  1  0.33534857  0.68225855  0.32407294  1
  Zr  Zr27  1  0.65522206  0.32646770  0.98090135  1
  Zr  Zr28  1  0.66588031  0.32926488  0.48173324  1
  Zr  Zr29  1  0.32433494  0.67772418  0.81950796  1
  Si  Si30  1  0.68056928  0.98898329  0.75301566  1
  Si  Si31  1  0.66623328  0.62838259  0.58390753  1
  Si  Si32  1  0.36481966  0.33350473  0.08619293  1
  Si  Si33  1  0.03132369  0.37012312  0.92080795  1
  Si  Si34  1  0.33298832  0.96669679  0.92237767  1
  Si  Si35  1  0.64520571  0.97881757  0.41682193  1
  S  S36  1  0.30350473  0.99943715  0.24849025  1
  S  S37  1  0.69605799  0.69825813  0.25232133  1
  S  S38  1  0.00110190  0.29907681  0.24859247  1
  S  S39  1  0.30696013  0.31500752  0.75114070  1
  S  S40  1  0.00458274  0.69841163  0.75104174  1
  S  S41  1  0.96083329  0.33582576  0.58098531  1
  S  S42  1  0.37085024  0.04073245  0.58121016  1
  S  S43  1  0.96182829  0.62722595  0.08075662  1
  S  S44  1  0.66799745  0.04421246  0.08337050  1
  S  S45  1  0.62840929  0.65928286  0.91586371  1
  S  S46  1  0.34149098  0.36371334  0.41761785  1
  S  S47  1  0.02061775  0.65939708  0.42012510  1
  O  O48  1  0.21664731  0.01578450  0.29804762  1
  O  O49  1  0.78775244  0.77741355  0.30512330  1
  O  O50  1  0.98211526  0.19406739  0.29823909  1
  O  O51  1  0.22590410  0.21385505  0.80181100  1
  O  O52  1  0.98996879  0.78285853  0.80215302  1
  O  O53  1  0.78114511  0.99734917  0.81049529  1
  O  O54  1  0.75356296  0.95071559  0.69401485  1
  O  O55  1  0.21446172  0.23660764  0.69782766  1
  O  O56  1  0.03005276  0.79595179  0.69840519  1
  O  O57  1  0.78165130  0.79974540  0.20188690  1
  O  O58  1  0.01874077  0.22149855  0.19528581  1
  O  O59  1  0.21279466  0.98692602  0.19502193  1
  O  O60  1  0.88446806  0.35423023  0.63303914  1
  O  O61  1  0.47168362  0.11142636  0.63247887  1
  O  O62  1  0.64818061  0.52385276  0.64089340  1
  O  O63  1  0.88242248  0.52812915  0.13161186  1
  O  O64  1  0.65324461  0.12206535  0.13589198  1
  O  O65  1  0.45561903  0.33849717  0.14545882  1
  O  O66  1  0.48145271  0.32699111  0.03039525  1
  O  O67  1  0.86513121  0.54100396  0.02846567  1
  O  O68  1  0.68434583  0.15121753  0.03229287  1
  O  O69  1  0.46403554  0.14347196  0.53042725  1
  O  O70  1  0.67431922  0.51731505  0.52788595  1
  O  O71  1  0.85163591  0.31337323  0.53066580  1
  O  O72  1  0.55791457  0.69114230  0.96611629  1
  O  O73  1  0.13712789  0.44066111  0.97847729  1
  O  O74  1  0.31201375  0.86978697  0.98078587  1
  O  O75  1  0.55401061  0.86536784  0.47245937  1
  O  O76  1  0.31838401  0.44052261  0.46930460  1
  O  O77  1  0.11201369  0.67480585  0.47308878  1
  O  O78  1  0.09931262  0.63464007  0.36966512  1
  O  O79  1  0.54441398  0.90988948  0.35662064  1
  O  O80  1  0.36684900  0.46659936  0.36626508  1
  O  O81  1  0.13538196  0.49887475  0.86717166  1
  O  O82  1  0.36221637  0.86699402  0.86797092  1
  O  O83  1  0.52256832  0.63161572  0.86445145  1
  O  O84  1  0.99702887  0.80278736  0.41447306  1
  O  O85  1  0.82310876  0.98535888  0.41517530  1
  O  O86  1  0.20516271  0.19640366  0.41208638  1
  O  O87  1  0.99922107  0.18398358  0.91257543  1
  O  O88  1  0.17438138  0.98941157  0.91243418  1
  O  O89  1  0.79883834  0.79617367  0.90834418  1
  O  O90  1  0.98086033  0.18827412  0.58287254  1
  O  O91  1  0.21303554  0.04159974  0.58408969  1
  O  O92  1  0.83754781  0.80871444  0.57950930  1
  O  O93  1  0.97606817  0.79188842  0.08322798  1
  O  O94  1  0.82035394  0.03358988  0.08329313  1
  O  O95  1  0.18749229  0.15885762  0.07830987  1
  O  O96  1  0.65601652  0.14662697  0.74952503  1
  O  O97  1  0.47790636  0.34521647  0.74861149  1
  O  O98  1  0.85287618  0.53700077  0.74713921  1
  O  O99  1  0.67313019  0.53000396  0.24925453  1
  O  O100  1  0.84907920  0.31160293  0.24642233  1
  O  O101  1  0.47240468  0.14988412  0.24774900  1
  O  O102  1  0.63738521  0.50382651  0.92245663  1
  O  O103  1  0.85026259  0.36629699  0.92456088  1
  O  O104  1  0.50654815  0.15137777  0.92383828  1
  O  O105  1  0.66458261  0.16564340  0.42655010  1
  O  O106  1  0.50178101  0.36012355  0.42337008  1
  O  O107  1  0.84938241  0.50936895  0.42393507  1
  O  O108  1  0.33445203  0.48936949  0.08478287  1
  O  O109  1  0.13031986  0.64946905  0.07838275  1
  O  O110  1  0.51843462  0.88273398  0.07819997  1
  O  O111  1  0.33798605  0.86986109  0.57486862  1
  O  O112  1  0.49983210  0.64648766  0.58074205  1
  O  O113  1  0.12273191  0.48577956  0.57364293  1
  O  O114  1  0.32541761  0.85296131  0.25175265  1
  O  O115  1  0.52696755  0.68101849  0.25396345  1
  O  O116  1  0.15364870  0.46211325  0.25403376  1
  O  O117  1  0.31848224  0.48009812  0.75662059  1
  O  O118  1  0.15238632  0.67672486  0.75669237  1
  O  O119  1  0.49819880  0.80844366  0.75976028  1
