# generated using pymatgen
data_Na2YTi(PO4)3
_symmetry_space_group_name_H-M   'P 1'
_cell_length_a   9.04771492
_cell_length_b   9.04771461
_cell_length_c   22.82481085
_cell_angle_alpha   89.98300393
_cell_angle_beta   90.01699607
_cell_angle_gamma   120.30967180
_symmetry_Int_Tables_number   1
_chemical_formula_structural   Na2YTi(PO4)3
_chemical_formula_sum   'Na12 Y6 Ti6 P18 O72'
_cell_volume   1613.06519849
_cell_formula_units_Z   6
loop_
 _symmetry_equiv_pos_site_id
 _symmetry_equiv_pos_as_xyz
  1  'x, y, z'
loop_
 _atom_site_type_symbol
 _atom_site_label
 _atom_site_symmetry_multiplicity
 _atom_site_fract_x
 _atom_site_fract_y
 _atom_site_fract_z
 _atom_site_occupancy
  Na  Na0  1  0.36390055  0.35924876  0.25053796  1
  Na  Na1  1  0.64075124  0.63609945  0.75053796  1
  Na  Na2  1  0.03056755  0.69258176  0.58387096  1
  Na  Na3  1  0.30741824  0.96943245  0.08387096  1
  Na  Na4  1  0.69723355  0.02591576  0.91720496  1
  Na  Na5  1  0.97408424  0.30276645  0.41720496  1
  Na  Na6  1  0.99937297  0.99855797  0.50251278  1
  Na  Na7  1  0.00144203  0.00062703  0.00251278  1
  Na  Na8  1  0.66603997  0.33189097  0.83584578  1
  Na  Na9  1  0.66810903  0.33396003  0.33584578  1
  Na  Na10  1  0.33270597  0.66522497  0.16917978  1
  Na  Na11  1  0.33477503  0.66729403  0.66917978  1
  Y  Y12  1  0.99772939  0.98878029  0.35292731  1
  Y  Y13  1  0.01121971  0.00227061  0.85292731  1
  Y  Y14  1  0.66439639  0.32211329  0.68626031  1
  Y  Y15  1  0.67788671  0.33560361  0.18626031  1
  Y  Y16  1  0.33106239  0.65544729  0.01959431  1
  Y  Y17  1  0.34455271  0.66893761  0.51959431  1
  Ti  Ti18  1  0.00333338  0.01442405  0.65000601  1
  Ti  Ti19  1  0.98557595  0.99666662  0.15000601  1
  Ti  Ti20  1  0.67000038  0.34775705  0.98333901  1
  Ti  Ti21  1  0.65224295  0.32999962  0.48333901  1
  Ti  Ti22  1  0.33666638  0.68109105  0.31667301  1
  Ti  Ti23  1  0.31890895  0.66333362  0.81667301  1
  P  P24  1  0.28540271  0.98704345  0.24791450  1
  P  P25  1  0.69486510  0.71083404  0.24916365  1
  P  P26  1  0.01236446  0.29870246  0.25188533  1
  P  P27  1  0.28916596  0.30513490  0.74916365  1
  P  P28  1  0.01295655  0.71459729  0.74791450  1
  P  P29  1  0.70129754  0.98763554  0.75188533  1
  P  P30  1  0.95206971  0.32037645  0.58124750  1
  P  P31  1  0.36153210  0.04416704  0.58249665  1
  P  P32  1  0.67903146  0.63203546  0.58521833  1
  P  P33  1  0.95583296  0.63846790  0.08249665  1
  P  P34  1  0.67962355  0.04793029  0.08124750  1
  P  P35  1  0.36796454  0.32096854  0.08521833  1
  P  P36  1  0.61873571  0.65371045  0.91458150  1
  P  P37  1  0.02819810  0.37750104  0.91583065  1
  P  P38  1  0.34569746  0.96536946  0.91855233  1
  P  P39  1  0.62249896  0.97180190  0.41583065  1
  P  P40  1  0.34628955  0.38126429  0.41458150  1
  P  P41  1  0.03463054  0.65430254  0.41855233  1
  O  O42  1  0.20892793  0.02272009  0.30157419  1
  O  O43  1  0.80159087  0.78490399  0.30393384  1
  O  O44  1  0.99006916  0.19996307  0.30834130  1
  O  O45  1  0.21509601  0.19840913  0.80393384  1
  O  O46  1  0.97727991  0.79107207  0.80157419  1
  O  O47  1  0.80003693  0.00993084  0.80834130  1
  O  O48  1  0.80806966  0.97114457  0.69824750  1
  O  O49  1  0.17071872  0.20037207  0.69463529  1
  O  O50  1  0.03615609  0.82751383  0.69214492  1
  O  O51  1  0.79962793  0.82928128  0.19463529  1
  O  O52  1  0.02885543  0.19193034  0.19824750  1
  O  O53  1  0.17248617  0.96384391  0.19214492  1
  O  O54  1  0.87559493  0.35605309  0.63490719  1
  O  O55  1  0.46825787  0.11823699  0.63726684  1
  O  O56  1  0.65673616  0.53329607  0.64167430  1
  O  O57  1  0.88176301  0.53174213  0.13726684  1
  O  O58  1  0.64394691  0.12440507  0.13490719  1
  O  O59  1  0.46670393  0.34326384  0.14167430  1
  O  O60  1  0.47473666  0.30447757  0.03158050  1
  O  O61  1  0.83738572  0.53370507  0.02796829  1
  O  O62  1  0.70282309  0.16084683  0.02547792  1
  O  O63  1  0.46629493  0.16261428  0.52796829  1
  O  O64  1  0.69552243  0.52526334  0.53158050  1
  O  O65  1  0.83915317  0.29717691  0.52547792  1
  O  O66  1  0.54226093  0.68938709  0.96824119  1
  O  O67  1  0.13492387  0.45157099  0.97060084  1
  O  O68  1  0.32340216  0.86663007  0.97500830  1
  O  O69  1  0.54842901  0.86507613  0.47060084  1
  O  O70  1  0.31061291  0.45773907  0.46824119  1
  O  O71  1  0.13336993  0.67659784  0.47500830  1
  O  O72  1  0.14140266  0.63781157  0.36491450  1
  O  O73  1  0.50405172  0.86703907  0.36130229  1
  O  O74  1  0.36948909  0.49418083  0.35881192  1
  O  O75  1  0.13296093  0.49594828  0.86130229  1
  O  O76  1  0.36218843  0.85859734  0.86491450  1
  O  O77  1  0.50581917  0.63051091  0.85881192  1
  O  O78  1  0.00840115  0.80659140  0.41246983  1
  O  O79  1  0.80540591  0.00568542  0.40919231  1
  O  O80  1  0.18797230  0.20146430  0.40920543  1
  O  O81  1  0.99431458  0.19459409  0.90919231  1
  O  O82  1  0.19340860  0.99159885  0.91246983  1
  O  O83  1  0.79853570  0.81202770  0.90920543  1
  O  O84  1  0.96534434  0.15513911  0.59111126  1
  O  O85  1  0.18554851  0.03510239  0.58705316  1
  O  O86  1  0.85045084  0.80743277  0.58714343  1
  O  O87  1  0.96489761  0.81445149  0.08705316  1
  O  O88  1  0.84486089  0.03465566  0.09111126  1
  O  O89  1  0.19256723  0.14954916  0.08714343  1
  O  O90  1  0.67506815  0.13992440  0.74580283  1
  O  O91  1  0.47207291  0.33901842  0.74252531  1
  O  O92  1  0.85463930  0.53479730  0.74253843  1
  O  O93  1  0.66098158  0.52792709  0.24252531  1
  O  O94  1  0.86007560  0.32493185  0.24580283  1
  O  O95  1  0.46520270  0.14536070  0.24253843  1
  O  O96  1  0.63201134  0.48847211  0.92444426  1
  O  O97  1  0.85221551  0.36843539  0.92038616  1
  O  O98  1  0.51711784  0.14076577  0.92047643  1
  O  O99  1  0.63156461  0.14778449  0.42038616  1
  O  O100  1  0.51152789  0.36798866  0.42444426  1
  O  O101  1  0.85923423  0.48288216  0.42047643  1
  O  O102  1  0.34173415  0.47325840  0.07913683  1
  O  O103  1  0.13873891  0.67235242  0.07585931  1
  O  O104  1  0.52130530  0.86813130  0.07587243  1
  O  O105  1  0.32764758  0.86126109  0.57585931  1
  O  O106  1  0.52674160  0.65826585  0.57913683  1
  O  O107  1  0.13186870  0.47869470  0.57587243  1
  O  O108  1  0.29867734  0.82180611  0.25777826  1
  O  O109  1  0.51888151  0.70176939  0.25372016  1
  O  O110  1  0.18378384  0.47409977  0.25381043  1
  O  O111  1  0.29823061  0.48111849  0.75372016  1
  O  O112  1  0.17819389  0.70132266  0.75777826  1
  O  O113  1  0.52590023  0.81621616  0.75381043  1
