# generated using pymatgen
data_Na3Ca3Sc(SO4)6
_symmetry_space_group_name_H-M   'P 1'
_cell_length_a   9.16077131
_cell_length_b   9.16546558
_cell_length_c   23.90218756
_cell_angle_alpha   89.93315058
_cell_angle_beta   90.15790155
_cell_angle_gamma   120.18475282
_symmetry_Int_Tables_number   1
_chemical_formula_structural   Na3Ca3Sc(SO4)6
_chemical_formula_sum   'Na9 Ca9 Sc3 S18 O72'
_cell_volume   1734.76900379
_cell_formula_units_Z   3
loop_
 _symmetry_equiv_pos_site_id
 _symmetry_equiv_pos_as_xyz
  1  'x, y, z'
loop_
 _atom_site_type_symbol
 _atom_site_label
 _atom_site_symmetry_multiplicity
 _atom_site_fract_x
 _atom_site_fract_y
 _atom_site_fract_z
 _atom_site_occupancy
  Na  Na0  1  0.63715479  0.99957017  0.24876889  1
  Na  Na1  1  0.36258392  0.36188539  0.24862495  1
  Na  Na2  1  0.03418824  0.69937028  0.58557707  1
  Na  Na3  1  0.99940984  0.01182683  0.49945792  1
  Na  Na4  1  0.00009020  0.99949248  0.99810279  1
  Na  Na5  1  0.66592846  0.33239723  0.83212936  1
  Na  Na6  1  0.68008289  0.34617949  0.33882008  1
  Na  Na7  1  0.31908901  0.66582511  0.15733750  1
  Na  Na8  1  0.34729067  0.66599462  0.67321055  1
  Ca  Ca9  1  0.00026315  0.99484283  0.35312971  1
  Ca  Ca10  1  0.00015432  -0.00044885  0.85051050  1
  Ca  Ca11  1  0.99890014  0.00953465  0.65423490  1
  Ca  Ca12  1  0.99963519  0.99509682  0.14343085  1
  Ca  Ca13  1  0.66199994  0.32836692  0.68730766  1
  Ca  Ca14  1  0.67476622  0.34110992  0.17892282  1
  Ca  Ca15  1  0.33465950  0.66689315  0.01566733  1
  Ca  Ca16  1  0.34124238  0.66597819  0.51538851  1
  Ca  Ca17  1  0.32463467  0.66608667  0.32403721  1
  Sc  Sc18  1  0.66677844  0.33356973  0.98112842  1
  Sc  Sc19  1  0.66207050  0.32891823  0.48405822  1
  Sc  Sc20  1  0.33292426  0.66662896  0.81895520  1
  S  S21  1  0.30123557  0.00119474  0.24969310  1
  S  S22  1  0.69747695  0.70062108  0.25055121  1
  S  S23  1  0.00079506  0.29492490  0.25012827  1
  S  S24  1  0.30041062  0.31040127  0.75300797  1
  S  S25  1  0.00975195  0.69990727  0.75056976  1
  S  S26  1  0.69023640  0.99021676  0.75285273  1
  S  S27  1  0.95565023  0.33356064  0.58099548  1
  S  S28  1  0.37034022  0.03871379  0.58126911  1
  S  S29  1  0.66993697  0.62375456  0.58183329  1
  S  S30  1  0.96047433  0.62621539  0.07977797  1
  S  S31  1  0.66591297  0.04080846  0.08234030  1
  S  S32  1  0.37467390  0.33428200  0.08210676  1
  S  S33  1  0.62513159  0.65862447  0.91712031  1
  S  S34  1  0.03336890  0.37453868  0.91704682  1
  S  S35  1  0.34120259  0.96605856  0.91708672  1
  S  S36  1  0.63677134  0.97852581  0.41712337  1
  S  S37  1  0.34150856  0.36356114  0.41711161  1
  S  S38  1  0.02155879  0.65802914  0.42142178  1
  O  O39  1  0.22008890  0.02153698  0.30003845  1
  O  O40  1  0.79682982  0.78061510  0.30143876  1
  O  O41  1  0.97878415  0.19194721  0.30059064  1
  O  O42  1  0.21565443  0.20401715  0.80164489  1
  O  O43  1  0.98948958  0.78977480  0.79796370  1
  O  O44  1  0.79678938  0.01227991  0.80159953  1
  O  O45  1  0.76161809  0.96421542  0.70061708  1
  O  O46  1  0.20254332  0.23873794  0.70067529  1
  O  O47  1  0.03421308  0.79324678  0.69673030  1
  O  O48  1  0.77959180  0.80293277  0.20030896  1
  O  O49  1  0.02230359  0.21357452  0.19971541  1
  O  O50  1  0.20208968  0.98307908  0.19892792  1
  O  O51  1  0.87741653  0.35348726  0.63176763  1
  O  O52  1  0.46588898  0.11738831  0.63233788  1
  O  O53  1  0.65369471  0.52884716  0.63303704  1
  O  O54  1  0.88589723  0.53732682  0.13262637  1
  O  O55  1  0.65255472  0.11272785  0.13663946  1
  O  O56  1  0.45997710  0.34741181  0.13649415  1
  O  O57  1  0.47675941  0.32566817  0.03430333  1
  O  O58  1  0.85211241  0.52722648  0.03082212  1
  O  O59  1  0.67521939  0.15181139  0.03440100  1
  O  O60  1  0.46323687  0.14289679  0.53088418  1
  O  O61  1  0.68285635  0.53001922  0.53163435  1
  O  O62  1  0.84953975  0.31950875  0.53050957  1
  O  O63  1  0.54882365  0.68074901  0.96775101  1
  O  O64  1  0.13263502  0.45151182  0.96772220  1
  O  O65  1  0.31937352  0.86745999  0.96773746  1
  O  O66  1  0.54654093  0.86892763  0.46467324  1
  O  O67  1  0.32164149  0.45308533  0.46471707  1
  O  O68  1  0.12326513  0.67824736  0.47187605  1
  O  O69  1  0.09812592  0.63369234  0.37045990  1
  O  O70  1  0.54346583  0.90890471  0.36356489  1
  O  O71  1  0.36572196  0.45705495  0.36364180  1
  O  O72  1  0.12036445  0.48282577  0.86670281  1
  O  O73  1  0.36221333  0.87951845  0.86672035  1
  O  O74  1  0.51703144  0.63771759  0.86674114  1
  O  O75  1  0.00157464  0.80792142  0.41621811  1
  O  O76  1  0.80800519  0.00038224  0.41434265  1
  O  O77  1  0.19146132  0.19241197  0.41414118  1
  O  O78  1  0.00905438  0.20383267  0.91040311  1
  O  O79  1  0.19440190  0.98969655  0.91035457  1
  O  O80  1  0.79641151  0.80539330  0.91057572  1
  O  O81  1  0.97400300  0.18241937  0.58235355  1
  O  O82  1  0.19866723  0.02052366  0.58209205  1
  O  O83  1  0.83214165  0.79032574  0.58269857  1
  O  O84  1  0.97147329  0.79339028  0.07935573  1
  O  O85  1  0.82187478  0.02953823  0.08138010  1
  O  O86  1  0.20677986  0.17798889  0.08087336  1
  O  O87  1  0.66795604  0.13909004  0.74813812  1
  O  O88  1  0.47196455  0.33308229  0.74840093  1
  O  O89  1  0.86006242  0.52817583  0.74713950  1
  O  O90  1  0.66843447  0.52524044  0.24662153  1
  O  O91  1  0.84559572  0.30913884  0.24580322  1
  O  O92  1  0.47377831  0.15862181  0.24627630  1
  O  O93  1  0.63702369  0.49973213  0.92224261  1
  O  O94  1  0.86199622  0.36168004  0.92205404  1
  O  O95  1  0.50016088  0.13781491  0.92226146  1
  O  O96  1  0.65179621  0.14941168  0.42480780  1
  O  O97  1  0.49735911  0.34867123  0.42506157  1
  O  O98  1  0.84875378  0.50208215  0.42676812  1
  O  O99  1  0.35696958  0.48565172  0.07764688  1
  O  O100  1  0.13059614  0.64575203  0.07612217  1
  O  O101  1  0.51402476  0.87124892  0.07781475  1
  O  O102  1  0.34581935  0.86536100  0.57632593  1
  O  O103  1  0.52367487  0.64837021  0.57640519  1
  O  O104  1  0.12366084  0.49128484  0.57552571  1
  O  O105  1  0.32922685  0.85426576  0.25424711  1
  O  O106  1  0.52565310  0.68607019  0.25466842  1
  O  O107  1  0.15651152  0.46476968  0.25506369  1
  O  O108  1  0.31715587  0.48297750  0.76057093  1
  O  O109  1  0.16590589  0.68479005  0.75928331  1
  O  O110  1  0.51740246  0.83379529  0.76044210  1
