# generated using pymatgen
data_Na15CaTa11(SiO4)18
_symmetry_space_group_name_H-M   'P 1'
_cell_length_a   9.04952228
_cell_length_b   9.04874051
_cell_length_c   22.65265542
_cell_angle_alpha   90.13247686
_cell_angle_beta   89.87024489
_cell_angle_gamma   120.17664069
_symmetry_Int_Tables_number   1
_chemical_formula_structural   Na15CaTa11(SiO4)18
_chemical_formula_sum   'Na15 Ca1 Ta11 Si18 O72'
_cell_volume   1603.56381216
_cell_formula_units_Z   1
loop_
 _symmetry_equiv_pos_site_id
 _symmetry_equiv_pos_as_xyz
  1  'x, y, z'
loop_
 _atom_site_type_symbol
 _atom_site_label
 _atom_site_symmetry_multiplicity
 _atom_site_fract_x
 _atom_site_fract_y
 _atom_site_fract_z
 _atom_site_occupancy
  Na  Na0  1  0.36520931  0.36483912  0.25100724  1
  Na  Na1  1  0.63268049  0.61642539  0.74515601  1
  Na  Na2  1  0.98326844  0.36793912  0.74523662  1
  Na  Na3  1  0.38503255  0.01659280  0.74500753  1
  Na  Na4  1  0.31340905  0.33838991  0.58329953  1
  Na  Na5  1  0.02448523  0.68601719  0.58331793  1
  Na  Na6  1  0.66145478  0.97513702  0.58330311  1
  Na  Na7  1  0.30135140  0.96861500  0.08473780  1
  Na  Na8  1  0.69952466  0.03416854  0.91769840  1
  Na  Na9  1  0.00042566  0.00022561  0.49368733  1
  Na  Na10  1  0.00027656  0.00047794  0.00240802  1
  Na  Na11  1  0.66582755  0.33973325  0.83029312  1
  Na  Na12  1  0.67443984  0.33232852  0.33424897  1
  Na  Na13  1  0.33382073  0.66703662  0.16856379  1
  Na  Na14  1  0.33346905  0.66691108  0.66469945  1
  Ca  Ca15  1  0.66680313  0.33340698  0.68265961  1
  Ta  Ta16  1  0.99908367  0.99975328  0.35458702  1
  Ta  Ta17  1  0.00416049  0.99969835  0.85784688  1
  Ta  Ta18  1  0.00001252  0.99991665  0.64623038  1
  Ta  Ta19  1  0.99513253  0.99933381  0.14593556  1
  Ta  Ta20  1  0.67075130  0.33399789  0.18844196  1
  Ta  Ta21  1  0.66738247  0.33768088  0.97912923  1
  Ta  Ta22  1  0.66601837  0.33340916  0.47720864  1
  Ta  Ta23  1  0.33271783  0.66223739  0.02245257  1
  Ta  Ta24  1  0.33309708  0.66667268  0.51354609  1
  Ta  Ta25  1  0.33302808  0.67114425  0.31205072  1
  Ta  Ta26  1  0.33313720  0.66568227  0.81442495  1
  Si  Si27  1  0.28582189  0.99678954  0.24911958  1
  Si  Si28  1  0.71230879  0.71225313  0.25053445  1
  Si  Si29  1  0.99751129  0.28673961  0.25061672  1
  Si  Si30  1  0.28404343  0.29058638  0.75232859  1
  Si  Si31  1  0.00640285  0.71607083  0.75241944  1
  Si  Si32  1  0.71068619  0.99398934  0.75344511  1
  Si  Si33  1  0.96473157  0.33617312  0.58296528  1
  Si  Si34  1  0.37132062  0.03466774  0.58311718  1
  Si  Si35  1  0.66290412  0.62847209  0.58304488  1
  Si  Si36  1  0.95412949  0.62173376  0.08348818  1
  Si  Si37  1  0.67046079  0.04753082  0.08240508  1
  Si  Si38  1  0.37969686  0.33504676  0.08443329  1
  Si  Si39  1  0.61996710  0.66227170  0.91728200  1
  Si  Si40  1  0.04379419  0.37931712  0.91737871  1
  Si  Si41  1  0.33225623  0.95480874  0.91862170  1
  Si  Si42  1  0.62597949  0.95922907  0.41521538  1
  Si  Si43  1  0.33390574  0.37537641  0.41415721  1
  Si  Si44  1  0.04137078  0.66682781  0.41501176  1
  O  O45  1  0.19399589  0.03284300  0.30519424  1
  O  O46  1  0.83374152  0.80610040  0.30726764  1
  O  O47  1  0.97206802  0.16629531  0.30749822  1
  O  O48  1  0.17751561  0.16791079  0.80770551  1
  O  O49  1  0.98780160  0.82133320  0.80767941  1
  O  O50  1  0.82814143  0.01081605  0.81034020  1
  O  O51  1  0.80278590  0.96690503  0.69319434  1
  O  O52  1  0.16597615  0.19947654  0.69199305  1
  O  O53  1  0.03385799  0.83471448  0.69218217  1
  O  O54  1  0.80757819  0.83334142  0.19292108  1
  O  O55  1  0.03202691  0.19439529  0.19354136  1
  O  O56  1  0.17135044  0.97266969  0.18985250  1
  O  O57  1  0.91666663  0.39098220  0.64383109  1
  O  O58  1  0.47437154  0.08343089  0.64383395  1
  O  O59  1  0.60847114  0.52506935  0.64371340  1
  O  O60  1  0.85889264  0.49954027  0.14042057  1
  O  O61  1  0.63406050  0.14046927  0.13854293  1
  O  O62  1  0.49544262  0.36100500  0.14309684  1
  O  O63  1  0.47403645  0.30186498  0.02782314  1
  O  O64  1  0.83371274  0.52595316  0.02609386  1
  O  O65  1  0.69427148  0.16164864  0.02326516  1
  O  O66  1  0.47074820  0.17142067  0.52898558  1
  O  O67  1  0.70064978  0.52926480  0.52893880  1
  O  O68  1  0.82809036  0.29933862  0.52899096  1
  O  O69  1  0.52551025  0.69853775  0.97253870  1
  O  O70  1  0.16864503  0.47696606  0.97326467  1
  O  O71  1  0.30724215  0.83654231  0.97616566  1
  O  O72  1  0.53432133  0.84358137  0.47387201  1
  O  O73  1  0.30960063  0.46807916  0.47260269  1
  O  O74  1  0.15738370  0.69119794  0.47359105  1
  O  O75  1  0.14075728  0.63951400  0.35933339  1
  O  O76  1  0.49995389  0.85864370  0.35948577  1
  O  O77  1  0.36008441  0.49558436  0.35683028  1
  O  O78  1  0.13555539  0.49629923  0.85822529  1
  O  O79  1  0.36428094  0.86317816  0.86010599  1
  O  O80  1  0.50297623  0.63817977  0.85806397  1
  O  O81  1  0.02519844  0.83741348  0.40858049  1
  O  O82  1  0.81332046  0.97635513  0.40926299  1
  O  O83  1  0.16348440  0.18663088  0.40907483  1
  O  O84  1  0.01678394  0.18637657  0.91136060  1
  O  O85  1  0.16468138  0.97579510  0.91138925  1
  O  O86  1  0.80579377  0.83832424  0.91106173  1
  O  O87  1  0.97859224  0.16000267  0.58815749  1
  O  O88  1  0.18141944  0.02104825  0.58813762  1
  O  O89  1  0.83963292  0.81868896  0.58817756  1
  O  O90  1  0.98228827  0.81486828  0.08967847  1
  O  O91  1  0.83778295  0.02609616  0.09045440  1
  O  O92  1  0.19283520  0.15969151  0.08993124  1
  O  O93  1  0.69063643  0.15973391  0.75410903  1
  O  O94  1  0.46899966  0.30962736  0.75366330  1
  O  O95  1  0.84007960  0.53064435  0.75356423  1
  O  O96  1  0.68507212  0.51882914  0.24282135  1
  O  O97  1  0.82903016  0.30669865  0.24212768  1
  O  O98  1  0.47370581  0.17269767  0.24221768  1
  O  O99  1  0.63923019  0.49439217  0.92421538  1
  O  O100  1  0.85187475  0.35253595  0.92358685  1
  O  O101  1  0.50794739  0.14038116  0.92382785  1
  O  O102  1  0.64073329  0.14609391  0.42423964  1
  O  O103  1  0.50528261  0.35947610  0.42448979  1
  O  O104  1  0.85405998  0.49474149  0.42437074  1
  O  O105  1  0.35979868  0.50379371  0.07547155  1
  O  O106  1  0.14732920  0.64803223  0.07629844  1
  O  O107  1  0.49388045  0.86000816  0.07584307  1
  O  O108  1  0.33724437  0.84125770  0.57009777  1
  O  O109  1  0.50368546  0.66234004  0.57000255  1
  O  O110  1  0.15872512  0.49579772  0.56994548  1
  O  O111  1  0.30786919  0.82918160  0.25676879  1
  O  O112  1  0.51879223  0.68449458  0.25661206  1
  O  O113  1  0.17341546  0.47328841  0.25686140  1
  O  O114  1  0.29198770  0.47644757  0.75630014  1
  O  O115  1  0.18474652  0.70915843  0.75700687  1
  O  O116  1  0.52350483  0.81560826  0.75654220  1
