# generated using pymatgen
data_Na6La2In2Si3(SO8)3
_symmetry_space_group_name_H-M   'P 1'
_cell_length_a   9.48740999
_cell_length_b   9.39910613
_cell_length_c   23.58982577
_cell_angle_alpha   90.47639665
_cell_angle_beta   90.15134560
_cell_angle_gamma   119.62108814
_symmetry_Int_Tables_number   1
_chemical_formula_structural   Na6La2In2Si3(SO8)3
_chemical_formula_sum   'Na18 La6 In6 Si9 S9 O72'
_cell_volume   1828.55090583
_cell_formula_units_Z   3
loop_
 _symmetry_equiv_pos_site_id
 _symmetry_equiv_pos_as_xyz
  1  'x, y, z'
loop_
 _atom_site_type_symbol
 _atom_site_label
 _atom_site_symmetry_multiplicity
 _atom_site_fract_x
 _atom_site_fract_y
 _atom_site_fract_z
 _atom_site_occupancy
  Na  Na0  1  0.63285348  0.01058718  0.26279949  1
  Na  Na1  1  0.34876174  0.35237862  0.25700358  1
  Na  Na2  1  0.64938162  0.64799701  0.73175297  1
  Na  Na3  1  0.97438704  0.36235368  0.73921702  1
  Na  Na4  1  0.01781756  0.68248689  0.59370856  1
  Na  Na5  1  0.68413782  0.96777978  0.58435165  1
  Na  Na6  1  0.31823864  0.97297363  0.10117500  1
  Na  Na7  1  0.01850679  0.32085337  0.08465075  1
  Na  Na8  1  0.97052126  0.64936867  0.89652493  1
  Na  Na9  1  0.71445075  0.04705063  0.90802258  1
  Na  Na10  1  0.95195247  0.28867318  0.42117426  1
  Na  Na11  1  0.34825960  0.03347686  0.41229148  1
  Na  Na12  1  0.96846302  0.99023899  0.50781602  1
  Na  Na13  1  0.98442632  0.01921783  0.99777744  1
  Na  Na14  1  0.67429069  0.32688878  0.81676974  1
  Na  Na15  1  0.67619554  0.33270077  0.33590664  1
  Na  Na16  1  0.32595591  0.67755398  0.17878729  1
  Na  Na17  1  0.33244927  0.66424064  0.66398521  1
  La  La18  1  0.00277694  0.01556347  0.83869575  1
  La  La19  1  0.99327043  0.00323969  0.16144457  1
  La  La20  1  0.67334280  0.33143195  0.98556572  1
  La  La21  1  0.34072541  0.65954161  0.01754514  1
  La  La22  1  0.35078982  0.65814024  0.51900731  1
  La  La23  1  0.31970189  0.66989060  0.80840611  1
  In  In24  1  0.99247596  0.00202148  0.34539776  1
  In  In25  1  0.98595660  0.99033465  0.64826113  1
  In  In26  1  0.67814090  0.34000899  0.67957552  1
  In  In27  1  0.66885560  0.31759163  0.19154447  1
  In  In28  1  0.67616378  0.32577899  0.49099939  1
  In  In29  1  0.32804235  0.68464592  0.31827194  1
  Si  Si30  1  0.30332445  0.00292355  0.25110335  1
  Si  Si31  1  0.00883996  0.31754196  0.25244243  1
  Si  Si32  1  0.98956220  0.69492779  0.74625507  1
  Si  Si33  1  0.69421037  0.00621703  0.74593959  1
  Si  Si34  1  0.96608205  0.32632004  0.58423053  1
  Si  Si35  1  0.67548608  0.62530613  0.58541426  1
  Si  Si36  1  0.66487445  0.03006542  0.08532231  1
  Si  Si37  1  0.02738591  0.35844206  0.91967155  1
  Si  Si38  1  0.64045011  0.97450590  0.41535882  1
  S  S39  1  0.68883360  0.68778649  0.25301836  1
  S  S40  1  0.30890250  0.29694885  0.74344444  1
  S  S41  1  0.36956303  0.04506996  0.58270954  1
  S  S42  1  0.96647273  0.63365626  0.08699484  1
  S  S43  1  0.36955875  0.33120832  0.09001137  1
  S  S44  1  0.64520783  0.67247299  0.91339493  1
  S  S45  1  0.32643500  0.96899774  0.92032065  1
  S  S46  1  0.33131978  0.35595554  0.41016855  1
  S  S47  1  0.03179907  0.66960547  0.41515514  1
  O  O48  1  0.20068353  0.02129773  0.30445412  1
  O  O49  1  0.79667491  0.76858818  0.30195307  1
  O  O50  1  0.96614269  0.18054925  0.30231146  1
  O  O51  1  0.24568877  0.21707485  0.79914980  1
  O  O52  1  0.98470861  0.77518907  0.80866734  1
  O  O53  1  0.79203375  0.03897007  0.80772254  1
  O  O54  1  0.79668801  0.98242161  0.69473945  1
  O  O55  1  0.19690773  0.20480332  0.69705523  1
  O  O56  1  0.01428563  0.81621177  0.69355152  1
  O  O57  1  0.75463525  0.78638250  0.20076989  1
  O  O58  1  0.04589004  0.25243478  0.19212006  1
  O  O59  1  0.21066475  0.97981803  0.19030040  1
  O  O60  1  0.87886275  0.35470624  0.63946452  1
  O  O61  1  0.47653833  0.13193904  0.63094556  1
  O  O62  1  0.64828400  0.52347345  0.64364732  1
  O  O63  1  0.86685711  0.53053568  0.13434442  1
  O  O64  1  0.64160336  0.13170087  0.13855645  1
  O  O65  1  0.46796192  0.34468926  0.14069603  1
  O  O66  1  0.45242495  0.33078691  0.03712623  1
  O  O67  1  0.88485468  0.56600279  0.03177882  1
  O  O68  1  0.68023743  0.12437898  0.02507583  1
  O  O69  1  0.43923841  0.13129213  0.52765871  1
  O  O70  1  0.68659978  0.52612241  0.52900559  1
  O  O71  1  0.85783327  0.28959391  0.52436138  1
  O  O72  1  0.56183893  0.68502297  0.96522792  1
  O  O73  1  0.11838195  0.44470152  0.98057652  1
  O  O74  1  0.31938098  0.88103213  0.97364168  1
  O  O75  1  0.56013042  0.87282896  0.47255423  1
  O  O76  1  0.30203264  0.43275348  0.45993679  1
  O  O77  1  0.12986231  0.69714734  0.46716566  1
  O  O78  1  0.11216355  0.63634619  0.36588550  1
  O  O79  1  0.51964355  0.88713974  0.35918121  1
  O  O80  1  0.35089641  0.45440683  0.35864692  1
  O  O81  1  0.12559907  0.47438931  0.86622748  1
  O  O82  1  0.34896270  0.88305722  0.87161478  1
  O  O83  1  0.55239680  0.66349543  0.86248449  1
  O  O84  1  0.02238558  0.82181302  0.40587904  1
  O  O85  1  0.82730220  0.00355101  0.40698150  1
  O  O86  1  0.18319764  0.18780625  0.40628969  1
  O  O87  1  0.99602912  0.17047118  0.91869685  1
  O  O88  1  0.17289242  0.97252012  0.91618725  1
  O  O89  1  0.80907102  0.82207046  0.91436327  1
  O  O90  1  0.97873096  0.15724420  0.58874976  1
  O  O91  1  0.20419300  0.02327936  0.58780807  1
  O  O92  1  0.84863434  0.80398203  0.58426431  1
  O  O93  1  0.00061653  0.80504942  0.09015467  1
  O  O94  1  0.83633654  0.02621109  0.08848111  1
  O  O95  1  0.21008785  0.17506050  0.08924558  1
  O  O96  1  0.67845699  0.17177683  0.73992134  1
  O  O97  1  0.47343591  0.31861466  0.73852985  1
  O  O98  1  0.81682200  0.51905905  0.74583213  1
  O  O99  1  0.66764767  0.52082879  0.24544918  1
  O  O100  1  0.83959084  0.32773265  0.24952902  1
  O  O101  1  0.48123785  0.17924508  0.25154152  1
  O  O102  1  0.66645851  0.52645278  0.91598133  1
  O  O103  1  0.84585595  0.34794255  0.91621958  1
  O  O104  1  0.46955650  0.13615228  0.92084471  1
  O  O105  1  0.65188680  0.16140406  0.41991108  1
  O  O106  1  0.47629560  0.33489359  0.41706662  1
  O  O107  1  0.86881857  0.52025252  0.41905977  1
  O  O108  1  0.33682412  0.47102217  0.09079962  1
  O  O109  1  0.12602095  0.63498294  0.08838201  1
  O  O110  1  0.49320330  0.85358717  0.08609242  1
  O  O111  1  0.35441825  0.87805304  0.58033178  1
  O  O112  1  0.52924665  0.67274511  0.58442240  1
  O  O113  1  0.13742333  0.50083964  0.57944850  1
  O  O114  1  0.34451053  0.85193954  0.25549261  1
  O  O115  1  0.52466176  0.67041010  0.26071456  1
  O  O116  1  0.18107330  0.48998311  0.26342329  1
  O  O117  1  0.32300768  0.46348735  0.74522174  1
  O  O118  1  0.13746729  0.65012275  0.74295057  1
  O  O119  1  0.52411363  0.83046846  0.74774921  1
