# generated using pymatgen
data_Na3YZr3(PO4)6
_symmetry_space_group_name_H-M   'P 1'
_cell_length_a   9.04902406
_cell_length_b   9.05314324
_cell_length_c   23.48234990
_cell_angle_alpha   89.89809810
_cell_angle_beta   90.08870756
_cell_angle_gamma   120.31640920
_symmetry_Int_Tables_number   1
_chemical_formula_structural   Na3YZr3(PO4)6
_chemical_formula_sum   'Na9 Y3 Zr9 P18 O72'
_cell_volume   1660.65333042
_cell_formula_units_Z   3
loop_
 _symmetry_equiv_pos_site_id
 _symmetry_equiv_pos_as_xyz
  1  'x, y, z'
loop_
 _atom_site_type_symbol
 _atom_site_label
 _atom_site_symmetry_multiplicity
 _atom_site_fract_x
 _atom_site_fract_y
 _atom_site_fract_z
 _atom_site_occupancy
  Na  Na0  1  0.36454256  0.36074691  0.24853583  1
  Na  Na1  1  0.63574236  0.63322082  0.74948778  1
  Na  Na2  1  0.96937183  0.29978469  0.41574269  1
  Na  Na3  1  0.00036648  0.99280534  0.50010945  1
  Na  Na4  1  0.99988475  0.99991463  0.00139775  1
  Na  Na5  1  0.66696364  0.32607083  0.83416440  1
  Na  Na6  1  0.66734147  0.33364393  0.33062795  1
  Na  Na7  1  0.33276878  0.67354902  0.16504539  1
  Na  Na8  1  0.32611533  0.66696876  0.66564924  1
  Y  Y9  1  0.99804605  0.99047652  0.35270795  1
  Y  Y10  1  0.66788013  0.32639895  0.68475806  1
  Y  Y11  1  0.67406334  0.33277113  0.18215622  1
  Zr  Zr12  1  0.00187817  0.00202588  0.85498015  1
  Zr  Zr13  1  0.00240087  0.00270390  0.64630287  1
  Zr  Zr14  1  0.99767189  0.99741558  0.14645418  1
  Zr  Zr15  1  0.66630219  0.33377103  0.98188488  1
  Zr  Zr16  1  0.66043599  0.33417412  0.48269018  1
  Zr  Zr17  1  0.33385102  0.66620574  0.01871598  1
  Zr  Zr18  1  0.33558574  0.66822173  0.52001526  1
  Zr  Zr19  1  0.33537988  0.67482065  0.31349695  1
  Zr  Zr20  1  0.32737241  0.66729794  0.81574660  1
  P  P21  1  0.29104519  0.99852059  0.24937099  1
  P  P22  1  0.70424609  0.70628825  0.24965031  1
  P  P23  1  0.00112004  0.29283400  0.25159444  1
  P  P24  1  0.28748583  0.29099077  0.75119261  1
  P  P25  1  0.00374139  0.71553269  0.75086453  1
  P  P26  1  0.71181654  0.99796592  0.75154227  1
  P  P27  1  0.96125836  0.33274754  0.58179376  1
  P  P28  1  0.37029461  0.03735969  0.58281307  1
  P  P29  1  0.66709835  0.62859496  0.58407322  1
  P  P30  1  0.96313539  0.62980862  0.08175480  1
  P  P31  1  0.66707664  0.03825467  0.08194139  1
  P  P32  1  0.37138625  0.33321267  0.08317149  1
  P  P33  1  0.62305719  0.66507408  0.91624104  1
  P  P34  1  0.04089071  0.37576889  0.91733533  1
  P  P35  1  0.33441884  0.95803176  0.91719979  1
  P  P36  1  0.62198218  0.95959842  0.41819917  1
  P  P37  1  0.33732710  0.38084500  0.41687278  1
  P  P38  1  0.04350939  0.66406308  0.41848559  1
  O  O39  1  0.21398133  0.02918500  0.30257179  1
  O  O40  1  0.80828623  0.78396660  0.30307290  1
  O  O41  1  0.97989290  0.19345904  0.30666662  1
  O  O42  1  0.19830455  0.17987484  0.80367358  1
  O  O43  1  0.97858435  0.80329075  0.80332670  1
  O  O44  1  0.82202384  0.01684946  0.80407469  1
  O  O45  1  0.79458068  0.96792255  0.69791386  1
  O  O46  1  0.17820307  0.20573316  0.69737811  1
  O  O47  1  0.02781866  0.82454543  0.69694981  1
  O  O48  1  0.79217353  0.81943436  0.19666674  1
  O  O49  1  0.03150502  0.20492691  0.19920019  1
  O  O50  1  0.17739046  0.97240632  0.19639172  1
  O  O51  1  0.88579753  0.36484442  0.63472896  1
  O  O52  1  0.47693200  0.11175778  0.63605844  1
  O  O53  1  0.63581573  0.52574637  0.63876618  1
  O  O54  1  0.89145676  0.52498247  0.13543895  1
  O  O55  1  0.63322445  0.10911231  0.13554224  1
  O  O56  1  0.47269626  0.36505807  0.13817747  1
  O  O57  1  0.46329996  0.30794395  0.03112634  1
  O  O58  1  0.84639853  0.53944036  0.02932011  1
  O  O59  1  0.69348590  0.15453290  0.02942030  1
  O  O60  1  0.45955055  0.15320258  0.52989824  1
  O  O61  1  0.69208447  0.53730361  0.53160275  1
  O  O62  1  0.84941640  0.30639026  0.52765972  1
  O  O63  1  0.53655146  0.69201374  0.96796200  1
  O  O64  1  0.15401097  0.46106106  0.96931569  1
  O  O65  1  0.30687577  0.84526512  0.96921072  1
  O  O66  1  0.53267472  0.84783105  0.47016035  1
  O  O67  1  0.31297552  0.47098317  0.46857349  1
  O  O68  1  0.15422857  0.68293698  0.47051999  1
  O  O69  1  0.12698989  0.63444663  0.36468310  1
  O  O70  1  0.51218505  0.87368132  0.36426301  1
  O  O71  1  0.36158011  0.48734179  0.36183652  1
  O  O72  1  0.12788576  0.48817785  0.86351592  1
  O  O73  1  0.35972341  0.87174097  0.86340233  1
  O  O74  1  0.51446873  0.64005827  0.86131911  1
  O  O75  1  0.02247347  0.81938580  0.41513833  1
  O  O76  1  0.80325463  0.98689166  0.41453991  1
  O  O77  1  0.17291240  0.20545860  0.41384947  1
  O  O78  1  0.02313163  0.19738298  0.90939205  1
  O  O79  1  0.17408144  0.97622683  0.90911982  1
  O  O80  1  0.80319322  0.82617116  0.90908978  1
  O  O81  1  0.97835760  0.17086824  0.58880723  1
  O  O82  1  0.19140542  0.02071071  0.58861210  1
  O  O83  1  0.82969455  0.80855231  0.58913179  1
  O  O84  1  0.97964219  0.80875298  0.08815177  1
  O  O85  1  0.82921975  0.02138923  0.08859320  1
  O  O86  1  0.19092344  0.17071247  0.08876265  1
  O  O87  1  0.69012793  0.15349713  0.74770571  1
  O  O88  1  0.46970429  0.31910767  0.74706224  1
  O  O89  1  0.83903290  0.53964263  0.74670840  1
  O  O90  1  0.67116584  0.52285318  0.24411214  1
  O  O91  1  0.84832423  0.31802146  0.24560462  1
  O  O92  1  0.46784994  0.15972202  0.24360197  1
  O  O93  1  0.64157888  0.50517869  0.92361890  1
  O  O94  1  0.86234242  0.35705813  0.92376395  1
  O  O95  1  0.49487585  0.13746291  0.92371125  1
  O  O96  1  0.64253826  0.14137656  0.42426963  1
  O  O97  1  0.49801505  0.36263295  0.42424143  1
  O  O98  1  0.86586578  0.49477674  0.42447487  1
  O  O99  1  0.35029484  0.49116913  0.07278797  1
  O  O100  1  0.14288700  0.65179974  0.07223324  1
  O  O101  1  0.50912824  0.85752415  0.07235290  1
  O  O102  1  0.34843561  0.85831796  0.57366521  1
  O  O103  1  0.50960340  0.64949554  0.57399677  1
  O  O104  1  0.14219858  0.49034089  0.57342101  1
  O  O105  1  0.30731424  0.83535347  0.25607447  1
  O  O106  1  0.52145611  0.68758413  0.25566016  1
  O  O107  1  0.17276346  0.47173001  0.25651409  1
  O  O108  1  0.30891067  0.47363430  0.75748075  1
  O  O109  1  0.16390744  0.69594547  0.75754100  1
  O  O110  1  0.53351423  0.82871202  0.75772125  1
