# generated using pymatgen
data_Mg(WO3)4
_symmetry_space_group_name_H-M   'P 1'
_cell_length_a   5.24229214
_cell_length_b   5.49513536
_cell_length_c   7.61006863
_cell_angle_alpha   89.42457262
_cell_angle_beta   89.82095187
_cell_angle_gamma   89.96408313
_symmetry_Int_Tables_number   1
_chemical_formula_structural   Mg(WO3)4
_chemical_formula_sum   'Mg1 W4 O12'
_cell_volume   219.21188009
_cell_formula_units_Z   1
loop_
 _symmetry_equiv_pos_site_id
 _symmetry_equiv_pos_as_xyz
  1  'x, y, z'
loop_
 _atom_site_type_symbol
 _atom_site_label
 _atom_site_symmetry_multiplicity
 _atom_site_fract_x
 _atom_site_fract_y
 _atom_site_fract_z
 _atom_site_occupancy
  Mg  Mg0  1  0.01956800  0.93256200  0.73909500  1
  W  W1  1  0.50589400  0.98964100  0.00588900  1
  W  W2  1  0.00320800  0.49530500  0.49785500  1
  W  W3  1  0.50852400  0.00650100  0.49761000  1
  W  W4  1  0.99865100  0.48171400  0.00337200  1
  O  O5  1  0.70525300  0.31131400  0.45972500  1
  O  O6  1  0.78473500  0.78493200  0.04809400  1
  O  O7  1  0.27633400  0.71641900  0.55139400  1
  O  O8  1  0.19377400  0.19981800  0.93636300  1
  O  O9  1  0.19465400  0.18382500  0.56413900  1
  O  O10  1  0.27234800  0.73294100  0.94637000  1
  O  O11  1  0.79252300  0.80590000  0.46126000  1
  O  O12  1  0.70248700  0.29408900  0.04020400  1
  O  O13  1  0.09795500  0.47818400  0.23868400  1
  O  O14  1  0.41215700  0.99911200  0.24189600  1
  O  O15  1  0.62838000  0.01496100  0.75941100  1
  O  O16  1  0.91605700  0.54778000  0.75863700  1
