# generated using pymatgen
data_Na10Nb2Al6Si7S5O48
_symmetry_space_group_name_H-M   'P 1'
_cell_length_a   17.54201118
_cell_length_b   8.74772783
_cell_length_c   21.96310548
_cell_angle_alpha   90.07831437
_cell_angle_beta   90.30859962
_cell_angle_gamma   119.94968869
_symmetry_Int_Tables_number   1
_chemical_formula_structural   Na10Nb2Al6Si7S5O48
_chemical_formula_sum   'Na30 Nb6 Al18 Si21 S15 O144'
_cell_volume   2920.16854319
_cell_formula_units_Z   3
loop_
 _symmetry_equiv_pos_site_id
 _symmetry_equiv_pos_as_xyz
  1  'x, y, z'
loop_
 _atom_site_type_symbol
 _atom_site_label
 _atom_site_symmetry_multiplicity
 _atom_site_fract_x
 _atom_site_fract_y
 _atom_site_fract_z
 _atom_site_occupancy
  Na  Na0  1  0.31925968  0.00127420  0.24590390  1
  Na  Na1  1  0.81490447  0.00222375  0.24765273  1
  Na  Na2  1  0.18558996  0.36737762  0.24610965  1
  Na  Na3  1  0.31507494  0.62770206  0.74826597  1
  Na  Na4  1  0.81858643  0.63628276  0.74574510  1
  Na  Na5  1  0.68462854  0.00272592  0.74655562  1
  Na  Na6  1  0.15747882  0.33467125  0.58352752  1
  Na  Na7  1  0.65367229  0.33308689  0.57883714  1
  Na  Na8  1  0.01789120  0.70036038  0.57548683  1
  Na  Na9  1  0.15528826  0.97661700  0.08158198  1
  Na  Na10  1  0.65653225  0.97893762  0.08335335  1
  Na  Na11  1  0.51733433  0.33424660  0.07473402  1
  Na  Na12  1  0.85099511  0.02881032  0.92033200  1
  Na  Na13  1  0.66591929  0.31074975  0.91971434  1
  Na  Na14  1  0.48590004  0.29856281  0.41980219  1
  Na  Na15  1  0.16739497  0.02279331  0.42021303  1
  Na  Na16  1  0.66717623  0.04829546  0.41645250  1
  Na  Na17  1  0.84781947  0.65925580  0.41670077  1
  Na  Na18  1  0.99656446  0.99717018  0.49747737  1
  Na  Na19  1  0.48835782  0.97920165  0.49526804  1
  Na  Na20  1  0.99912513  0.99896191  0.99548812  1
  Na  Na21  1  0.48868989  0.99482893  0.99513833  1
  Na  Na22  1  0.33418686  0.32788903  0.83341744  1
  Na  Na23  1  0.84155402  0.34399717  0.83268976  1
  Na  Na24  1  0.33692495  0.34955499  0.33295914  1
  Na  Na25  1  0.83554198  0.34154602  0.33162660  1
  Na  Na26  1  0.16596478  0.65325026  0.16106470  1
  Na  Na27  1  0.67337756  0.66838179  0.16492475  1
  Na  Na28  1  0.17447308  0.67928184  0.66531486  1
  Na  Na29  1  0.66595563  0.67873171  0.66138375  1
  Nb  Nb30  1  0.00061083  0.00694942  0.64753012  1
  Nb  Nb31  1  0.50321223  0.98607785  0.64101758  1
  Nb  Nb32  1  0.00351778  0.01990471  0.14058093  1
  Nb  Nb33  1  0.49948063  0.99257183  0.14703052  1
  Nb  Nb34  1  0.16355105  0.67688880  0.31193736  1
  Nb  Nb35  1  0.66180314  0.64584230  0.81250094  1
  Al  Al36  1  0.00303720  0.00078507  0.34979994  1
  Al  Al37  1  0.50090735  0.99595811  0.35485559  1
  Al  Al38  1  0.99971323  0.00535866  0.85139149  1
  Al  Al39  1  0.49784323  0.00557802  0.85011339  1
  Al  Al40  1  0.32195929  0.33885370  0.68822803  1
  Al  Al41  1  0.82144826  0.31384488  0.68492981  1
  Al  Al42  1  0.32207807  0.32795427  0.18523439  1
  Al  Al43  1  0.82166996  0.30518401  0.18809848  1
  Al  Al44  1  0.33189236  0.31360182  0.98007941  1
  Al  Al45  1  0.83100096  0.33956629  0.98618300  1
  Al  Al46  1  0.32783389  0.32559318  0.48534127  1
  Al  Al47  1  0.82956123  0.34993340  0.47892071  1
  Al  Al48  1  0.17452095  0.66815010  0.02101125  1
  Al  Al49  1  0.68174827  0.65497094  0.01927075  1
  Al  Al50  1  0.18140518  0.70616373  0.52079242  1
  Al  Al51  1  0.67020435  0.66395923  0.52208976  1
  Al  Al52  1  0.66462134  0.66456636  0.31530130  1
  Al  Al53  1  0.16505617  0.65790006  0.81626026  1
  Si  Si54  1  0.14454289  0.00537883  0.25007706  1
  Si  Si55  1  0.64563953  0.99356687  0.25734864  1
  Si  Si56  1  0.36068224  0.70216276  0.25455153  1
  Si  Si57  1  0.99285501  0.28740421  0.25452773  1
  Si  Si58  1  0.14598585  0.29508162  0.75766782  1
  Si  Si59  1  0.64363932  0.28098236  0.75054832  1
  Si  Si60  1  0.49267798  0.69873762  0.75521601  1
  Si  Si61  1  0.85865527  0.01825755  0.75430043  1
  Si  Si62  1  0.19660775  0.04641902  0.58500124  1
  Si  Si63  1  0.69601123  0.03863779  0.57794896  1
  Si  Si64  1  0.32738804  0.61240746  0.57941573  1
  Si  Si65  1  0.83044920  0.61578346  0.58458422  1
  Si  Si66  1  0.33008388  0.04552019  0.08357525  1
  Si  Si67  1  0.82767990  0.04213164  0.07833811  1
  Si  Si68  1  0.19741264  0.35011602  0.07795015  1
  Si  Si69  1  0.69669479  0.34590579  0.08506440  1
  Si  Si70  1  0.82373851  0.66937494  0.91823982  1
  Si  Si71  1  0.51281111  0.36620340  0.92220568  1
  Si  Si72  1  0.31941933  0.96954576  0.41880059  1
  Si  Si73  1  0.66497558  0.38166278  0.41604274  1
  Si  Si74  1  0.01713433  0.66126255  0.42201256  1
  S  S75  1  0.85462906  0.70489649  0.25184445  1
  S  S76  1  0.50380284  0.30010042  0.25186577  1
  S  S77  1  0.00461899  0.71087895  0.75313113  1
  S  S78  1  0.35361612  0.00334424  0.75253069  1
  S  S79  1  0.47481053  0.33908596  0.58355743  1
  S  S80  1  0.97205723  0.33274761  0.58178116  1
  S  S81  1  0.47225172  0.61150229  0.08167113  1
  S  S82  1  0.97616703  0.61215849  0.08293747  1
  S  S83  1  0.31055242  0.66745614  0.91648479  1
  S  S84  1  0.02643489  0.38671916  0.91761920  1
  S  S85  1  0.16545103  0.94704945  0.91602362  1
  S  S86  1  0.66344767  0.95507262  0.91875658  1
  S  S87  1  0.81231408  0.95650002  0.41666005  1
  S  S88  1  0.16532256  0.37386519  0.41876573  1
  S  S89  1  0.52339423  0.66572308  0.41744391  1
  O  O90  1  0.09998727  0.03560104  0.30965709  1
  O  O91  1  0.59796353  0.02354252  0.31463403  1
  O  O92  1  0.42019402  0.80978044  0.31086433  1
  O  O93  1  0.90791171  0.78991051  0.30846522  1
  O  O94  1  0.48713622  0.18492188  0.30503107  1
  O  O95  1  0.97641008  0.15123040  0.30942347  1
  O  O96  1  0.09416022  0.15956489  0.81140725  1
  O  O97  1  0.59862449  0.16116424  0.80974131  1
  O  O98  1  0.47629020  0.80283435  0.80973399  1
  O  O99  1  0.98559934  0.79512774  0.80455943  1
  O  O100  1  0.40922349  0.02821102  0.80713355  1
  O  O101  1  0.91470469  0.03391566  0.81420717  1
  O  O102  1  0.39086985  0.96066554  0.69772967  1
  O  O103  1  0.90062611  0.96320183  0.69550706  1
  O  O104  1  0.08524095  0.20739747  0.69293931  1
  O  O105  1  0.58413826  0.19943933  0.68850823  1
  O  O106  1  0.01996768  0.81692307  0.69537085  1
  O  O107  1  0.51406846  0.83019500  0.69322677  1
  O  O108  1  0.39917661  0.83517631  0.19378577  1
  O  O109  1  0.89547914  0.82302663  0.19797781  1
  O  O110  1  0.01351245  0.19715973  0.19285516  1
  O  O111  1  0.51818504  0.21987694  0.19518764  1
  O  O112  1  0.08472804  0.96973590  0.18841574  1
  O  O113  1  0.58409849  0.96189155  0.19367020  1
  O  O114  1  0.43417796  0.35992892  0.63758822  1
  O  O115  1  0.93290376  0.35834869  0.63784012  1
  O  O116  1  0.25542881  0.14469305  0.64334176  1
  O  O117  1  0.74472088  0.12019955  0.64292661  1
  O  O118  1  0.31324037  0.50522738  0.64300383  1
  O  O119  1  0.82002207  0.49874519  0.64547082  1
  O  O120  1  0.43263262  0.50655914  0.13769525  1
  O  O121  1  0.93865117  0.51178617  0.13803220  1
  O  O122  1  0.31739626  0.13483959  0.14591293  1
  O  O123  1  0.81401854  0.12496362  0.14108463  1
  O  O124  1  0.24451892  0.36631135  0.14373482  1
  O  O125  1  0.75597131  0.36812456  0.14356815  1
  O  O126  1  0.23989502  0.29924748  0.02224303  1
  O  O127  1  0.73061708  0.29656424  0.02286783  1
  O  O128  1  0.42019385  0.53821526  0.02696149  1
  O  O129  1  0.92217103  0.53461027  0.02719623  1
  O  O130  1  0.35689997  0.17623085  0.02630406  1
  O  O131  1  0.84870587  0.16765104  0.01850360  1
  O  O132  1  0.22916094  0.16084067  0.52219855  1
  O  O133  1  0.73800035  0.17080269  0.52068081  1
  O  O134  1  0.34932568  0.52520304  0.52198977  1
  O  O135  1  0.85473731  0.54167009  0.52436215  1
  O  O136  1  0.42373532  0.31079024  0.52576915  1
  O  O137  1  0.91944643  0.30350744  0.52707309  1
  O  O138  1  0.26748263  0.69706323  0.97013641  1
  O  O139  1  0.77449370  0.71268187  0.97225278  1
  O  O140  1  0.08052554  0.47659241  0.97189122  1
  O  O141  1  0.58419417  0.46754918  0.97791757  1
  O  O142  1  0.15346677  0.84087504  0.97257905  1
  O  O143  1  0.65220921  0.84799526  0.97265138  1
  O  O144  1  0.27084062  0.84218376  0.47473523  1
  O  O145  1  0.76982025  0.83922613  0.46962240  1
  O  O146  1  0.15226271  0.45600997  0.47251104  1
  O  O147  1  0.64686568  0.46967343  0.47699424  1
  O  O148  1  0.08549143  0.70298336  0.47854354  1
  O  O149  1  0.58029719  0.69576480  0.47123118  1
  O  O150  1  0.06671501  0.63785109  0.36041415  1
  O  O151  1  0.56397243  0.63803615  0.36165310  1
  O  O152  1  0.25260034  0.88029275  0.35760024  1
  O  O153  1  0.75738247  0.87896352  0.36006196  1
  O  O154  1  0.17825995  0.47854987  0.36206201  1
  O  O155  1  0.68311019  0.51637424  0.35929756  1
  O  O156  1  0.06734265  0.49281523  0.86185069  1
  O  O157  1  0.56587000  0.49360585  0.86100190  1
  O  O158  1  0.17698700  0.85578014  0.86206031  1
  O  O159  1  0.67919947  0.87614333  0.86276556  1
  O  O160  1  0.25646933  0.64537041  0.86009682  1
  O  O161  1  0.75574187  0.62975892  0.85731742  1
  O  O162  1  0.00797911  0.84092680  0.40938074  1
  O  O163  1  0.51468972  0.82578821  0.41291364  1
  O  O164  1  0.41515747  0.99237100  0.40698330  1
  O  O165  1  0.89992925  0.96737880  0.41093875  1
  O  O166  1  0.08538580  0.19257253  0.41248079  1
  O  O167  1  0.57882222  0.18274247  0.40954662  1
  O  O168  1  0.01772506  0.20761703  0.91412838  1
  O  O169  1  0.51017653  0.17673563  0.90904736  1
  O  O170  1  0.08600088  0.96384789  0.90992244  1
  O  O171  1  0.58509016  0.97713249  0.91261344  1
  O  O172  1  0.39858213  0.82907595  0.91128539  1
  O  O173  1  0.91803985  0.84970936  0.90773412  1
  O  O174  1  0.48620943  0.17820699  0.58654503  1
  O  O175  1  0.98389671  0.17099257  0.58628368  1
  O  O176  1  0.09425173  0.02598136  0.59116383  1
  O  O177  1  0.59505796  0.02752444  0.58449216  1
  O  O178  1  0.41315043  0.81729758  0.58745455  1
  O  O179  1  0.92070783  0.81384939  0.59116011  1
  O  O180  1  0.48475643  0.79726203  0.08652168  1
  O  O181  1  0.98643916  0.79508478  0.08633974  1
  O  O182  1  0.41962574  0.02567264  0.09114886  1
  O  O183  1  0.91366565  0.01019638  0.08673470  1
  O  O184  1  0.09543013  0.16076127  0.08431105  1
  O  O185  1  0.59444720  0.16301974  0.09135121  1
  O  O186  1  0.34674264  0.16044937  0.74512885  1
  O  O187  1  0.84811995  0.18844512  0.74191205  1
  O  O188  1  0.24193893  0.31490486  0.74743333  1
  O  O189  1  0.74344166  0.31295951  0.74523589  1
  O  O190  1  0.41023230  0.50720918  0.74155415  1
  O  O191  1  0.92543461  0.53543495  0.74475947  1
  O  O192  1  0.34844851  0.50910356  0.24219376  1
  O  O193  1  0.84750953  0.53405139  0.24521377  1
  O  O194  1  0.42378616  0.31471193  0.24355502  1
  O  O195  1  0.90992535  0.31270854  0.24138377  1
  O  O196  1  0.24388034  0.17416794  0.24554167  1
  O  O197  1  0.74173804  0.16660343  0.24680206  1
  O  O198  1  0.31756764  0.50823752  0.92214506  1
  O  O199  1  0.82496744  0.48423952  0.92563913  1
  O  O200  1  0.41859650  0.35780372  0.92458169  1
  O  O201  1  0.93605318  0.36187518  0.92063409  1
  O  O202  1  0.24582943  0.12344973  0.92024545  1
  O  O203  1  0.74514720  0.13479069  0.92088851  1
  O  O204  1  0.32701556  0.16696440  0.42517190  1
  O  O205  1  0.82182582  0.13216003  0.42323134  1
  O  O206  1  0.24479536  0.35211722  0.42149050  1
  O  O207  1  0.75267988  0.35911332  0.42132680  1
  O  O208  1  0.43557027  0.50424183  0.42194147  1
  O  O209  1  0.92103883  0.48638387  0.42495532  1
  O  O210  1  0.17616069  0.50847635  0.07129608  1
  O  O211  1  0.67483142  0.50563996  0.07967429  1
  O  O212  1  0.06754108  0.64331998  0.07451349  1
  O  O213  1  0.56324148  0.64077259  0.07829340  1
  O  O214  1  0.24145208  0.85299769  0.07399710  1
  O  O215  1  0.73811277  0.84856684  0.07148635  1
  O  O216  1  0.17335267  0.84201449  0.58104097  1
  O  O217  1  0.67555684  0.83904249  0.56963407  1
  O  O218  1  0.23790857  0.62710111  0.57245700  1
  O  O219  1  0.74238736  0.63202989  0.57749033  1
  O  O220  1  0.06299953  0.48498586  0.57795511  1
  O  O221  1  0.56552644  0.49455163  0.57791726  1
  O  O222  1  0.15619575  0.82896026  0.25132476  1
  O  O223  1  0.65959201  0.81987367  0.26192705  1
  O  O224  1  0.26062157  0.68055513  0.25893225  1
  O  O225  1  0.76654038  0.69444253  0.25719744  1
  O  O226  1  0.08750691  0.47105971  0.25736999  1
  O  O227  1  0.58327438  0.47571586  0.25772560  1
  O  O228  1  0.15866461  0.49557436  0.76177031  1
  O  O229  1  0.65598686  0.48156986  0.75183626  1
  O  O230  1  0.08464303  0.69677510  0.76113008  1
  O  O231  1  0.58729694  0.70320811  0.75828844  1
  O  O232  1  0.26438793  0.83991836  0.76052399  1
  O  O233  1  0.75950434  0.83941109  0.75843245  1
