# generated using pymatgen
data_FeBPbO4
_symmetry_space_group_name_H-M   'P 1'
_cell_length_a   5.97344817
_cell_length_b   7.00442633
_cell_length_c   8.41793253
_cell_angle_alpha   90.00000000
_cell_angle_beta   90.00000000
_cell_angle_gamma   90.00000000
_symmetry_Int_Tables_number   1
_chemical_formula_structural   FeBPbO4
_chemical_formula_sum   'Fe4 B4 Pb4 O16'
_cell_volume   352.21115961
_cell_formula_units_Z   4
loop_
 _symmetry_equiv_pos_site_id
 _symmetry_equiv_pos_as_xyz
  1  'x, y, z'
loop_
 _atom_site_type_symbol
 _atom_site_label
 _atom_site_symmetry_multiplicity
 _atom_site_fract_x
 _atom_site_fract_y
 _atom_site_fract_z
 _atom_site_occupancy
  Fe  Fe0  1  0.00000000  0.50000000  0.50000000  1
  Fe  Fe1  1  0.50000000  0.50000000  0.50000000  1
  Fe  Fe2  1  0.50000000  -0.00000000  0.00000000  1
  Fe  Fe3  1  0.00000000  -0.00000000  0.00000000  1
  B  B4  1  0.25000000  0.77919529  0.73384658  1
  B  B5  1  0.25000000  0.27919529  0.76615342  1
  B  B6  1  0.75000000  0.72080471  0.23384658  1
  B  B7  1  0.75000000  0.22080471  0.26615342  1
  Pb  Pb8  1  0.25000000  0.55954583  0.14432073  1
  Pb  Pb9  1  0.75000000  0.44045417  0.85567927  1
  Pb  Pb10  1  0.25000000  0.05954583  0.35567927  1
  Pb  Pb11  1  0.75000000  0.94045417  0.64432073  1
  O  O12  1  0.04994681  0.33000858  0.69514386  1
  O  O13  1  0.54994681  0.66999142  0.30485614  1
  O  O14  1  0.45005319  0.83000858  0.80485614  1
  O  O15  1  0.95005319  0.16999142  0.19514386  1
  O  O16  1  0.25000000  0.18216615  0.90927284  1
  O  O17  1  0.75000000  0.31783385  0.40927284  1
  O  O18  1  0.75000000  0.81783385  0.09072716  1
  O  O19  1  0.25000000  0.68216615  0.59072716  1
  O  O20  1  0.25000000  0.89312161  0.11598683  1
  O  O21  1  0.75000000  0.10687839  0.88401317  1
  O  O22  1  0.25000000  0.39312161  0.38401317  1
  O  O23  1  0.75000000  0.60687839  0.61598683  1
  O  O24  1  0.04994681  0.83000858  0.80485614  1
  O  O25  1  0.54994681  0.16999142  0.19514386  1
  O  O26  1  0.45005319  0.33000858  0.69514386  1
  O  O27  1  0.95005319  0.66999142  0.30485614  1
