# generated using pymatgen
data_Na10YNb7(SiO4)12
_symmetry_space_group_name_H-M   'P 1'
_cell_length_a   18.21389938
_cell_length_b   9.11940147
_cell_length_c   22.70515008
_cell_angle_alpha   89.99771305
_cell_angle_beta   90.00437255
_cell_angle_gamma   120.13026350
_symmetry_Int_Tables_number   1
_chemical_formula_structural   Na10YNb7(SiO4)12
_chemical_formula_sum   'Na30 Y3 Nb21 Si36 O144'
_cell_volume   3261.76534288
_cell_formula_units_Z   3
loop_
 _symmetry_equiv_pos_site_id
 _symmetry_equiv_pos_as_xyz
  1  'x, y, z'
loop_
 _atom_site_type_symbol
 _atom_site_label
 _atom_site_symmetry_multiplicity
 _atom_site_fract_x
 _atom_site_fract_y
 _atom_site_fract_z
 _atom_site_occupancy
  Na  Na0  1  0.81541882  0.00693072  0.24852435  1
  Na  Na1  1  0.18522164  0.36769131  0.24908050  1
  Na  Na2  1  0.68591822  0.36582896  0.24798889  1
  Na  Na3  1  0.99696905  0.62472844  0.24864497  1
  Na  Na4  1  0.31566534  0.62421434  0.74901168  1
  Na  Na5  1  0.81609348  0.62441956  0.74851255  1
  Na  Na6  1  0.99603161  0.36724934  0.74800196  1
  Na  Na7  1  0.49591351  0.36657165  0.74812315  1
  Na  Na8  1  0.18807525  0.00838528  0.74922394  1
  Na  Na9  1  0.68817505  0.00886531  0.74864617  1
  Na  Na10  1  0.15344495  0.33804328  0.58376993  1
  Na  Na11  1  0.65460006  0.33807584  0.58305565  1
  Na  Na12  1  0.33242721  0.97136954  0.58313322  1
  Na  Na13  1  0.83287537  0.97312641  0.58292076  1
  Na  Na14  1  0.65133894  0.96806888  0.08451452  1
  Na  Na15  1  0.83130060  0.69169936  0.08323366  1
  Na  Na16  1  0.01697408  0.33844739  0.08243487  1
  Na  Na17  1  0.48323436  0.29886672  0.41670221  1
  Na  Na18  1  0.99983333  0.99224928  0.49737268  1
  Na  Na19  1  0.50127632  0.98633956  0.49815025  1
  Na  Na20  1  0.00464713  0.99990827  0.99769412  1
  Na  Na21  1  0.49549186  0.00035940  0.99968492  1
  Na  Na22  1  0.33295190  0.33299306  0.83571009  1
  Na  Na23  1  0.83353121  0.33325596  0.83458314  1
  Na  Na24  1  0.33326184  0.33309838  0.33186540  1
  Na  Na25  1  0.83292840  0.33234443  0.33392946  1
  Na  Na26  1  0.17427497  0.68381963  0.16412741  1
  Na  Na27  1  0.65830141  0.65616537  0.16606477  1
  Na  Na28  1  0.16181493  0.66639757  0.66533474  1
  Na  Na29  1  0.66201819  0.66680557  0.66503785  1
  Y  Y30  1  0.33440380  0.33483182  0.68338040  1
  Y  Y31  1  0.83437978  0.33517064  0.68277793  1
  Y  Y32  1  0.83242574  0.33279329  0.18355369  1
  Nb  Nb33  1  0.00134981  0.00155946  0.35716828  1
  Nb  Nb34  1  0.49774830  0.99464319  0.35448072  1
  Nb  Nb35  1  0.00019850  0.00123720  0.85894980  1
  Nb  Nb36  1  0.49999516  0.99977764  0.85872916  1
  Nb  Nb37  1  0.99975255  0.99582414  0.64546585  1
  Nb  Nb38  1  0.50035104  0.99682715  0.64552016  1
  Nb  Nb39  1  0.00385075  0.00104789  0.14511493  1
  Nb  Nb40  1  0.49605311  0.99776512  0.14450779  1
  Nb  Nb41  1  0.33669171  0.33361400  0.18679263  1
  Nb  Nb42  1  0.33269618  0.33262935  0.97793932  1
  Nb  Nb43  1  0.83360463  0.33436931  0.97809110  1
  Nb  Nb44  1  0.33040060  0.33518270  0.47908242  1
  Nb  Nb45  1  0.83415667  0.33378417  0.47788904  1
  Nb  Nb46  1  0.17172463  0.67486950  0.02015046  1
  Nb  Nb47  1  0.66202410  0.65931857  0.01794426  1
  Nb  Nb48  1  0.16414993  0.66579367  0.51618274  1
  Nb  Nb49  1  0.66560303  0.66851465  0.51640102  1
  Nb  Nb50  1  0.17005264  0.67218848  0.31291465  1
  Nb  Nb51  1  0.66399662  0.66580630  0.31281942  1
  Nb  Nb52  1  0.16679035  0.66645608  0.81575554  1
  Nb  Nb53  1  0.66685906  0.66664480  0.81547542  1
  Si  Si54  1  0.14550573  0.00025335  0.25126031  1
  Si  Si55  1  0.64059089  0.99320183  0.25013278  1
  Si  Si56  1  0.35594728  0.71047582  0.24987968  1
  Si  Si57  1  0.85600518  0.71626949  0.25143289  1
  Si  Si58  1  0.00230056  0.28953180  0.25173003  1
  Si  Si59  1  0.49839835  0.28533996  0.25071620  1
  Si  Si60  1  0.14175068  0.28870377  0.75179304  1
  Si  Si61  1  0.64195188  0.28879444  0.75190408  1
  Si  Si62  1  0.00246794  0.71626333  0.75313390  1
  Si  Si63  1  0.50252578  0.71611988  0.75296559  1
  Si  Si64  1  0.35557405  0.99518398  0.75203131  1
  Si  Si65  1  0.85564005  0.99568910  0.75215932  1
  Si  Si66  1  0.48248705  0.33623664  0.58250801  1
  Si  Si67  1  0.98218085  0.33605198  0.58344019  1
  Si  Si68  1  0.18440673  0.03358580  0.58330356  1
  Si  Si69  1  0.68542122  0.03609438  0.58279128  1
  Si  Si70  1  0.33331492  0.63071985  0.58276562  1
  Si  Si71  1  0.83364874  0.62876731  0.58208400  1
  Si  Si72  1  0.47655781  0.62178803  0.08216988  1
  Si  Si73  1  0.98273496  0.62968464  0.08278107  1
  Si  Si74  1  0.33334790  0.04740373  0.08253987  1
  Si  Si75  1  0.83279431  0.03627237  0.08248862  1
  Si  Si76  1  0.19169394  0.33737572  0.08393397  1
  Si  Si77  1  0.68389958  0.33181599  0.08263299  1
  Si  Si78  1  0.31222578  0.66387597  0.91669309  1
  Si  Si79  1  0.81142864  0.66493702  0.91762971  1
  Si  Si80  1  0.02202734  0.37862117  0.91882067  1
  Si  Si81  1  0.51858014  0.37377493  0.91549966  1
  Si  Si82  1  0.16771778  0.95812568  0.91701305  1
  Si  Si83  1  0.66743459  0.95894375  0.91741220  1
  Si  Si84  1  0.31193405  0.95942196  0.41714676  1
  Si  Si85  1  0.81229458  0.95839648  0.41554095  1
  Si  Si86  1  0.16717424  0.37684088  0.41561620  1
  Si  Si87  1  0.66849872  0.37596623  0.41512075  1
  Si  Si88  1  0.02071784  0.66437960  0.41411242  1
  Si  Si89  1  0.52001758  0.66863910  0.41614450  1
  O  O90  1  0.09905255  0.03034309  0.30754900  1
  O  O91  1  0.58896236  0.01643209  0.30582304  1
  O  O92  1  0.41398648  0.80689135  0.30796262  1
  O  O93  1  0.91902077  0.81920811  0.30630400  1
  O  O94  1  0.48573417  0.17256665  0.31038123  1
  O  O95  1  0.99300492  0.16719357  0.30702029  1
  O  O96  1  0.09109263  0.16593276  0.80710189  1
  O  O97  1  0.59126704  0.16578007  0.80698939  1
  O  O98  1  0.49152767  0.81576919  0.80828097  1
  O  O99  1  0.99155355  0.81659157  0.80834347  1
  O  O100  1  0.41706549  0.01605242  0.80708550  1
  O  O101  1  0.91687305  0.01595345  0.80730394  1
  O  O102  1  0.40066068  0.96882732  0.69151130  1
  O  O103  1  0.90045065  0.96885297  0.69165879  1
  O  O104  1  0.08356910  0.19889424  0.69128687  1
  O  O105  1  0.58363704  0.19938630  0.69134166  1
  O  O106  1  0.01548234  0.83795914  0.69394734  1
  O  O107  1  0.51558062  0.83823485  0.69394332  1
  O  O108  1  0.40303700  0.83171594  0.19280806  1
  O  O109  1  0.90142193  0.83378983  0.19160999  1
  O  O110  1  0.01585840  0.19847622  0.19201569  1
  O  O111  1  0.51524536  0.19149493  0.19460757  1
  O  O112  1  0.08196237  0.96786534  0.19360080  1
  O  O113  1  0.58562766  0.97357768  0.19035027  1
  O  O114  1  0.45124750  0.37163566  0.64441488  1
  O  O115  1  0.95264588  0.37253463  0.64590257  1
  O  O116  1  0.23869561  0.09418182  0.64365477  1
  O  O117  1  0.73845531  0.09332316  0.64388870  1
  O  O118  1  0.30747325  0.52057100  0.64273620  1
  O  O119  1  0.80726135  0.52170703  0.64294049  1
  O  O120  1  0.42971542  0.50129275  0.14031452  1
  O  O121  1  0.95205409  0.52271458  0.14371971  1
  O  O122  1  0.32050951  0.14197264  0.14063220  1
  O  O123  1  0.80830036  0.09456403  0.14335123  1
  O  O124  1  0.24778698  0.35965022  0.14353157  1
  O  O125  1  0.73850108  0.38458333  0.14338550  1
  O  O126  1  0.23750951  0.30761603  0.02713190  1
  O  O127  1  0.73687608  0.30280645  0.02898562  1
  O  O128  1  0.41673312  0.52616057  0.02554836  1
  O  O129  1  0.91467330  0.52830441  0.02894025  1
  O  O130  1  0.34677775  0.16737477  0.02565196  1
  O  O131  1  0.84932717  0.17177538  0.02912019  1
  O  O132  1  0.23691456  0.16900122  0.52882964  1
  O  O133  1  0.73631584  0.17041853  0.52888613  1
  O  O134  1  0.34573303  0.52466511  0.52800249  1
  O  O135  1  0.84605192  0.52394097  0.52785964  1
  O  O136  1  0.41738117  0.30357870  0.52663646  1
  O  O137  1  0.91447656  0.30229398  0.52967418  1
  O  O138  1  0.26341253  0.69062900  0.97255437  1
  O  O139  1  0.76316818  0.68963539  0.97410571  1
  O  O140  1  0.08194292  0.47027857  0.97599373  1
  O  O141  1  0.58124481  0.47506637  0.97100791  1
  O  O142  1  0.15635769  0.83348007  0.97218743  1
  O  O143  1  0.65375784  0.83929947  0.97489876  1
  O  O144  1  0.26678033  0.84236077  0.47485417  1
  O  O145  1  0.76559328  0.83905742  0.47318994  1
  O  O146  1  0.15606412  0.47000976  0.47365934  1
  O  O147  1  0.65220643  0.46776825  0.47202288  1
  O  O148  1  0.08264078  0.68908293  0.47039738  1
  O  O149  1  0.58121602  0.69158566  0.47230994  1
  O  O150  1  0.06809108  0.63970969  0.35603135  1
  O  O151  1  0.56833455  0.63587977  0.36012233  1
  O  O152  1  0.25057283  0.85949077  0.36020833  1
  O  O153  1  0.75107632  0.86130851  0.35786837  1
  O  O154  1  0.17998016  0.49636925  0.35767348  1
  O  O155  1  0.67928621  0.49515270  0.35704331  1
  O  O156  1  0.06901134  0.49742645  0.85924512  1
  O  O157  1  0.56760186  0.49480551  0.85703442  1
  O  O158  1  0.17962654  0.86341499  0.85755167  1
  O  O159  1  0.67954987  0.86218840  0.85880052  1
  O  O160  1  0.25237869  0.64024257  0.85754495  1
  O  O161  1  0.75173952  0.64051256  0.85847940  1
  O  O162  1  0.01314020  0.83476565  0.40923000  1
  O  O163  1  0.51059625  0.83594470  0.41061718  1
  O  O164  1  0.40725531  0.98456214  0.41123752  1
  O  O165  1  0.90598725  0.97628507  0.40940958  1
  O  O166  1  0.08316257  0.18897601  0.41075614  1
  O  O167  1  0.58002919  0.19213028  0.40931401  1
  O  O168  1  0.01238986  0.19092499  0.91076328  1
  O  O169  1  0.51222914  0.18948139  0.91045479  1
  O  O170  1  0.08262250  0.97470101  0.91087957  1
  O  O171  1  0.58283979  0.97612044  0.91044080  1
  O  O172  1  0.40513339  0.83510874  0.91056026  1
  O  O173  1  0.90485378  0.83478990  0.91102688  1
  O  O174  1  0.48888640  0.16024626  0.58660196  1
  O  O175  1  0.98891913  0.16047479  0.58702981  1
  O  O176  1  0.09349717  0.03046779  0.58742790  1
  O  O177  1  0.59343174  0.02969067  0.58796359  1
  O  O178  1  0.41790447  0.82091307  0.58717196  1
  O  O179  1  0.91750637  0.82070402  0.58758845  1
  O  O180  1  0.48944125  0.81281112  0.08995916  1
  O  O181  1  0.98619836  0.81444729  0.08776219  1
  O  O182  1  0.41752604  0.02709950  0.09176193  1
  O  O183  1  0.92024759  0.02351215  0.08696962  1
  O  O184  1  0.09470638  0.16859534  0.09149914  1
  O  O185  1  0.59239882  0.15473806  0.08683191  1
  O  O186  1  0.34521117  0.16082257  0.75124385  1
  O  O187  1  0.84497689  0.16096665  0.75135169  1
  O  O188  1  0.23507253  0.30924326  0.75071171  1
  O  O189  1  0.73530036  0.30941955  0.75072868  1
  O  O190  1  0.41928491  0.53013900  0.75103733  1
  O  O191  1  0.91910428  0.53017915  0.75108005  1
  O  O192  1  0.34205727  0.51898344  0.24437556  1
  O  O193  1  0.84628264  0.53028084  0.25130653  1
  O  O194  1  0.41564843  0.30920571  0.24333908  1
  O  O195  1  0.91839242  0.30695604  0.25135816  1
  O  O196  1  0.23728304  0.17289016  0.24365767  1
  O  O197  1  0.73397134  0.16161633  0.25163270  1
  O  O198  1  0.31959417  0.49435983  0.92278816  1
  O  O199  1  0.81929294  0.49475853  0.92410788  1
  O  O200  1  0.42667879  0.35924428  0.92221971  1
  O  O201  1  0.92845184  0.36220385  0.92459472  1
  O  O202  1  0.25212157  0.14415289  0.92310540  1
  O  O203  1  0.75299028  0.14470583  0.92399622  1
  O  O204  1  0.32372598  0.14974253  0.42308158  1
  O  O205  1  0.81998525  0.14403856  0.42413827  1
  O  O206  1  0.25280686  0.36007375  0.42330256  1
  O  O207  1  0.75228526  0.35728866  0.42308195  1
  O  O208  1  0.42912247  0.49171102  0.42333954  1
  O  O209  1  0.92792151  0.49436514  0.42374267  1
  O  O210  1  0.17584582  0.49926139  0.07766203  1
  O  O211  1  0.67406467  0.49871779  0.07041866  1
  O  O212  1  0.07520861  0.64741477  0.07115045  1
  O  O213  1  0.57356904  0.65068168  0.07683927  1
  O  O214  1  0.24973815  0.85740588  0.07649973  1
  O  O215  1  0.75080366  0.84568250  0.07164555  1
  O  O216  1  0.17463025  0.84844340  0.57079354  1
  O  O217  1  0.67512929  0.84932674  0.57070905  1
  O  O218  1  0.25178862  0.65739307  0.57097839  1
  O  O219  1  0.75198553  0.65676328  0.57012577  1
  O  O220  1  0.07927152  0.49314034  0.57218724  1
  O  O221  1  0.57979165  0.49311503  0.57201135  1
  O  O222  1  0.14997947  0.82498127  0.25608711  1
  O  O223  1  0.65086181  0.82390987  0.25706883  1
  O  O224  1  0.26049906  0.68820171  0.25664033  1
  O  O225  1  0.76200670  0.70252399  0.25592229  1
  O  O226  1  0.08943394  0.47689397  0.25583132  1
  O  O227  1  0.58712959  0.47126416  0.25669507  1
  O  O228  1  0.14716284  0.47514528  0.75592984  1
  O  O229  1  0.64758719  0.47550970  0.75597377  1
  O  O230  1  0.09002722  0.70469970  0.75577985  1
  O  O231  1  0.59036750  0.70555329  0.75578423  1
  O  O232  1  0.26207702  0.81932400  0.75580941  1
  O  O233  1  0.76208423  0.81948244  0.75603202  1
