# generated using pymatgen
data_H5IO6
_symmetry_space_group_name_H-M   'P 1'
_cell_length_a   18.15765537
_cell_length_b   4.89524191
_cell_length_c   5.29562233
_cell_angle_alpha   70.42832544
_cell_angle_beta   90.00000000
_cell_angle_gamma   90.00000000
_symmetry_Int_Tables_number   1
_chemical_formula_structural   H5IO6
_chemical_formula_sum   'H20 I4 O24'
_cell_volume   443.51132547
_cell_formula_units_Z   4
loop_
 _symmetry_equiv_pos_site_id
 _symmetry_equiv_pos_as_xyz
  1  'x, y, z'
loop_
 _atom_site_type_symbol
 _atom_site_label
 _atom_site_symmetry_multiplicity
 _atom_site_fract_x
 _atom_site_fract_y
 _atom_site_fract_z
 _atom_site_occupancy
  H  H0  1  0.49829937  0.43218487  0.90688888  1
  H  H1  1  0.94234543  0.25371340  0.58797170  1
  H  H2  1  0.44234543  0.74628660  0.41202830  1
  H  H3  1  0.99829937  0.56781513  0.09311112  1
  H  H4  1  0.50121173  0.06823584  0.59639192  1
  H  H5  1  0.00121173  0.93176416  0.40360808  1
  H  H6  1  0.55708857  0.75364643  0.09068169  1
  H  H7  1  0.05708857  0.24635357  0.90931831  1
  H  H8  1  0.73908250  0.95900905  0.03347637  1
  H  H9  1  0.76046884  0.45868725  0.53233957  1
  H  H10  1  0.26046884  0.54131275  0.46766043  1
  H  H11  1  0.23908250  0.04099095  0.96652363  1
  H  H12  1  0.63165736  0.22113880  0.38104934  1
  H  H13  1  0.86759427  0.72139124  0.87818590  1
  H  H14  1  0.36759427  0.27860876  0.12181410  1
  H  H15  1  0.13165736  0.77886120  0.61895066  1
  H  H16  1  0.68980392  0.66947318  0.79210549  1
  H  H17  1  0.80965841  0.16983022  0.28914051  1
  H  H18  1  0.30965841  0.83016978  0.71085949  1
  H  H19  1  0.18980392  0.33052682  0.20789451  1
  I  I20  1  0.62076863  0.21359886  0.92470605  1
  I  I21  1  0.87872142  0.71351244  0.42199194  1
  I  I22  1  0.37872142  0.28648756  0.57800806  1
  I  I23  1  0.12076863  0.78640114  0.07529395  1
  O  O24  1  0.54976305  0.49137271  0.94204573  1
  O  O25  1  0.94975576  0.99128060  0.43876038  1
  O  O26  1  0.44975576  0.00871940  0.56123962  1
  O  O27  1  0.04976305  0.50862729  0.05795427  1
  O  O28  1  0.58208161  0.16553953  0.62843250  1
  O  O29  1  0.91720738  0.66447643  0.12592952  1
  O  O30  1  0.41720738  0.33552357  0.87407048  1
  O  O31  1  0.08208161  0.83446047  0.37156750  1
  O  O32  1  0.56292092  0.91700363  0.16077598  1
  O  O33  1  0.93645330  0.41670503  0.65846510  1
  O  O34  1  0.43645330  0.58329497  0.34153490  1
  O  O35  1  0.06292092  0.08299637  0.83922402  1
  O  O36  1  0.69728225  0.94809605  0.91649966  1
  O  O37  1  0.80202282  0.44851031  0.41423419  1
  O  O38  1  0.30202282  0.55148969  0.58576581  1
  O  O39  1  0.19728225  0.05190395  0.08350034  1
  O  O40  1  0.66676742  0.26566025  0.22153267  1
  O  O41  1  0.83261934  0.76665242  0.71831408  1
  O  O42  1  0.33261934  0.23334758  0.28168592  1
  O  O43  1  0.16676742  0.73433975  0.77846733  1
  O  O44  1  0.68256839  0.51704851  0.70878374  1
  O  O45  1  0.81704329  0.01757719  0.20569982  1
  O  O46  1  0.31704329  -0.01757719  0.79430018  1
  O  O47  1  0.18256839  0.48295149  0.29121626  1
