# generated using pymatgen
data_LiMnO2
_symmetry_space_group_name_H-M   'P 1'
_cell_length_a   3.12271117
_cell_length_b   5.04618927
_cell_length_c   5.06567747
_cell_angle_alpha   91.95365474
_cell_angle_beta   86.67263541
_cell_angle_gamma   96.38055917
_symmetry_Int_Tables_number   1
_chemical_formula_structural   LiMnO2
_chemical_formula_sum   'Li2 Mn2 O4'
_cell_volume   79.16496130
_cell_formula_units_Z   2
loop_
 _symmetry_equiv_pos_site_id
 _symmetry_equiv_pos_as_xyz
  1  'x, y, z'
loop_
 _atom_site_type_symbol
 _atom_site_label
 _atom_site_symmetry_multiplicity
 _atom_site_fract_x
 _atom_site_fract_y
 _atom_site_fract_z
 _atom_site_occupancy
  Li  Li0  1  0.51261244  0.16280374  0.41609546  1
  Li  Li1  1  0.01263428  0.66280986  0.41609378  1
  Mn  Mn2  1  0.47561052  0.50738643  0.97591450  1
  Mn  Mn3  1  0.97560685  0.00739396  0.97590965  1
  O  O4  1  0.04791746  0.31658539  0.21650809  1
  O  O5  1  0.54792365  0.81658997  0.21650875  1
  O  O6  1  0.46380228  0.17986435  0.78287311  1
  O  O7  1  0.96378753  0.67986429  0.78289465  1
