# generated using pymatgen
data_Na6Mg4Zr4Si3(S3O16)3
_symmetry_space_group_name_H-M   'P 1'
_cell_length_a   17.87842917
_cell_length_b   8.88744651
_cell_length_c   23.17811113
_cell_angle_alpha   90.02895652
_cell_angle_beta   90.15643744
_cell_angle_gamma   119.87668487
_symmetry_Int_Tables_number   1
_chemical_formula_structural   Na6Mg4Zr4Si3(S3O16)3
_chemical_formula_sum   'Na18 Mg12 Zr12 Si9 S27 O144'
_cell_volume   3193.38089905
_cell_formula_units_Z   3
loop_
 _symmetry_equiv_pos_site_id
 _symmetry_equiv_pos_as_xyz
  1  'x, y, z'
loop_
 _atom_site_type_symbol
 _atom_site_label
 _atom_site_symmetry_multiplicity
 _atom_site_fract_x
 _atom_site_fract_y
 _atom_site_fract_z
 _atom_site_occupancy
  Na  Na0  1  0.99981692  0.63516541  0.25147741  1
  Na  Na1  1  0.49760429  0.62672365  0.24412325  1
  Na  Na2  1  0.00338720  0.36839996  0.74433937  1
  Na  Na3  1  0.49936443  0.36552456  0.75118669  1
  Na  Na4  1  0.67303684  0.31646378  0.91193401  1
  Na  Na5  1  0.17162085  0.03222558  0.41512303  1
  Na  Na6  1  0.99389086  0.00866185  0.50172579  1
  Na  Na7  1  0.50353261  0.00855570  0.49943313  1
  Na  Na8  1  0.00194900  0.99500077  0.99294556  1
  Na  Na9  1  0.49362370  0.97921742  0.99635680  1
  Na  Na10  1  0.31446014  0.31325769  0.82977343  1
  Na  Na11  1  0.83512704  0.34972866  0.83558495  1
  Na  Na12  1  0.33171274  0.31757863  0.33802220  1
  Na  Na13  1  0.82316134  0.32942953  0.33725268  1
  Na  Na14  1  0.17342264  0.65698657  0.16496855  1
  Na  Na15  1  0.66551541  0.66363390  0.16518069  1
  Na  Na16  1  0.16441395  0.65540290  0.67267483  1
  Na  Na17  1  0.67547792  0.69205884  0.66750989  1
  Mg  Mg18  1  0.99565027  0.00061142  0.35038488  1
  Mg  Mg19  1  0.49519776  0.98994682  0.84896978  1
  Mg  Mg20  1  0.32317706  0.32760087  0.68677473  1
  Mg  Mg21  1  0.83460783  0.32565918  0.67966382  1
  Mg  Mg22  1  0.33281033  0.34066667  0.17870557  1
  Mg  Mg23  1  0.83018198  0.32903649  0.18276576  1
  Mg  Mg24  1  0.83868437  0.34392743  0.97915326  1
  Mg  Mg25  1  0.33701394  0.33125305  0.48149499  1
  Mg  Mg26  1  0.17375506  0.67304371  0.31920807  1
  Mg  Mg27  1  0.67272412  0.66455302  0.31836758  1
  Mg  Mg28  1  0.17065654  0.67382918  0.81349144  1
  Mg  Mg29  1  0.67681206  0.67757665  0.81768256  1
  Zr  Zr30  1  0.49948123  0.01313618  0.35977649  1
  Zr  Zr31  1  0.00743094  0.99531204  0.85617069  1
  Zr  Zr32  1  0.00384564  0.02166674  0.64855928  1
  Zr  Zr33  1  0.50358638  0.99732509  0.64662718  1
  Zr  Zr34  1  0.00416529  0.00980726  0.14536819  1
  Zr  Zr35  1  0.49906585  0.99108311  0.14459118  1
  Zr  Zr36  1  0.32554850  0.33574422  0.98212806  1
  Zr  Zr37  1  0.82578706  0.31727028  0.48440691  1
  Zr  Zr38  1  0.16550728  0.66459657  0.01615584  1
  Zr  Zr39  1  0.66843763  0.67311370  0.01700651  1
  Zr  Zr40  1  0.16854213  0.66418125  0.51970569  1
  Zr  Zr41  1  0.66637656  0.66276017  0.51893173  1
  Si  Si42  1  0.15358764  0.30895856  0.75299653  1
  Si  Si43  1  0.97915450  0.33703629  0.58563776  1
  Si  Si44  1  0.68771811  0.03805667  0.58745259  1
  Si  Si45  1  0.48049764  0.61613554  0.08676767  1
  Si  Si46  1  0.18880828  0.34135858  0.08735523  1
  Si  Si47  1  0.81299753  0.66118422  0.91498716  1
  Si  Si48  1  0.17158497  0.95787770  0.91371164  1
  Si  Si49  1  0.30929635  0.96401818  0.41564614  1
  Si  Si50  1  0.67316368  0.38317135  0.41379930  1
  S  S51  1  0.14736885  0.00034465  0.25228927  1
  S  S52  1  0.64902959  0.00150574  0.25042723  1
  S  S53  1  0.35182666  0.70414519  0.25083237  1
  S  S54  1  0.85324219  0.70706334  0.25001245  1
  S  S55  1  0.99934043  0.29511631  0.25165234  1
  S  S56  1  0.49940747  0.29659764  0.24964312  1
  S  S57  1  0.64724801  0.29437941  0.75247561  1
  S  S58  1  0.99704596  0.70104869  0.74893505  1
  S  S59  1  0.50150329  0.70528711  0.75188798  1
  S  S60  1  0.35551977  0.00138409  0.75007524  1
  S  S61  1  0.85060601  0.99874353  0.75112446  1
  S  S62  1  0.47562920  0.33353573  0.58542298  1
  S  S63  1  0.18989926  0.04646718  0.58238771  1
  S  S64  1  0.33425235  0.61696469  0.58317638  1
  S  S65  1  0.83394740  0.62321735  0.58510042  1
  S  S66  1  0.97626643  0.61794730  0.08570370  1
  S  S67  1  0.33278788  0.04410322  0.08525934  1
  S  S68  1  0.83315986  0.05009728  0.08407317  1
  S  S69  1  0.69030200  0.33382580  0.08379671  1
  S  S70  1  0.31531672  0.67474941  0.91365507  1
  S  S71  1  0.01771084  0.37459916  0.91478663  1
  S  S72  1  0.52029354  0.37177686  0.91315878  1
  S  S73  1  0.66520842  0.96095511  0.91445909  1
  S  S74  1  0.81433684  0.95620107  0.41336359  1
  S  S75  1  0.16544621  0.37063532  0.41443696  1
  S  S76  1  0.02066513  0.66896584  0.41273057  1
  S  S77  1  0.51941356  0.66090711  0.41394656  1
  O  O78  1  0.10518687  0.02167068  0.30410315  1
  O  O79  1  0.60658981  0.02522148  0.30141218  1
  O  O80  1  0.40977914  0.79477635  0.30074413  1
  O  O81  1  0.90916613  0.78890201  0.30097358  1
  O  O82  1  0.49082851  0.18877708  0.30119991  1
  O  O83  1  0.98738610  0.18671756  0.30201698  1
  O  O84  1  0.09778229  0.17664153  0.80608460  1
  O  O85  1  0.60516255  0.18882957  0.80432457  1
  O  O86  1  0.48907684  0.78973576  0.80220899  1
  O  O87  1  0.98544168  0.78525629  0.80115914  1
  O  O88  1  0.41125061  0.02991132  0.80108054  1
  O  O89  1  0.90574675  0.02085832  0.80171666  1
  O  O90  1  0.39915030  0.97794627  0.69794183  1
  O  O91  1  0.89153293  0.97212097  0.69803484  1
  O  O92  1  0.08783738  0.20693537  0.69568759  1
  O  O93  1  0.58887767  0.20182326  0.70070580  1
  O  O94  1  0.00703153  0.80856442  0.69728184  1
  O  O95  1  0.51289574  0.81429116  0.69897838  1
  O  O96  1  0.39549827  0.81421196  0.19827756  1
  O  O97  1  0.89673905  0.81443618  0.19773936  1
  O  O98  1  0.01070186  0.21022779  0.19877165  1
  O  O99  1  0.51092256  0.20986261  0.19833624  1
  O  O100  1  0.08886661  0.97582880  0.20062304  1
  O  O101  1  0.59192874  0.97410860  0.19848614  1
  O  O102  1  0.43822131  0.35670914  0.63875045  1
  O  O103  1  0.94403472  0.36619746  0.64545595  1
  O  O104  1  0.24253245  0.12641584  0.63329391  1
  O  O105  1  0.74184288  0.12314597  0.64367984  1
  O  O106  1  0.32462570  0.51714898  0.63495323  1
  O  O107  1  0.81955845  0.51876523  0.63628750  1
  O  O108  1  0.44475566  0.52185553  0.14764173  1
  O  O109  1  0.93860256  0.52054246  0.13937723  1
  O  O110  1  0.32124022  0.12131736  0.13703455  1
  O  O111  1  0.82274367  0.12957430  0.13639493  1
  O  O112  1  0.24171719  0.36195401  0.14412045  1
  O  O113  1  0.74141069  0.35512359  0.13549102  1
  O  O114  1  0.22704652  0.30310891  0.02807548  1
  O  O115  1  0.72554885  0.30311917  0.03099918  1
  O  O116  1  0.42149933  0.53205639  0.02913045  1
  O  O117  1  0.92457373  0.53770800  0.03452677  1
  O  O118  1  0.34719610  0.14676610  0.03237482  1
  O  O119  1  0.84529409  0.15109969  0.03186892  1
  O  O120  1  0.22604864  0.14669400  0.52914087  1
  O  O121  1  0.72520372  0.14993698  0.52741373  1
  O  O122  1  0.34627277  0.54163529  0.53032095  1
  O  O123  1  0.84467140  0.54411966  0.53156806  1
  O  O124  1  0.42524958  0.31135619  0.53372710  1
  O  O125  1  0.92131776  0.31231222  0.52748922  1
  O  O126  1  0.27440679  0.69331301  0.96796733  1
  O  O127  1  0.76510914  0.68897738  0.97363623  1
  O  O128  1  0.07371819  0.45767849  0.96761759  1
  O  O129  1  0.57656768  0.45729121  0.96545272  1
  O  O130  1  0.15802010  0.84584487  0.97413173  1
  O  O131  1  0.65014472  0.85187176  0.96780790  1
  O  O132  1  0.26547387  0.84072413  0.47297324  1
  O  O133  1  0.77272581  0.85371108  0.46678404  1
  O  O134  1  0.15085713  0.45005239  0.46720067  1
  O  O135  1  0.65578429  0.46652241  0.47259183  1
  O  O136  1  0.07680130  0.69625446  0.46450095  1
  O  O137  1  0.57511285  0.69121355  0.46585789  1
  O  O138  1  0.05856286  0.64182020  0.36011506  1
  O  O139  1  0.55896270  0.64117756  0.36107201  1
  O  O140  1  0.24910919  0.87832719  0.36028522  1
  O  O141  1  0.76069552  0.87824722  0.36240807  1
  O  O142  1  0.17558370  0.47474170  0.36332812  1
  O  O143  1  0.68121679  0.48920801  0.35744856  1
  O  O144  1  0.05725994  0.47657855  0.86313431  1
  O  O145  1  0.55835864  0.47525181  0.86094558  1
  O  O146  1  0.18066134  0.86283429  0.85899944  1
  O  O147  1  0.67512187  0.87612762  0.86388607  1
  O  O148  1  0.26177791  0.64632705  0.86324553  1
  O  O149  1  0.74674480  0.61719946  0.86221368  1
  O  O150  1  0.01624025  0.83237772  0.40823284  1
  O  O151  1  0.51199317  0.82157514  0.40915887  1
  O  O152  1  0.40534628  0.97668612  0.41038594  1
  O  O153  1  0.90044599  0.97235245  0.40875272  1
  O  O154  1  0.08880039  0.19177162  0.40920216  1
  O  O155  1  0.58619611  0.18486994  0.41098690  1
  O  O156  1  0.00984235  0.20013677  0.91194380  1
  O  O157  1  0.51621351  0.19991516  0.90915290  1
  O  O158  1  0.08533362  0.98129445  0.91420707  1
  O  O159  1  0.58868263  0.98635822  0.90975449  1
  O  O160  1  0.40194168  0.83028643  0.90991409  1
  O  O161  1  0.90633054  0.83907013  0.91027519  1
  O  O162  1  0.48646509  0.17574840  0.59104539  1
  O  O163  1  0.98771524  0.15769771  0.58652576  1
  O  O164  1  0.10037357  0.01938490  0.58920174  1
  O  O165  1  0.58897678  0.01526701  0.59081514  1
  O  O166  1  0.41068822  0.79790101  0.58976236  1
  O  O167  1  0.91142391  0.79808260  0.58951650  1
  O  O168  1  0.49088691  0.81695594  0.09115253  1
  O  O169  1  0.98608244  0.79649137  0.09181517  1
  O  O170  1  0.41201892  0.02440077  0.09089160  1
  O  O171  1  0.90993092  0.02415862  0.09141999  1
  O  O172  1  0.08983894  0.16486822  0.09136717  1
  O  O173  1  0.60042527  0.17930825  0.09180347  1
  O  O174  1  0.35274338  0.16473994  0.74202905  1
  O  O175  1  0.84685598  0.16091599  0.74600069  1
  O  O176  1  0.24451096  0.31788828  0.74634779  1
  O  O177  1  0.73275760  0.31609801  0.74471843  1
  O  O178  1  0.42609732  0.53069538  0.74312654  1
  O  O179  1  0.91929827  0.52651844  0.74498127  1
  O  O180  1  0.34779590  0.53441379  0.24617347  1
  O  O181  1  0.84754078  0.53376004  0.24266478  1
  O  O182  1  0.42044440  0.30979161  0.24602683  1
  O  O183  1  0.92252555  0.31704909  0.24345924  1
  O  O184  1  0.23303799  0.14977806  0.24462728  1
  O  O185  1  0.73416469  0.15371570  0.24197668  1
  O  O186  1  0.32554827  0.51805735  0.92044916  1
  O  O187  1  0.81857754  0.48541379  0.92452284  1
  O  O188  1  0.43434762  0.35071553  0.92247511  1
  O  O189  1  0.93264671  0.35566877  0.92463526  1
  O  O190  1  0.25687382  0.15220102  0.92208848  1
  O  O191  1  0.74301598  0.13247403  0.92369878  1
  O  O192  1  0.31907642  0.15417684  0.42390272  1
  O  O193  1  0.82461810  0.13308799  0.41965070  1
  O  O194  1  0.24313676  0.35390037  0.42286338  1
  O  O195  1  0.75744067  0.35855143  0.42079106  1
  O  O196  1  0.43368589  0.51120973  0.42286943  1
  O  O197  1  0.93417932  0.51738634  0.42093323  1
  O  O198  1  0.17362649  0.50673396  0.07766949  1
  O  O199  1  0.67877400  0.48866044  0.07871572  1
  O  O200  1  0.06490455  0.64247205  0.08007600  1
  O  O201  1  0.57892561  0.65125370  0.07727591  1
  O  O202  1  0.25767561  0.86615040  0.07842591  1
  O  O203  1  0.75553731  0.87231052  0.07920310  1
  O  O204  1  0.17915909  0.86804022  0.57660298  1
  O  O205  1  0.67280476  0.84223054  0.57599793  1
  O  O206  1  0.25630264  0.63872381  0.57810069  1
  O  O207  1  0.75653653  0.64698816  0.57753623  1
  O  O208  1  0.07701887  0.50238251  0.57446391  1
  O  O209  1  0.56487126  0.48750921  0.57926916  1
  O  O210  1  0.14795439  0.83291487  0.25408353  1
  O  O211  1  0.65285847  0.83877251  0.25558337  1
  O  O212  1  0.26668189  0.68753151  0.25547672  1
  O  O213  1  0.76795041  0.69202594  0.25443861  1
  O  O214  1  0.07681562  0.47065179  0.25643906  1
  O  O215  1  0.57573881  0.47292821  0.25462925  1
  O  O216  1  0.15092368  0.48820179  0.75636458  1
  O  O217  1  0.64759133  0.46261128  0.75423097  1
  O  O218  1  0.07460971  0.68411123  0.75444293  1
  O  O219  1  0.57972381  0.68770475  0.75683015  1
  O  O220  1  0.27016362  0.84862634  0.75422684  1
  O  O221  1  0.76396162  0.84494085  0.75547693  1
