# generated using pymatgen
data_NO2
_symmetry_space_group_name_H-M   'P 1'
_cell_length_a   6.67556128
_cell_length_b   6.67556161
_cell_length_c   6.67556160
_cell_angle_alpha   109.47121772
_cell_angle_beta   109.47121877
_cell_angle_gamma   109.47121750
_symmetry_Int_Tables_number   1
_chemical_formula_structural   NO2
_chemical_formula_sum   'N6 O12'
_cell_volume   229.00320209
_cell_formula_units_Z   6
loop_
 _symmetry_equiv_pos_site_id
 _symmetry_equiv_pos_as_xyz
  1  'x, y, z'
loop_
 _atom_site_type_symbol
 _atom_site_label
 _atom_site_symmetry_multiplicity
 _atom_site_fract_x
 _atom_site_fract_y
 _atom_site_fract_z
 _atom_site_occupancy
  N  N0  1  0.38383142  0.00000000  0.38383142  1
  N  N1  1  -0.00000000  0.61616858  0.61616858  1
  N  N2  1  0.38383142  0.38383142  0.00000000  1
  N  N3  1  0.61616858  0.61616858  -0.00000000  1
  N  N4  1  0.00000000  0.38383142  0.38383142  1
  N  N5  1  0.61616858  -0.00000000  0.61616858  1
  O  O6  1  0.46690059  0.14312672  0.32377488  1
  O  O7  1  0.14312672  0.67622612  0.81935184  1
  O  O8  1  0.32377488  0.18064816  0.85687328  1
  O  O9  1  0.85687328  0.67622612  0.53309941  1
  O  O10  1  0.67622612  0.81935184  0.14312672  1
  O  O11  1  0.85687328  0.32377488  0.18064816  1
  O  O12  1  0.67622612  0.53309941  0.85687328  1
  O  O13  1  0.32377488  0.46690059  0.14312672  1
  O  O14  1  0.14312672  0.32377488  0.46690059  1
  O  O15  1  0.81935184  0.14312672  0.67622612  1
  O  O16  1  0.18064816  0.85687328  0.32377488  1
  O  O17  1  0.53309941  0.85687328  0.67622612  1
