# generated using pymatgen
data_MgV4O5F7
_symmetry_space_group_name_H-M   'P 1'
_cell_length_a   5.13927358
_cell_length_b   5.53940574
_cell_length_c   9.18996042
_cell_angle_alpha   72.35456445
_cell_angle_beta   90.81728027
_cell_angle_gamma   62.34645046
_symmetry_Int_Tables_number   1
_chemical_formula_structural   MgV4O5F7
_chemical_formula_sum   'Mg1 V4 O5 F7'
_cell_volume   217.08326209
_cell_formula_units_Z   1
loop_
 _symmetry_equiv_pos_site_id
 _symmetry_equiv_pos_as_xyz
  1  'x, y, z'
loop_
 _atom_site_type_symbol
 _atom_site_label
 _atom_site_symmetry_multiplicity
 _atom_site_fract_x
 _atom_site_fract_y
 _atom_site_fract_z
 _atom_site_occupancy
  Mg  Mg0  1  0.94617100  0.11679500  0.63920900  1
  V  V1  1  0.75256600  0.49072600  0.25502400  1
  V  V2  1  0.46784500  0.96737700  0.47470300  1
  V  V3  1  0.30830200  0.48900700  0.76627600  1
  V  V4  1  0.03206500  0.98755100  0.01226000  1
  O  O5  1  0.52003400  0.74247900  0.37787300  1
  O  O6  1  0.40185300  0.76510900  0.07634500  1
  O  O7  1  0.38140800  0.78589700  0.67084900  1
  O  O8  1  0.58281100  0.24813900  0.92235500  1
  O  O9  1  0.05684000  0.25405900  0.43517000  1
  F  F10  1  0.89241600  0.79406200  0.58675500  1
  F  F11  1  0.91538100  0.76048900  0.17372200  1
  F  F12  1  0.97926800  0.25579400  0.11883200  1
  F  F13  1  0.55330700  0.25348800  0.32246700  1
  F  F14  1  0.50741800  0.28165000  0.62601900  1
  F  F15  1  0.01441100  0.78536300  0.86126800  1
  F  F16  1  0.06290400  0.25951400  0.80230200  1
