# generated using pymatgen
data_Pr(ClO4)3
_symmetry_space_group_name_H-M   'P 1'
_cell_length_a   9.29947823
_cell_length_b   9.29944075
_cell_length_c   5.87683749
_cell_angle_alpha   90.00005814
_cell_angle_beta   90.00006019
_cell_angle_gamma   120.00063543
_symmetry_Int_Tables_number   1
_chemical_formula_structural   Pr(ClO4)3
_chemical_formula_sum   'Pr2 Cl6 O24'
_cell_volume   440.13605436
_cell_formula_units_Z   2
loop_
 _symmetry_equiv_pos_site_id
 _symmetry_equiv_pos_as_xyz
  1  'x, y, z'
loop_
 _atom_site_type_symbol
 _atom_site_label
 _atom_site_symmetry_multiplicity
 _atom_site_fract_x
 _atom_site_fract_y
 _atom_site_fract_z
 _atom_site_occupancy
  Pr  Pr0  1  0.33333183  0.66666535  0.75000000  1
  Pr  Pr1  1  0.66666641  0.33333355  0.25000000  1
  Cl  Cl2  1  0.70938558  0.61583311  0.75000003  1
  Cl  Cl3  1  0.09355753  0.70938445  0.24999978  1
  Cl  Cl4  1  0.61583052  0.90644690  0.25000106  1
  Cl  Cl5  1  0.38417091  0.09355539  0.74999872  1
  Cl  Cl6  1  0.90644171  0.29061357  0.75000011  1
  Cl  Cl7  1  0.29061451  0.38416854  0.25000012  1
  O  O8  1  0.80480866  0.78965963  0.75000029  1
  O  O9  1  0.01515771  0.80480771  0.25000004  1
  O  O10  1  0.78965626  0.98485244  0.25000036  1
  O  O11  1  0.21034696  0.01515768  0.74999680  1
  O  O12  1  0.98484089  0.19519139  0.74999996  1
  O  O13  1  0.19519202  0.21034028  0.24999999  1
  O  O14  1  0.80073470  0.25324079  0.55118841  1
  O  O15  1  0.54749403  0.80073717  0.05119188  1
  O  O16  1  0.46801249  0.44363944  0.24999956  1
  O  O17  1  0.02437165  0.46801122  0.75000029  1
  O  O18  1  0.44363695  0.97562640  0.74999956  1
  O  O19  1  0.55635594  0.02437060  0.25000066  1
  O  O20  1  0.97563149  0.53198511  0.24999958  1
  O  O21  1  0.53198785  0.55635980  0.75000026  1
  O  O22  1  0.80073442  0.25324072  0.94881116  1
  O  O23  1  0.54749464  0.80073795  0.44881006  1
  O  O24  1  0.25324223  0.45250372  0.44880931  1
  O  O25  1  0.74675835  0.54749710  0.94881017  1
  O  O26  1  0.45250526  0.19926267  0.94880989  1
  O  O27  1  0.19926545  0.74675609  0.44880933  1
  O  O28  1  0.19926536  0.74675632  0.05119052  1
  O  O29  1  0.45250804  0.19926440  0.55119004  1
  O  O30  1  0.74675815  0.54749709  0.55118947  1
  O  O31  1  0.25324150  0.45250341  0.05119161  1
