# generated using pymatgen
data_NaInSnP2SO12
_symmetry_space_group_name_H-M   'P 1'
_cell_length_a   8.79507104
_cell_length_b   8.81011162
_cell_length_c   23.11505726
_cell_angle_alpha   89.75387599
_cell_angle_beta   90.00000000
_cell_angle_gamma   119.94354248
_symmetry_Int_Tables_number   1
_chemical_formula_structural   NaInSnP2SO12
_chemical_formula_sum   'Na6 In6 Sn6 P12 S6 O72'
_cell_volume   1551.98608032
_cell_formula_units_Z   6
loop_
 _symmetry_equiv_pos_site_id
 _symmetry_equiv_pos_as_xyz
  1  'x, y, z'
loop_
 _atom_site_type_symbol
 _atom_site_label
 _atom_site_symmetry_multiplicity
 _atom_site_fract_x
 _atom_site_fract_y
 _atom_site_fract_z
 _atom_site_occupancy
  Na  Na0  1  0.98061409  0.98944666  0.50218104  1
  Na  Na1  1  0.00883256  0.98944666  0.00218104  1
  Na  Na2  1  0.64728109  0.32277966  0.83551404  1
  Na  Na3  1  0.67549956  0.32277966  0.33551404  1
  Na  Na4  1  0.31394709  0.65611366  0.16884804  1
  Na  Na5  1  0.34216556  0.65611366  0.66884804  1
  In  In6  1  0.99343025  0.00411293  0.64824032  1
  In  In7  1  0.01068268  0.00411293  0.14824032  1
  In  In8  1  0.66009725  0.33744593  0.98157332  1
  In  In9  1  0.67734968  0.33744593  0.48157332  1
  In  In10  1  0.32676325  0.67077993  0.31490732  1
  In  In11  1  0.34401568  0.67077993  0.81490732  1
  Sn  Sn12  1  0.00055873  0.00158301  0.35095239  1
  Sn  Sn13  1  0.00102429  0.00158301  0.85095239  1
  Sn  Sn14  1  0.66722573  0.33491601  0.68428539  1
  Sn  Sn15  1  0.66769129  0.33491601  0.18428539  1
  Sn  Sn16  1  0.33389173  0.66825001  0.01761939  1
  Sn  Sn17  1  0.33435729  0.66825001  0.51761939  1
  P  P18  1  0.30019892  0.00631771  0.24945660  1
  P  P19  1  0.99666874  0.29228717  0.24905128  1
  P  P20  1  0.29561843  0.29228717  0.74905128  1
  P  P21  1  0.70611879  0.00631771  0.74945660  1
  P  P22  1  0.96686592  0.33965071  0.58278960  1
  P  P23  1  0.66333574  0.62562017  0.58238428  1
  P  P24  1  0.96228543  0.62562017  0.08238428  1
  P  P25  1  0.37278579  0.33965071  0.08278960  1
  P  P26  1  0.63353192  0.67298471  0.91612360  1
  P  P27  1  0.33000174  0.95895417  0.91571828  1
  P  P28  1  0.62895143  0.95895417  0.41571828  1
  P  P29  1  0.03945179  0.67298471  0.41612360  1
  S  S30  1  0.70610396  0.70282655  0.24935792  1
  S  S31  1  -0.00327741  0.70282655  0.74935792  1
  S  S32  1  0.37277096  0.03615955  0.58269092  1
  S  S33  1  0.66338959  0.03615955  0.08269092  1
  S  S34  1  0.03943696  0.36949355  0.91602492  1
  S  S35  1  0.33005559  0.36949355  0.41602492  1
  O  O36  1  0.21448689  0.03302966  0.30508478  1
  O  O37  1  0.81412803  0.78243500  0.30245850  1
  O  O38  1  0.96295711  0.17783136  0.30501257  1
  O  O39  1  0.21487425  0.17783136  0.80501257  1
  O  O40  1  0.96830697  0.78243500  0.80245850  1
  O  O41  1  0.81854277  0.03302966  0.80508478  1
  O  O42  1  0.78493979  0.97546122  0.69604942  1
  O  O43  1  0.19230551  0.20662745  0.69505889  1
  O  O44  1  0.02202876  0.80672454  0.69743904  1
  O  O45  1  0.78469579  0.80672454  0.19743904  1
  O  O46  1  0.01432194  0.20662745  0.19505889  1
  O  O47  1  0.19052143  0.97546122  0.19604942  1
  O  O48  1  0.88115389  0.36636266  0.63841778  1
  O  O49  1  0.48079503  0.11576800  0.63579150  1
  O  O50  1  0.62962411  0.51116436  0.63834557  1
  O  O51  1  0.88154125  0.51116436  0.13834557  1
  O  O52  1  0.63497397  0.11576800  0.13579150  1
  O  O53  1  0.48520977  0.36636266  0.13841778  1
  O  O54  1  0.45160679  0.30879422  0.02938242  1
  O  O55  1  0.85897251  0.53996045  0.02839189  1
  O  O56  1  0.68869576  0.14005754  0.03077204  1
  O  O57  1  0.45136279  0.14005754  0.53077204  1
  O  O58  1  0.68098894  0.53996045  0.52839189  1
  O  O59  1  0.85718843  0.30879422  0.52938242  1
  O  O60  1  0.54781989  0.69969666  0.97175178  1
  O  O61  1  0.14746103  0.44910200  0.96912550  1
  O  O62  1  0.29629011  0.84449836  0.97167957  1
  O  O63  1  0.54820725  0.84449836  0.47167957  1
  O  O64  1  0.30163997  0.44910200  0.46912550  1
  O  O65  1  0.15187577  0.69969666  0.47175178  1
  O  O66  1  0.11827279  0.64212822  0.36271642  1
  O  O67  1  0.52563851  0.87329445  0.36172589  1
  O  O68  1  0.35536176  0.47339154  0.36410604  1
  O  O69  1  0.11802879  0.47339154  0.86410604  1
  O  O70  1  0.34765494  0.87329445  0.86172589  1
  O  O71  1  0.52385443  0.64212822  0.86271642  1
  O  O72  1  0.03274628  0.84764662  0.41153877  1
  O  O73  1  0.81653352  0.97808637  0.41208523  1
  O  O74  1  0.16665250  0.19413337  0.41246599  1
  O  O75  1  0.02748087  0.19413337  0.91246599  1
  O  O76  1  0.16155284  0.97808637  0.91208523  1
  O  O77  1  0.81490034  0.84764662  0.91153877  1
  O  O78  1  0.99888691  0.18417485  0.58703264  1
  O  O79  1  0.19540750  0.01054474  0.58862640  1
  O  O80  1  0.82881017  0.80673078  0.58790822  1
  O  O81  1  0.97792062  0.80673078  0.08790822  1
  O  O82  1  0.81513723  0.01054474  0.08862640  1
  O  O83  1  0.18528794  0.18417485  0.08703264  1
  O  O84  1  0.69941328  0.18097962  0.74487177  1
  O  O85  1  0.48320052  0.31141937  0.74541823  1
  O  O86  1  0.83331950  0.52746637  0.74579899  1
  O  O87  1  0.69414787  0.52746637  0.24579899  1
  O  O88  1  0.82821984  0.31141937  0.24541823  1
  O  O89  1  0.48156734  0.18097962  0.24487177  1
  O  O90  1  0.66555391  0.51750785  0.92036564  1
  O  O91  1  0.86207450  0.34387774  0.92195940  1
  O  O92  1  0.49547717  0.14006378  0.92124122  1
  O  O93  1  0.64458762  0.14006378  0.42124122  1
  O  O94  1  0.48180423  0.34387774  0.42195940  1
  O  O95  1  0.85195494  0.51750785  0.42036564  1
  O  O96  1  0.36607928  0.51431362  0.07820577  1
  O  O97  1  0.14986652  0.64475337  0.07875223  1
  O  O98  1  0.49998550  0.86080037  0.07913299  1
  O  O99  1  0.36081387  0.86080037  0.57913299  1
  O  O100  1  0.49488584  0.64475337  0.57875223  1
  O  O101  1  0.14823334  0.51431362  0.57820577  1
  O  O102  1  0.33221991  0.85084185  0.25369964  1
  O  O103  1  0.52874050  0.67721174  0.25529340  1
  O  O104  1  0.16214317  0.47339778  0.25457522  1
  O  O105  1  0.31125362  0.47339778  0.75457522  1
  O  O106  1  0.14847023  0.67721174  0.75529340  1
  O  O107  1  0.51862094  0.85084185  0.75369964  1
