# generated using pymatgen
data_Na6MgZr3Si2(PO6)4
_symmetry_space_group_name_H-M   'P 1'
_cell_length_a   15.86221140
_cell_length_b   9.11208526
_cell_length_c   9.17060347
_cell_angle_alpha   90.34042030
_cell_angle_beta   124.74950096
_cell_angle_gamma   90.01452650
_symmetry_Int_Tables_number   1
_chemical_formula_structural   Na6MgZr3Si2(PO6)4
_chemical_formula_sum   'Na12 Mg2 Zr6 Si4 P8 O48'
_cell_volume   1089.06891250
_cell_formula_units_Z   2
loop_
 _symmetry_equiv_pos_site_id
 _symmetry_equiv_pos_as_xyz
  1  'x, y, z'
loop_
 _atom_site_type_symbol
 _atom_site_label
 _atom_site_symmetry_multiplicity
 _atom_site_fract_x
 _atom_site_fract_y
 _atom_site_fract_z
 _atom_site_occupancy
  Na  Na0  1  0.24999453  0.74913922  0.99947639  1
  Na  Na1  1  0.74135223  0.74571776  0.47466515  1
  Na  Na2  1  0.74999453  0.24913922  0.99947639  1
  Na  Na3  1  0.24135223  0.24571776  0.47466515  1
  Na  Na4  1  0.51070074  0.09090472  0.77289446  1
  Na  Na5  1  0.49679215  0.88513792  0.23143805  1
  Na  Na6  1  0.01070074  0.59090472  0.77289446  1
  Na  Na7  1  0.99679215  0.38513792  0.23143805  1
  Na  Na8  1  0.79641509  0.92643615  0.20651396  1
  Na  Na9  1  0.18558902  0.08155637  0.81337466  1
  Na  Na10  1  0.29641509  0.42643615  0.20651396  1
  Na  Na11  1  0.68558902  0.58155637  0.81337466  1
  Mg  Mg12  1  0.10384572  0.24403764  0.06016319  1
  Mg  Mg13  1  0.60384572  0.74403764  0.06016319  1
  Zr  Zr14  1  0.10479239  0.74795710  0.55772006  1
  Zr  Zr15  1  0.89406182  0.75631148  0.93458972  1
  Zr  Zr16  1  0.89581878  0.25402221  0.44271622  1
  Zr  Zr17  1  0.60479239  0.24795710  0.55772006  1
  Zr  Zr18  1  0.39406182  0.25631148  0.93458972  1
  Zr  Zr19  1  0.39581878  0.75402221  0.44271622  1
  Si  Si20  1  0.64943292  0.89878032  0.75258935  1
  Si  Si21  1  0.34961592  0.10157533  0.25117969  1
  Si  Si22  1  0.14943292  0.39878032  0.75258935  1
  Si  Si23  1  0.84961592  0.60157533  0.25117969  1
  P  P24  1  0.99964974  0.95888696  0.74789147  1
  P  P25  1  0.00278658  0.04820833  0.25587330  1
  P  P26  1  0.49964974  0.45888696  0.74789147  1
  P  P27  1  0.50278658  0.54820833  0.25587330  1
  P  P28  1  0.35780080  0.89571492  0.76747880  1
  P  P29  1  0.64547101  0.10267100  0.23880497  1
  P  P30  1  0.85780080  0.39571492  0.76747880  1
  P  P31  1  0.14547101  0.60267100  0.23880497  1
  O  O32  1  0.15708638  0.57916156  0.74175407  1
  O  O33  1  0.85316084  0.56842933  0.75583714  1
  O  O34  1  0.84755744  0.41964443  0.25382404  1
  O  O35  1  0.15027154  0.43409892  0.24669391  1
  O  O36  1  0.65708638  0.07916156  0.74175407  1
  O  O37  1  0.35316084  0.06842933  0.75583714  1
  O  O38  1  0.34755744  0.91964443  0.25382404  1
  O  O39  1  0.65027154  0.93409892  0.24669391  1
  O  O40  1  0.43174351  0.54574336  0.57157713  1
  O  O41  1  0.56144780  0.56076259  0.90713456  1
  O  O42  1  0.56600272  0.45583204  0.42703002  1
  O  O43  1  0.44417188  0.43937742  0.09434593  1
  O  O44  1  0.93174351  0.04574336  0.57157713  1
  O  O45  1  0.06144780  0.06076259  0.90713456  1
  O  O46  1  0.06600272  0.95583204  0.42703002  1
  O  O47  1  0.94417188  0.93937742  0.09434593  1
  O  O48  1  0.25863126  0.84374542  0.74869502  1
  O  O49  1  0.74309335  0.81743614  0.75319082  1
  O  O50  1  0.74093203  0.16326525  0.24989896  1
  O  O51  1  0.25778630  0.18307006  0.24447921  1
  O  O52  1  0.75863126  0.34374542  0.74869502  1
  O  O53  1  0.24309335  0.31743614  0.75319082  1
  O  O54  1  0.24093203  0.66326525  0.24989896  1
  O  O55  1  0.75778630  0.68307006  0.24447921  1
  O  O56  1  0.35831938  0.84600264  0.60384584  1
  O  O57  1  0.64929191  0.86258804  0.92428382  1
  O  O58  1  0.64519199  0.16011784  0.39895467  1
  O  O59  1  0.35302508  0.14078070  0.07617939  1
  O  O60  1  0.85831938  0.34600264  0.60384584  1
  O  O61  1  0.14929191  0.36258804  0.92428382  1
  O  O62  1  0.14519199  0.66011784  0.39895467  1
  O  O63  1  0.85302508  0.64078070  0.07617939  1
  O  O64  1  0.45357378  0.84183644  0.93935872  1
  O  O65  1  0.54060100  0.83480995  0.57297223  1
  O  O66  1  0.54689048  0.15904290  0.06498914  1
  O  O67  1  0.46296639  0.15854323  0.42528655  1
  O  O68  1  0.95357378  0.34183644  0.93935872  1
  O  O69  1  0.04060100  0.33480995  0.57297223  1
  O  O70  1  0.04689048  0.65904290  0.06498914  1
  O  O71  1  0.96296639  0.65854323  0.42528655  1
  O  O72  1  0.08005108  0.86304410  0.73961676  1
  O  O73  1  0.92913172  0.84595852  0.75733245  1
  O  O74  1  0.91489724  0.13108181  0.25373790  1
  O  O75  1  0.07005543  0.15856991  0.24161227  1
  O  O76  1  0.58005108  0.36304410  0.73961676  1
  O  O77  1  0.42913172  0.34595852  0.75733245  1
  O  O78  1  0.41489724  0.63108181  0.25373790  1
  O  O79  1  0.57005543  0.65856991  0.24161227  1
