# generated using pymatgen
data_Na2Ti2Si3Ge2(SO8)3
_symmetry_space_group_name_H-M   'P 1'
_cell_length_a   8.59992687
_cell_length_b   8.57441782
_cell_length_c   22.20022707
_cell_angle_alpha   90.39552036
_cell_angle_beta   90.38010926
_cell_angle_gamma   119.95233257
_symmetry_Int_Tables_number   1
_chemical_formula_structural   Na2Ti2Si3Ge2(SO8)3
_chemical_formula_sum   'Na6 Ti6 Si9 Ge6 S9 O72'
_cell_volume   1418.26082707
_cell_formula_units_Z   3
loop_
 _symmetry_equiv_pos_site_id
 _symmetry_equiv_pos_as_xyz
  1  'x, y, z'
loop_
 _atom_site_type_symbol
 _atom_site_label
 _atom_site_symmetry_multiplicity
 _atom_site_fract_x
 _atom_site_fract_y
 _atom_site_fract_z
 _atom_site_occupancy
  Na  Na0  1  0.99133584  0.98942012  0.49748044  1
  Na  Na1  1  0.00106700  0.98856938  0.00031707  1
  Na  Na2  1  0.65830812  0.32196748  0.83101728  1
  Na  Na3  1  0.67058777  0.32485363  0.33454353  1
  Na  Na4  1  0.32055964  0.66103772  0.17109900  1
  Na  Na5  1  0.34176148  0.66391709  0.66482140  1
  Ti  Ti6  1  0.98643678  0.00457061  0.64688069  1
  Ti  Ti7  1  0.00938107  0.99443461  0.14828300  1
  Ti  Ti8  1  0.64978383  0.33065288  0.69037641  1
  Ti  Ti9  1  0.68239528  0.34876211  0.47425952  1
  Ti  Ti10  1  0.35244784  0.68345994  0.51642306  1
  Ti  Ti11  1  0.31768063  0.67616572  0.31055429  1
  Si  Si12  1  0.29613290  0.01342538  0.25073533  1
  Si  Si13  1  0.00582102  0.28268458  0.25121921  1
  Si  Si14  1  0.28473138  0.29643107  0.75211894  1
  Si  Si15  1  0.71987991  0.00554497  0.75432722  1
  Si  Si16  1  0.66510373  0.62268449  0.58359972  1
  Si  Si17  1  0.94273274  0.61026298  0.08236859  1
  Si  Si18  1  0.33032629  0.95574400  0.91590380  1
  Si  Si19  1  0.63180668  0.95851288  0.41328518  1
  Si  Si20  1  0.05095086  0.67988503  0.41587332  1
  Ge  Ge21  1  0.00719053  0.00849231  0.35470682  1
  Ge  Ge22  1  0.02315313  0.01384080  0.84895074  1
  Ge  Ge23  1  0.68856919  0.33707182  0.19407654  1
  Ge  Ge24  1  0.65626173  0.32967438  0.98072853  1
  Ge  Ge25  1  0.31000328  0.67271126  0.02037685  1
  Ge  Ge26  1  0.35401051  0.68676116  0.80949058  1
  S  S27  1  0.71368565  0.71084543  0.24932503  1
  S  S28  1  0.00305394  0.71405316  0.75125779  1
  S  S29  1  0.95544492  0.33725662  0.58394498  1
  S  S30  1  0.37600726  0.04513009  0.58307960  1
  S  S31  1  0.66136606  0.04124593  0.08122384  1
  S  S32  1  0.37923221  0.34007949  0.08107284  1
  S  S33  1  0.61789137  0.66611782  0.91877750  1
  S  S34  1  0.04414490  0.37904734  0.91713116  1
  S  S35  1  0.33279551  0.37929257  0.41569505  1
  O  O36  1  0.20481532  0.04491094  0.30920325  1
  O  O37  1  0.82416737  0.78522757  0.30416948  1
  O  O38  1  0.96122438  0.15659117  0.30980523  1
  O  O39  1  0.21618631  0.17076322  0.81206326  1
  O  O40  1  0.96791545  0.78963692  0.80767201  1
  O  O41  1  0.84281850  0.02968075  0.81488593  1
  O  O42  1  0.80172379  0.96341594  0.69404517  1
  O  O43  1  0.16330074  0.20149912  0.69290745  1
  O  O44  1  0.03307201  0.82397637  0.69805984  1
  O  O45  1  0.79483454  0.81697355  0.19426237  1
  O  O46  1  0.02007943  0.18387811  0.18930666  1
  O  O47  1  0.16933724  0.96724255  0.18942569  1
  O  O48  1  0.87009232  0.35535089  0.63831503  1
  O  O49  1  0.48600563  0.12458261  0.63960309  1
  O  O50  1  0.64266774  0.49834869  0.64280024  1
  O  O51  1  0.85158764  0.48431536  0.14114315  1
  O  O52  1  0.62351345  0.11554785  0.13541995  1
  O  O53  1  0.48843361  0.36998725  0.13467189  1
  O  O54  1  0.45186664  0.29858101  0.02494575  1
  O  O55  1  0.82163240  0.51939225  0.02065924  1
  O  O56  1  0.68794641  0.15032246  0.02585245  1
  O  O57  1  0.46040581  0.15091713  0.53002795  1
  O  O58  1  0.69106927  0.52324868  0.52523646  1
  O  O59  1  0.84579676  0.30460298  0.52869108  1
  O  O60  1  0.53319839  0.69235614  0.97322451  1
  O  O61  1  0.15816880  0.45685520  0.97351554  1
  O  O62  1  0.29295685  0.83492827  0.97652210  1
  O  O63  1  0.54241023  0.83395615  0.47429840  1
  O  O64  1  0.30823377  0.46170861  0.47116631  1
  O  O65  1  0.17143842  0.70179535  0.47567868  1
  O  O66  1  0.12783883  0.63111546  0.35605680  1
  O  O67  1  0.50031830  0.85784100  0.35645348  1
  O  O68  1  0.36072378  0.48447231  0.36173615  1
  O  O69  1  0.12483630  0.48913436  0.86414014  1
  O  O70  1  0.36927851  0.86390614  0.85781266  1
  O  O71  1  0.50666129  0.62973843  0.86298811  1
  O  O72  1  0.03483372  0.85771763  0.40750395  1
  O  O73  1  0.82891705  0.97991845  0.40841766  1
  O  O74  1  0.16781115  0.19973708  0.41328266  1
  O  O75  1  0.02524560  0.19699558  0.91396119  1
  O  O76  1  0.14666832  0.97147221  0.90850657  1
  O  O77  1  0.79705510  0.82547084  0.91385156  1
  O  O78  1  0.97326935  0.17154179  0.58742890  1
  O  O79  1  0.19828250  0.02729256  0.58995146  1
  O  O80  1  0.84781463  0.81890283  0.59082547  1
  O  O81  1  0.96632384  0.80969707  0.08709162  1
  O  O82  1  0.82134278  0.02388879  0.08577104  1
  O  O83  1  0.19726749  0.18128881  0.08484637  1
  O  O84  1  0.70256495  0.18221848  0.74520048  1
  O  O85  1  0.48501645  0.32068286  0.74489223  1
  O  O86  1  0.84591084  0.53374387  0.74601249  1
  O  O87  1  0.69555671  0.52802194  0.24284522  1
  O  O88  1  0.82775701  0.30763129  0.24590754  1
  O  O89  1  0.48945437  0.19417361  0.23669946  1
  O  O90  1  0.63370907  0.49900675  0.92284552  1
  O  O91  1  0.86320787  0.36122510  0.92360158  1
  O  O92  1  0.51250773  0.15818202  0.92583570  1
  O  O93  1  0.63852582  0.14853240  0.42559584  1
  O  O94  1  0.48932792  0.35300851  0.42221272  1
  O  O95  1  0.85138936  0.50063324  0.42253476  1
  O  O96  1  0.36907032  0.50855796  0.07233695  1
  O  O97  1  0.14480352  0.62816932  0.07684425  1
  O  O98  1  0.49824414  0.85488404  0.07432776  1
  O  O99  1  0.35816733  0.86354059  0.58008995  1
  O  O100  1  0.48556972  0.63954054  0.57858678  1
  O  O101  1  0.13372550  0.49608044  0.57894245  1
  O  O102  1  0.31818550  0.83635808  0.25389247  1
  O  O103  1  0.53538966  0.68958952  0.25357412  1
  O  O104  1  0.18639766  0.47643483  0.25486257  1
  O  O105  1  0.29518312  0.49066131  0.76316001  1
  O  O106  1  0.16674822  0.69811248  0.75824842  1
  O  O107  1  0.52015845  0.82567956  0.75742192  1
