# generated using pymatgen
data_Na6TaIn3Si4(SO12)2
_symmetry_space_group_name_H-M   'P 1'
_cell_length_a   9.18326283
_cell_length_b   9.21410809
_cell_length_c   22.70342136
_cell_angle_alpha   89.66172788
_cell_angle_beta   90.17850471
_cell_angle_gamma   120.16956139
_symmetry_Int_Tables_number   1
_chemical_formula_structural   Na6TaIn3Si4(SO12)2
_chemical_formula_sum   'Na18 Ta3 In9 Si12 S6 O72'
_cell_volume   1660.81058046
_cell_formula_units_Z   3
loop_
 _symmetry_equiv_pos_site_id
 _symmetry_equiv_pos_as_xyz
  1  'x, y, z'
loop_
 _atom_site_type_symbol
 _atom_site_label
 _atom_site_symmetry_multiplicity
 _atom_site_fract_x
 _atom_site_fract_y
 _atom_site_fract_z
 _atom_site_occupancy
  Na  Na0  1  0.61982038  0.99899958  0.25207645  1
  Na  Na1  1  0.64171523  0.62480088  0.75170484  1
  Na  Na2  1  0.00362747  0.36677081  0.74321824  1
  Na  Na3  1  0.29661736  0.34720071  0.58432728  1
  Na  Na4  1  0.02342683  0.69054636  0.58958868  1
  Na  Na5  1  0.67645625  0.95939404  0.57492961  1
  Na  Na6  1  0.29644721  0.94785108  0.08724243  1
  Na  Na7  1  0.66940655  0.71214918  0.07549395  1
  Na  Na8  1  0.02836326  0.33962136  0.08153384  1
  Na  Na9  1  0.97693870  0.68745872  0.91440141  1
  Na  Na10  1  0.32385357  0.29212082  0.91142993  1
  Na  Na11  1  0.68012984  0.67281176  0.41485650  1
  Na  Na12  1  0.99982563  0.02575751  0.49431519  1
  Na  Na13  1  0.98075264  0.99104059  0.99333248  1
  Na  Na14  1  0.65207463  0.32552091  0.82876809  1
  Na  Na15  1  0.63287620  0.30949225  0.33004828  1
  Na  Na16  1  0.31615260  0.67919106  0.16900363  1
  Na  Na17  1  0.32495513  0.65509375  0.66509222  1
  Ta  Ta18  1  0.68100345  0.33273898  0.97591440  1
  Ta  Ta19  1  0.67113126  0.33342762  0.47912998  1
  Ta  Ta20  1  0.32639109  0.66398405  0.81907609  1
  In  In21  1  0.01965739  0.01897865  0.35207181  1
  In  In22  1  0.00384885  0.99852463  0.85071422  1
  In  In23  1  0.00526616  0.00295019  0.65038081  1
  In  In24  1  0.00226069  0.98761668  0.14807899  1
  In  In25  1  0.67164579  0.34877655  0.68462259  1
  In  In26  1  0.66027229  0.32393341  0.18421296  1
  In  In27  1  0.33436505  0.67480009  0.01458861  1
  In  In28  1  0.33974302  0.65720859  0.51266061  1
  In  In29  1  0.33885985  0.67567803  0.31953030  1
  Si  Si30  1  0.29855987  0.99670404  0.24840462  1
  Si  Si31  1  0.30040429  0.30223283  0.75084160  1
  Si  Si32  1  0.00668310  0.70456970  0.75021660  1
  Si  Si33  1  0.96197389  0.33580773  0.58488963  1
  Si  Si34  1  0.66826889  0.63238206  0.58282159  1
  Si  Si35  1  0.95675117  0.62182573  0.08328816  1
  Si  Si36  1  0.66844236  0.03801775  0.08474964  1
  Si  Si37  1  0.62773027  0.66539539  0.91949520  1
  Si  Si38  1  0.04080058  0.36836845  0.91964779  1
  Si  Si39  1  0.33847755  0.96468834  0.91879044  1
  Si  Si40  1  0.63770729  0.96953975  0.41651742  1
  Si  Si41  1  0.33412927  0.36745010  0.41913670  1
  S  S42  1  0.70108267  0.70046386  0.25063857  1
  S  S43  1  0.00278574  0.29969316  0.24840649  1
  S  S44  1  0.69488883  0.99442365  0.75002347  1
  S  S45  1  0.38068116  0.04595190  0.58105907  1
  S  S46  1  0.37682044  0.33487047  0.08082937  1
  S  S47  1  0.03027331  0.66049152  0.41932720  1
  O  O48  1  0.20179654  0.01622370  0.30416092  1
  O  O49  1  0.80096574  0.78373389  0.30393136  1
  O  O50  1  0.97051269  0.18627477  0.29963686  1
  O  O51  1  0.21229997  0.19757551  0.80996719  1
  O  O52  1  0.95889056  0.78253601  0.80572062  1
  O  O53  1  0.80699355  0.02565830  0.80091089  1
  O  O54  1  0.76381291  0.96108903  0.69513731  1
  O  O55  1  0.18078487  0.23272818  0.69115661  1
  O  O56  1  0.03539069  0.80875050  0.68817640  1
  O  O57  1  0.77818542  0.80576609  0.19617307  1
  O  O58  1  0.02020446  0.22298461  0.19285991  1
  O  O59  1  0.20313582  0.97842155  0.18439512  1
  O  O60  1  0.88068665  0.35541878  0.64585275  1
  O  O61  1  0.48157035  0.11649158  0.63491472  1
  O  O62  1  0.62265247  0.51653697  0.64179325  1
  O  O63  1  0.86401710  0.50438709  0.13960400  1
  O  O64  1  0.62590557  0.10809531  0.14349064  1
  O  O65  1  0.47731533  0.36044925  0.13463825  1
  O  O66  1  0.46243914  0.31390887  0.02788183  1
  O  O67  1  0.83502197  0.52214822  0.02390645  1
  O  O68  1  0.68779501  0.16904797  0.02810590  1
  O  O69  1  0.47104511  0.15491719  0.52885156  1
  O  O70  1  0.68623308  0.52319432  0.52712285  1
  O  O71  1  0.82995693  0.31475530  0.53060140  1
  O  O72  1  0.54966755  0.68502335  0.98016948  1
  O  O73  1  0.15002376  0.44403062  0.97862745  1
  O  O74  1  0.29267150  0.85531617  0.97865145  1
  O  O75  1  0.55460209  0.85917013  0.47676321  1
  O  O76  1  0.30516301  0.43585892  0.48158727  1
  O  O77  1  0.12964297  0.68702220  0.47368358  1
  O  O78  1  0.10533403  0.63084345  0.36722654  1
  O  O79  1  0.52527043  0.90074156  0.35714730  1
  O  O80  1  0.38254896  0.50124733  0.36465067  1
  O  O81  1  0.13648318  0.50022642  0.86256188  1
  O  O82  1  0.36203281  0.85824753  0.86360199  1
  O  O83  1  0.49938024  0.63732550  0.86233541  1
  O  O84  1  0.99504961  0.79926194  0.41333166  1
  O  O85  1  0.81613872  0.96946125  0.41032549  1
  O  O86  1  0.17820755  0.17785365  0.41604917  1
  O  O87  1  0.01667975  0.18643593  0.90965613  1
  O  O88  1  0.17931026  0.99268402  0.91085772  1
  O  O89  1  0.81821581  0.81789776  0.91141530  1
  O  O90  1  0.97630475  0.16462104  0.58374853  1
  O  O91  1  0.21641987  0.04029083  0.58248255  1
  O  O92  1  0.84738439  0.81330036  0.58368574  1
  O  O93  1  0.96713413  0.80561805  0.08125480  1
  O  O94  1  0.84965856  0.03978307  0.08623047  1
  O  O95  1  0.20811263  0.17985528  0.08343981  1
  O  O96  1  0.67335582  0.14117113  0.74412537  1
  O  O97  1  0.49028659  0.32903991  0.74735371  1
  O  O98  1  0.84840392  0.50838929  0.74971304  1
  O  O99  1  0.68595400  0.53367732  0.24603547  1
  O  O100  1  0.84833522  0.31517487  0.24649649  1
  O  O101  1  0.49231209  0.16470939  0.24901475  1
  O  O102  1  0.63185642  0.48394501  0.92355117  1
  O  O103  1  0.85974149  0.37075392  0.92224767  1
  O  O104  1  0.50979750  0.15273721  0.92364898  1
  O  O105  1  0.66019421  0.15944475  0.42880915  1
  O  O106  1  0.51564572  0.36093581  0.42686094  1
  O  O107  1  0.85800336  0.50333899  0.42534576  1
  O  O108  1  0.35623725  0.48280590  0.07700302  1
  O  O109  1  0.14215042  0.63726209  0.08026056  1
  O  O110  1  0.50851959  0.84802158  0.07892947  1
  O  O111  1  0.35459183  0.87556472  0.57383429  1
  O  O112  1  0.50708222  0.66352374  0.58034092  1
  O  O113  1  0.14273524  0.51237099  0.57800964  1
  O  O114  1  0.32365176  0.82959503  0.25231011  1
  O  O115  1  0.53189327  0.68570936  0.25305649  1
  O  O116  1  0.15522988  0.46531323  0.25522462  1
  O  O117  1  0.32304963  0.49660743  0.75945525  1
  O  O118  1  0.17844110  0.68673526  0.75990329  1
  O  O119  1  0.52853896  0.83734750  0.75856743  1
