# generated using pymatgen
data_Na21Ca4Nb8Si15(PO24)3
_symmetry_space_group_name_H-M   'P 1'
_cell_length_a   9.24526156
_cell_length_b   9.26828705
_cell_length_c   22.45695767
_cell_angle_alpha   90.09511682
_cell_angle_beta   90.11803858
_cell_angle_gamma   120.02062841
_symmetry_Int_Tables_number   1
_chemical_formula_structural   Na21Ca4Nb8Si15(PO24)3
_chemical_formula_sum   'Na21 Ca4 Nb8 Si15 P3 O72'
_cell_volume   1666.12238434
_cell_formula_units_Z   1
loop_
 _symmetry_equiv_pos_site_id
 _symmetry_equiv_pos_as_xyz
  1  'x, y, z'
loop_
 _atom_site_type_symbol
 _atom_site_label
 _atom_site_symmetry_multiplicity
 _atom_site_fract_x
 _atom_site_fract_y
 _atom_site_fract_z
 _atom_site_occupancy
  Na  Na0  1  0.64290097  0.01741016  0.23816836  1
  Na  Na1  1  0.37322964  0.35085589  0.24179905  1
  Na  Na2  1  0.98710928  0.63108661  0.23911791  1
  Na  Na3  1  0.64151009  0.62592833  0.74124382  1
  Na  Na4  1  0.97741576  0.35187606  0.74451244  1
  Na  Na5  1  0.37880565  0.02635539  0.74481228  1
  Na  Na6  1  0.31761010  0.33957577  0.58823732  1
  Na  Na7  1  0.66081034  0.97587995  0.58790079  1
  Na  Na8  1  0.32151143  0.97671033  0.08541097  1
  Na  Na9  1  0.96705553  0.68359629  0.91386254  1
  Na  Na10  1  0.71832485  0.03476027  0.90943603  1
  Na  Na11  1  0.31622589  0.27784136  0.91010590  1
  Na  Na12  1  0.96392774  0.28000351  0.41284459  1
  Na  Na13  1  0.31630145  0.03746245  0.40906873  1
  Na  Na14  1  0.71621568  0.68346078  0.41227700  1
  Na  Na15  1  0.00174016  0.99072561  0.49810466  1
  Na  Na16  1  0.99135566  0.00221578  0.99580055  1
  Na  Na17  1  0.65708352  0.32421253  0.82518173  1
  Na  Na18  1  0.65776754  0.32455968  0.32542676  1
  Na  Na19  1  0.33389692  0.65009349  0.16086865  1
  Na  Na20  1  0.31663001  0.66683111  0.66747723  1
  Ca  Ca21  1  0.00076324  0.00106200  0.35311976  1
  Ca  Ca22  1  0.00122722  0.00078562  0.85400160  1
  Ca  Ca23  1  0.66813213  0.33453362  0.67717890  1
  Ca  Ca24  1  0.66789784  0.33523952  0.17529595  1
  Nb  Nb25  1  0.99819887  0.00210934  0.64805516  1
  Nb  Nb26  1  0.00286108  0.99813325  0.14365134  1
  Nb  Nb27  1  0.66808428  0.33210155  0.98379042  1
  Nb  Nb28  1  0.66606835  0.33424611  0.48252599  1
  Nb  Nb29  1  0.33324503  0.66360436  0.02025171  1
  Nb  Nb30  1  0.33048255  0.66614856  0.51973126  1
  Nb  Nb31  1  0.33186684  0.66961980  0.31273826  1
  Nb  Nb32  1  0.33708662  0.66522239  0.81333291  1
  Si  Si33  1  0.29807071  0.99643780  0.25307526  1
  Si  Si34  1  0.29657903  0.30287273  0.75342147  1
  Si  Si35  1  0.69680188  0.99498155  0.75356659  1
  Si  Si36  1  0.96916462  0.33281179  0.58532807  1
  Si  Si37  1  0.36169994  0.03041346  0.58419053  1
  Si  Si38  1  0.67003572  0.63780357  0.58363642  1
  Si  Si39  1  0.96877540  0.63458485  0.08546605  1
  Si  Si40  1  0.66838690  0.03093877  0.08488513  1
  Si  Si41  1  0.36447858  0.33424107  0.08565528  1
  Si  Si42  1  0.61770874  0.65253136  0.91858741  1
  Si  Si43  1  0.03616602  0.38407618  0.91717146  1
  Si  Si44  1  0.34586520  0.96172397  0.91843645  1
  Si  Si45  1  0.61687553  0.96306286  0.41816664  1
  Si  Si46  1  0.34625275  0.38389651  0.41704372  1
  Si  Si47  1  0.03472037  0.65217168  0.41692028  1
  P  P48  1  0.70068756  0.70939015  0.25221535  1
  P  P49  1  0.00920098  0.29891839  0.25203235  1
  P  P50  1  0.00998639  0.71207425  0.75191946  1
  O  O51  1  0.22077633  0.01418540  0.31416429  1
  O  O52  1  0.78544764  0.77916282  0.31198336  1
  O  O53  1  0.98597257  0.21167986  0.31167992  1
  O  O54  1  0.22455643  0.20089173  0.81336997  1
  O  O55  1  0.98747632  0.77754867  0.81065366  1
  O  O56  1  0.79368065  0.01172571  0.81390677  1
  O  O57  1  0.80663413  0.97760927  0.69447586  1
  O  O58  1  0.16866476  0.19098465  0.69461918  1
  O  O59  1  0.02158934  0.83217221  0.69871772  1
  O  O60  1  0.80469248  0.82960423  0.19990427  1
  O  O61  1  0.02404891  0.19307898  0.19998779  1
  O  O62  1  0.16979419  0.97687937  0.19538469  1
  O  O63  1  0.91278142  0.36825694  0.64721093  1
  O  O64  1  0.47332001  0.08485248  0.64294175  1
  O  O65  1  0.60934373  0.52493208  0.64150300  1
  O  O66  1  0.91224228  0.54282556  0.14730399  1
  O  O67  1  0.61205652  0.08583469  0.14350729  1
  O  O68  1  0.45534145  0.36670456  0.14811305  1
  O  O69  1  0.47253162  0.30166576  0.03144064  1
  O  O70  1  0.83531605  0.52502692  0.02986087  1
  O  O71  1  0.69376541  0.16464609  0.02900410  1
  O  O72  1  0.47150644  0.16793197  0.52865608  1
  O  O73  1  0.69136949  0.52833482  0.52694946  1
  O  O74  1  0.83237781  0.30548178  0.52971726  1
  O  O75  1  0.50518649  0.66314233  0.97165655  1
  O  O76  1  0.15380027  0.49939493  0.97152567  1
  O  O77  1  0.34006312  0.84946061  0.97458683  1
  O  O78  1  0.51097252  0.84784623  0.47398635  1
  O  O79  1  0.34427338  0.49345755  0.47360772  1
  O  O80  1  0.15515400  0.65814141  0.47105428  1
  O  O81  1  0.13358409  0.63505076  0.35615763  1
  O  O82  1  0.49794713  0.86117394  0.35792767  1
  O  O83  1  0.36282096  0.49983580  0.35701951  1
  O  O84  1  0.13262418  0.49811140  0.85601280  1
  O  O85  1  0.36249621  0.86129774  0.85780893  1
  O  O86  1  0.50103869  0.63445333  0.85685424  1
  O  O87  1  0.01337805  0.81311137  0.42004678  1
  O  O88  1  0.79967656  0.98402239  0.41985389  1
  O  O89  1  0.18222940  0.20263868  0.42087200  1
  O  O90  1  0.01807875  0.20312743  0.92113199  1
  O  O91  1  0.18249996  0.98009626  0.92124088  1
  O  O92  1  0.80049338  0.81278342  0.92067128  1
  O  O93  1  0.97265581  0.15409679  0.58715660  1
  O  O94  1  0.18516979  0.03242558  0.58850451  1
  O  O95  1  0.84044838  0.82156239  0.58852537  1
  O  O96  1  0.97865226  0.82077771  0.08946661  1
  O  O97  1  0.84199047  0.02317411  0.09210758  1
  O  O98  1  0.18252713  0.15309087  0.08909074  1
  O  O99  1  0.66977221  0.15278488  0.74723676  1
  O  O100  1  0.48454579  0.33909565  0.74544603  1
  O  O101  1  0.86154776  0.53561365  0.74263230  1
  O  O102  1  0.67452778  0.53286279  0.24574497  1
  O  O103  1  0.86379567  0.33248161  0.24424164  1
  O  O104  1  0.48641011  0.15102681  0.24792934  1
  O  O105  1  0.62014733  0.47590803  0.92332139  1
  O  O106  1  0.85315738  0.37643341  0.92176933  1
  O  O107  1  0.52116098  0.14488303  0.92174477  1
  O  O108  1  0.62213490  0.14398457  0.42154401  1
  O  O109  1  0.52108609  0.37466624  0.42045980  1
  O  O110  1  0.85454432  0.47564984  0.42140002  1
  O  O111  1  0.32657623  0.48488618  0.07132347  1
  O  O112  1  0.16284412  0.68192106  0.07282009  1
  O  O113  1  0.51125010  0.84343316  0.07087587  1
  O  O114  1  0.33023486  0.84280021  0.56967815  1
  O  O115  1  0.51599572  0.67692526  0.57086662  1
  O  O116  1  0.16330711  0.48004720  0.57197032  1
  O  O117  1  0.29755654  0.81160595  0.25280914  1
  O  O118  1  0.52504838  0.70350940  0.25123613  1
  O  O119  1  0.18255667  0.47076593  0.25180734  1
  O  O120  1  0.28718376  0.48011522  0.75238350  1
  O  O121  1  0.18169694  0.71436802  0.74996220  1
  O  O122  1  0.51447272  0.81216488  0.75182707  1
