# generated using pymatgen
data_Na10Ti2Zn6Si3(S3O16)3
_symmetry_space_group_name_H-M   'P 1'
_cell_length_a   17.87338141
_cell_length_b   8.98202141
_cell_length_c   22.12901196
_cell_angle_alpha   90.36409569
_cell_angle_beta   89.80135572
_cell_angle_gamma   120.07978881
_symmetry_Int_Tables_number   1
_chemical_formula_structural   Na10Ti2Zn6Si3(S3O16)3
_chemical_formula_sum   'Na30 Ti6 Zn18 Si9 S27 O144'
_cell_volume   3074.07837439
_cell_formula_units_Z   3
loop_
 _symmetry_equiv_pos_site_id
 _symmetry_equiv_pos_as_xyz
  1  'x, y, z'
loop_
 _atom_site_type_symbol
 _atom_site_label
 _atom_site_symmetry_multiplicity
 _atom_site_fract_x
 _atom_site_fract_y
 _atom_site_fract_z
 _atom_site_occupancy
  Na  Na0  1  0.31677032  0.00284220  0.24763624  1
  Na  Na1  1  0.18753926  0.35935063  0.25050576  1
  Na  Na2  1  0.49653623  0.63112299  0.25371544  1
  Na  Na3  1  0.31148774  0.62220974  0.74103259  1
  Na  Na4  1  0.81650185  0.63206301  0.74631851  1
  Na  Na5  1  0.99861354  0.35813950  0.75274426  1
  Na  Na6  1  0.18474856  0.01431017  0.75446798  1
  Na  Na7  1  0.68805621  0.01689537  0.75046955  1
  Na  Na8  1  0.16139635  0.34940684  0.58540719  1
  Na  Na9  1  0.82841375  0.69060486  0.08191028  1
  Na  Na10  1  0.48292527  0.66278863  0.91829286  1
  Na  Na11  1  0.35249912  0.03973889  0.91668902  1
  Na  Na12  1  0.85281659  0.03568880  0.91970487  1
  Na  Na13  1  0.66215959  0.30016989  0.91827202  1
  Na  Na14  1  0.98074208  0.29957942  0.41679577  1
  Na  Na15  1  0.16092844  0.02356957  0.41643724  1
  Na  Na16  1  0.35342040  0.66895758  0.42099910  1
  Na  Na17  1  0.85166095  0.66354845  0.41556906  1
  Na  Na18  1  0.99391159  0.97330275  0.50021428  1
  Na  Na19  1  0.50555239  0.00550975  0.49782118  1
  Na  Na20  1  0.01191368  0.02005258  0.99701498  1
  Na  Na21  1  0.50234303  0.01603614  0.00048914  1
  Na  Na22  1  0.32801120  0.32915845  0.83355368  1
  Na  Na23  1  0.83550781  0.33689378  0.83133181  1
  Na  Na24  1  0.33547949  0.33283143  0.33135107  1
  Na  Na25  1  0.82686909  0.32666132  0.33110918  1
  Na  Na26  1  0.16196097  0.66475583  0.16086786  1
  Na  Na27  1  0.67546312  0.68876296  0.16294067  1
  Na  Na28  1  0.17360276  0.67347623  0.66099792  1
  Na  Na29  1  0.66358180  0.65879718  0.66037477  1
  Ti  Ti30  1  0.99516122  0.00673273  0.65336487  1
  Ti  Ti31  1  0.50228401  0.01010140  0.64405465  1
  Ti  Ti32  1  0.00034495  0.00018300  0.14726861  1
  Ti  Ti33  1  0.49514041  0.99035653  0.15092708  1
  Ti  Ti34  1  0.15890783  0.67284719  0.30979837  1
  Ti  Ti35  1  0.66012988  0.64606565  0.81130169  1
  Zn  Zn36  1  0.00176504  0.97720797  0.34617958  1
  Zn  Zn37  1  0.50318936  0.00118065  0.34811109  1
  Zn  Zn38  1  0.00471915  0.01795122  0.84543530  1
  Zn  Zn39  1  0.50488526  0.02783132  0.84758520  1
  Zn  Zn40  1  0.33069203  0.34667885  0.67711868  1
  Zn  Zn41  1  0.82675801  0.32092385  0.68234253  1
  Zn  Zn42  1  0.32699123  0.33277955  0.18301394  1
  Zn  Zn43  1  0.83148222  0.31742424  0.17729043  1
  Zn  Zn44  1  0.33382308  0.33050581  0.98322707  1
  Zn  Zn45  1  0.84146066  0.32107556  0.99623356  1
  Zn  Zn46  1  0.34649768  0.36091144  0.49431618  1
  Zn  Zn47  1  0.83310757  0.33747266  0.48283722  1
  Zn  Zn48  1  0.16509292  0.66420881  0.01466345  1
  Zn  Zn49  1  0.66520357  0.66809501  0.01967771  1
  Zn  Zn50  1  0.17123537  0.68253660  0.51822861  1
  Zn  Zn51  1  0.66495174  0.66366451  0.51463149  1
  Zn  Zn52  1  0.67133567  0.66604060  0.31845641  1
  Zn  Zn53  1  0.16440420  0.64832187  0.81808771  1
  Si  Si54  1  0.14603648  0.00228079  0.25096334  1
  Si  Si55  1  0.35207514  0.70303199  0.25522776  1
  Si  Si56  1  0.15126706  0.29694806  0.75152986  1
  Si  Si57  1  0.64649860  0.29084368  0.75097163  1
  Si  Si58  1  0.84985606  0.00046695  0.75610935  1
  Si  Si59  1  0.33317965  0.64310849  0.58233471  1
  Si  Si60  1  0.83103563  0.02765690  0.08283754  1
  Si  Si61  1  0.51921319  0.37366429  0.92071651  1
  Si  Si62  1  0.01868509  0.66480367  0.42034209  1
  S  S63  1  0.64713948  0.00366913  0.25006793  1
  S  S64  1  0.84942470  0.69812152  0.24808212  1
  S  S65  1  0.99758522  0.28978836  0.25316764  1
  S  S66  1  0.50527520  0.29536130  0.24896074  1
  S  S67  1  0.00153921  0.71338103  0.74897973  1
  S  S68  1  0.50082211  0.71076348  0.75232969  1
  S  S69  1  0.35410116  0.00325894  0.74911496  1
  S  S70  1  0.48281438  0.33441737  0.58485570  1
  S  S71  1  0.97793763  0.32343586  0.58504459  1
  S  S72  1  0.18126676  0.03540765  0.58499640  1
  S  S73  1  0.68332415  0.03187354  0.58316045  1
  S  S74  1  0.83481918  0.63676524  0.58396617  1
  S  S75  1  0.47944117  0.63384234  0.08628178  1
  S  S76  1  0.98373666  0.63388961  0.08472070  1
  S  S77  1  0.33546428  0.03288236  0.08427500  1
  S  S78  1  0.18340598  0.33460418  0.08337244  1
  S  S79  1  0.68182511  0.32355297  0.08434174  1
  S  S80  1  0.31386897  0.66526729  0.91630398  1
  S  S81  1  0.81601693  0.66432307  0.91531172  1
  S  S82  1  0.01646607  0.37176209  0.91703003  1
  S  S83  1  0.16409720  0.95554469  0.91632399  1
  S  S84  1  0.66657234  0.95930053  0.91472691  1
  S  S85  1  0.31526986  0.96586816  0.41463901  1
  S  S86  1  0.81173391  0.95926354  0.41664634  1
  S  S87  1  0.16618324  0.37269436  0.41528535  1
  S  S88  1  0.66372096  0.36812662  0.41693733  1
  S  S89  1  0.51989109  0.66495801  0.41495596  1
  O  O90  1  0.11372451  0.05170897  0.31203454  1
  O  O91  1  0.60905147  0.02315115  0.30633290  1
  O  O92  1  0.41079215  0.78782344  0.31413619  1
  O  O93  1  0.89671159  0.77598091  0.30546076  1
  O  O94  1  0.49243472  0.19286131  0.30348128  1
  O  O95  1  0.98746473  0.19516532  0.30958355  1
  O  O96  1  0.11062653  0.16631619  0.80683572  1
  O  O97  1  0.61490097  0.17675788  0.81164450  1
  O  O98  1  0.48649019  0.78298750  0.80894748  1
  O  O99  1  0.98376960  0.78309685  0.80390541  1
  O  O100  1  0.39803170  0.01618243  0.80742125  1
  O  O101  1  0.90541181  0.03132205  0.81645675  1
  O  O102  1  0.40133519  0.97742604  0.69777364  1
  O  O103  1  0.90286286  0.96727222  0.69813330  1
  O  O104  1  0.08334579  0.19081392  0.69146686  1
  O  O105  1  0.58206479  0.18356288  0.69425546  1
  O  O106  1  0.01235429  0.82551640  0.69517070  1
  O  O107  1  0.51276479  0.82351390  0.69980614  1
  O  O108  1  0.40692646  0.84305407  0.19762959  1
  O  O109  1  0.89713412  0.81137764  0.19482038  1
  O  O110  1  0.00925454  0.19862684  0.20030724  1
  O  O111  1  0.51392920  0.20396742  0.19422567  1
  O  O112  1  0.08193006  0.98269565  0.19457606  1
  O  O113  1  0.58817756  0.98583329  0.19707334  1
  O  O114  1  0.43938937  0.35098399  0.63866354  1
  O  O115  1  0.93534797  0.34022957  0.63942892  1
  O  O116  1  0.23218469  0.11975626  0.64013288  1
  O  O117  1  0.73099165  0.10385094  0.64036887  1
  O  O118  1  0.31461254  0.52278371  0.64131031  1
  O  O119  1  0.82655843  0.53565190  0.63857261  1
  O  O120  1  0.43546555  0.52906023  0.14015014  1
  O  O121  1  0.94281881  0.53383079  0.13958876  1
  O  O122  1  0.32697948  0.11792133  0.13926274  1
  O  O123  1  0.81750201  0.11898401  0.13992482  1
  O  O124  1  0.23166770  0.35933687  0.14064708  1
  O  O125  1  0.74022023  0.35423755  0.13602848  1
  O  O126  1  0.22579448  0.30668963  0.03077058  1
  O  O127  1  0.71957911  0.30158131  0.02658164  1
  O  O128  1  0.42924370  0.56247418  0.02998840  1
  O  O129  1  0.92807282  0.55827050  0.03025686  1
  O  O130  1  0.34768141  0.13360770  0.02862842  1
  O  O131  1  0.85289465  0.13057535  0.01882331  1
  O  O132  1  0.22340640  0.14072682  0.52960040  1
  O  O133  1  0.72592920  0.14304407  0.53059006  1
  O  O134  1  0.35290729  0.56894020  0.52040182  1
  O  O135  1  0.84555835  0.55694129  0.52767506  1
  O  O136  1  0.43185184  0.30301765  0.52862470  1
  O  O137  1  0.92906188  0.30221020  0.52864046  1
  O  O138  1  0.27074245  0.69442247  0.96843333  1
  O  O139  1  0.77781204  0.69165092  0.97075571  1
  O  O140  1  0.06911605  0.46584791  0.96983866  1
  O  O141  1  0.58514508  0.46841719  0.97514309  1
  O  O142  1  0.15897896  0.85395090  0.97011639  1
  O  O143  1  0.66057738  0.85991437  0.96882362  1
  O  O144  1  0.27709757  0.85690112  0.46787613  1
  O  O145  1  0.77175011  0.84811586  0.47001843  1
  O  O146  1  0.16051946  0.45669926  0.47112757  1
  O  O147  1  0.65395241  0.45044933  0.47207433  1
  O  O148  1  0.08465968  0.70271948  0.47461814  1
  O  O149  1  0.57090530  0.67487386  0.46818617  1
  O  O150  1  0.07302390  0.64626312  0.35905378  1
  O  O151  1  0.56070909  0.65503456  0.35677702  1
  O  O152  1  0.26052737  0.87567110  0.35857133  1
  O  O153  1  0.76222354  0.88088733  0.36040013  1
  O  O154  1  0.17700782  0.48103062  0.36056262  1
  O  O155  1  0.67831351  0.47634184  0.36218979  1
  O  O156  1  0.05573747  0.46001222  0.85855584  1
  O  O157  1  0.57255245  0.50046649  0.85979437  1
  O  O158  1  0.17689620  0.87650658  0.85940157  1
  O  O159  1  0.67698281  0.87511842  0.85867006  1
  O  O160  1  0.26789628  0.64892597  0.85837504  1
  O  O161  1  0.75919633  0.64661934  0.86055599  1
  O  O162  1  0.00440297  0.83056213  0.41367182  1
  O  O163  1  0.50916382  0.81986671  0.41606042  1
  O  O164  1  0.40310454  0.98996013  0.40812544  1
  O  O165  1  0.90100837  0.98237168  0.41226668  1
  O  O166  1  0.08465778  0.20281772  0.41206557  1
  O  O167  1  0.58609672  0.19469440  0.41121911  1
  O  O168  1  0.00684696  0.19662540  0.91766953  1
  O  O169  1  0.50495147  0.17912651  0.91430052  1
  O  O170  1  0.08594577  0.97100882  0.91405895  1
  O  O171  1  0.58482203  0.96649632  0.91246606  1
  O  O172  1  0.40303938  0.81979490  0.91385819  1
  O  O173  1  0.90289572  0.81668202  0.90856314  1
  O  O174  1  0.49266390  0.17573308  0.59016934  1
  O  O175  1  0.98604701  0.16124206  0.58931803  1
  O  O176  1  0.09435156  0.02708156  0.58858827  1
  O  O177  1  0.59449030  0.01545739  0.58854705  1
  O  O178  1  0.42141898  0.83535458  0.59591193  1
  O  O179  1  0.91545694  0.81172617  0.58884534  1
  O  O180  1  0.48833171  0.81255961  0.09386820  1
  O  O181  1  0.99053182  0.80994905  0.08982821  1
  O  O182  1  0.41706275  0.01896796  0.09006048  1
  O  O183  1  0.92067835  0.00750704  0.09670625  1
  O  O184  1  0.09450398  0.17551373  0.08907886  1
  O  O185  1  0.59476832  0.16380825  0.09196427  1
  O  O186  1  0.34518871  0.15617896  0.74189020  1
  O  O187  1  0.84242385  0.17048844  0.74485523  1
  O  O188  1  0.24786173  0.32192973  0.74457984  1
  O  O189  1  0.74563508  0.33503815  0.74156467  1
  O  O190  1  0.42803528  0.53498314  0.74473134  1
  O  O191  1  0.92759334  0.53717497  0.73996660  1
  O  O192  1  0.34343580  0.51625156  0.24512355  1
  O  O193  1  0.84126677  0.52712279  0.24077504  1
  O  O194  1  0.42641355  0.31085530  0.24227803  1
  O  O195  1  0.92651723  0.32512180  0.24594582  1
  O  O196  1  0.24523652  0.15683544  0.24189837  1
  O  O197  1  0.73321893  0.15555641  0.24333142  1
  O  O198  1  0.32204731  0.50943997  0.92247679  1
  O  O199  1  0.81729089  0.50080432  0.91727249  1
  O  O200  1  0.42460123  0.36256731  0.92080372  1
  O  O201  1  0.92888708  0.35517623  0.91920743  1
  O  O202  1  0.24486592  0.12994278  0.92044679  1
  O  O203  1  0.74255131  0.13679817  0.91624860  1
  O  O204  1  0.31646939  0.13236915  0.41885175  1
  O  O205  1  0.82112770  0.13277574  0.42310506  1
  O  O206  1  0.24256703  0.34694951  0.41586889  1
  O  O207  1  0.74414854  0.35487566  0.42109562  1
  O  O208  1  0.43140930  0.50664185  0.41638002  1
  O  O209  1  0.92448351  0.48698059  0.41985302  1
  O  O210  1  0.17130018  0.48562029  0.07670382  1
  O  O211  1  0.67031753  0.47520471  0.08233910  1
  O  O212  1  0.07167059  0.65935070  0.07813698  1
  O  O213  1  0.56730549  0.66044803  0.08308373  1
  O  O214  1  0.25983713  0.85664387  0.08015902  1
  O  O215  1  0.75213146  0.82770972  0.07770055  1
  O  O216  1  0.16790285  0.86073863  0.58259451  1
  O  O217  1  0.67019503  0.85615436  0.57626922  1
  O  O218  1  0.24537012  0.65563751  0.57685626  1
  O  O219  1  0.75791453  0.65900692  0.58003790  1
  O  O220  1  0.06739068  0.47001089  0.58233716  1
  O  O221  1  0.57073703  0.48677578  0.58002805  1
  O  O222  1  0.15115956  0.82094400  0.25586540  1
  O  O223  1  0.64826032  0.83845311  0.24899663  1
  O  O224  1  0.25643065  0.68883412  0.25609725  1
  O  O225  1  0.76323465  0.68653965  0.24956628  1
  O  O226  1  0.08380577  0.46055674  0.25460876  1
  O  O227  1  0.58211683  0.47066423  0.25100834  1
  O  O228  1  0.15350428  0.48237437  0.75171207  1
  O  O229  1  0.65125885  0.48187116  0.75638010  1
  O  O230  1  0.08297554  0.70617256  0.75173597  1
  O  O231  1  0.58486022  0.70814153  0.75570588  1
  O  O232  1  0.26608682  0.84492075  0.74933126  1
  O  O233  1  0.75427018  0.82295262  0.75683024  1
