# generated using pymatgen
data_Na6Ti2Zn6SiS11O48
_symmetry_space_group_name_H-M   'P 1'
_cell_length_a   17.49246704
_cell_length_b   8.75235609
_cell_length_c   22.50199635
_cell_angle_alpha   90.16581854
_cell_angle_beta   89.82658232
_cell_angle_gamma   120.07875333
_symmetry_Int_Tables_number   1
_chemical_formula_structural   Na6Ti2Zn6SiS11O48
_chemical_formula_sum   'Na18 Ti6 Zn18 Si3 S33 O144'
_cell_volume   2981.12368152
_cell_formula_units_Z   3
loop_
 _symmetry_equiv_pos_site_id
 _symmetry_equiv_pos_as_xyz
  1  'x, y, z'
loop_
 _atom_site_type_symbol
 _atom_site_label
 _atom_site_symmetry_multiplicity
 _atom_site_fract_x
 _atom_site_fract_y
 _atom_site_fract_z
 _atom_site_occupancy
  Na  Na0  1  0.68428200  0.36105224  0.24574622  1
  Na  Na1  1  0.99638257  0.63257947  0.25318353  1
  Na  Na2  1  0.33489028  0.96452661  0.58808636  1
  Na  Na3  1  0.83548535  0.96517954  0.58824519  1
  Na  Na4  1  0.33337389  0.69741003  0.08255386  1
  Na  Na5  1  0.34746577  0.66503327  0.41533372  1
  Na  Na6  1  0.00575565  0.99793327  0.49761305  1
  Na  Na7  1  0.50907596  0.01124364  0.50068375  1
  Na  Na8  1  0.00152346  0.00014846  0.99916605  1
  Na  Na9  1  0.50782650  0.01105143  0.00145487  1
  Na  Na10  1  0.33244917  0.33124341  0.83807272  1
  Na  Na11  1  0.83209950  0.33122217  0.83797063  1
  Na  Na12  1  0.33007562  0.32287572  0.33073029  1
  Na  Na13  1  0.83663846  0.33472315  0.33495203  1
  Na  Na14  1  0.16835308  0.66924651  0.16621771  1
  Na  Na15  1  0.66485812  0.67190539  0.15978536  1
  Na  Na16  1  0.16626820  0.66479217  0.67246646  1
  Na  Na17  1  0.66692860  0.66535510  0.67289162  1
  Ti  Ti18  1  0.99406842  0.00439805  0.85109436  1
  Ti  Ti19  1  0.49498108  0.00549411  0.85129193  1
  Ti  Ti20  1  0.99211622  0.99135517  0.14972421  1
  Ti  Ti21  1  0.33443096  0.32653448  0.69104080  1
  Ti  Ti22  1  0.83466151  0.32725956  0.69045468  1
  Ti  Ti23  1  0.67194730  0.67356265  0.31439942  1
  Zn  Zn24  1  0.00083498  0.99458943  0.35038339  1
  Zn  Zn25  1  0.49865681  0.00164389  0.34808521  1
  Zn  Zn26  1  0.99919417  0.99648640  0.65337942  1
  Zn  Zn27  1  0.49956950  0.99674028  0.65374331  1
  Zn  Zn28  1  0.50260398  0.00498716  0.14957632  1
  Zn  Zn29  1  0.33358122  0.33474442  0.18156069  1
  Zn  Zn30  1  0.83274681  0.33575163  0.18048846  1
  Zn  Zn31  1  0.33270488  0.32768160  0.98394012  1
  Zn  Zn32  1  0.83103613  0.33024516  0.98396088  1
  Zn  Zn33  1  0.33076694  0.32637050  0.48372133  1
  Zn  Zn34  1  0.83582869  0.34132788  0.48139513  1
  Zn  Zn35  1  0.16305766  0.67066598  0.01325574  1
  Zn  Zn36  1  0.66639967  0.66602991  0.01469873  1
  Zn  Zn37  1  0.16053233  0.65719334  0.51510402  1
  Zn  Zn38  1  0.66314991  0.65885390  0.51779936  1
  Zn  Zn39  1  0.16906617  0.66609249  0.31794011  1
  Zn  Zn40  1  0.17098218  0.67736914  0.81605465  1
  Zn  Zn41  1  0.67143309  0.67796033  0.81632255  1
  Si  Si42  1  0.85401290  0.70572171  0.25273412  1
  Si  Si43  1  0.35102070  0.98981263  0.74610162  1
  Si  Si44  1  0.85071401  0.99043147  0.74598805  1
  S  S45  1  0.14722557  0.00467223  0.24920377  1
  S  S46  1  0.64550599  0.99506815  0.25145556  1
  S  S47  1  0.35146965  0.70296166  0.25006175  1
  S  S48  1  0.00036192  0.29003887  0.24996126  1
  S  S49  1  0.49870849  0.29518719  0.25184374  1
  S  S50  1  0.14535557  0.29032826  0.74944642  1
  S  S51  1  0.64556611  0.29063715  0.74941603  1
  S  S52  1  0.99947716  0.70853174  0.74952445  1
  S  S53  1  0.49952588  0.70844012  0.74949681  1
  S  S54  1  0.47960093  0.33672414  0.58320744  1
  S  S55  1  0.97926898  0.33559775  0.58314547  1
  S  S56  1  0.18628465  0.04341322  0.58438568  1
  S  S57  1  0.68742574  0.04578949  0.58321905  1
  S  S58  1  0.33367325  0.62353660  0.58223038  1
  S  S59  1  0.83340452  0.62251921  0.58321762  1
  S  S60  1  0.48130674  0.62653363  0.08340971  1
  S  S61  1  0.98237033  0.63103688  0.08423925  1
  S  S62  1  0.33298207  0.03828480  0.08352936  1
  S  S63  1  0.83356166  0.04031518  0.08408857  1
  S  S64  1  0.18414372  0.33076400  0.08375542  1
  S  S65  1  0.68443565  0.33393870  0.08354212  1
  S  S66  1  0.31504565  0.66535296  0.91672637  1
  S  S67  1  0.81440351  0.66534655  0.91610357  1
  S  S68  1  0.02034243  0.37488514  0.91539100  1
  S  S69  1  0.52065162  0.37528142  0.91506223  1
  S  S70  1  0.16543458  0.96385591  0.91589076  1
  S  S71  1  0.66553216  0.96220442  0.91641079  1
  S  S72  1  0.31454025  0.96412044  0.41767351  1
  S  S73  1  0.81271111  0.95955507  0.41847157  1
  S  S74  1  0.16544432  0.36864584  0.41692814  1
  S  S75  1  0.66572961  0.37366220  0.41595421  1
  S  S76  1  0.01907820  0.66661147  0.41633535  1
  S  S77  1  0.52175947  0.66817493  0.41640782  1
  O  O78  1  0.11084947  0.03371101  0.30374527  1
  O  O79  1  0.60643981  0.03070650  0.30438580  1
  O  O80  1  0.40405453  0.78294099  0.30529598  1
  O  O81  1  0.91764784  0.79025074  0.30759806  1
  O  O82  1  0.48610743  0.18948744  0.30546926  1
  O  O83  1  0.98920214  0.18910936  0.30359830  1
  O  O84  1  0.10491207  0.17493416  0.80287858  1
  O  O85  1  0.60468333  0.17477218  0.80287912  1
  O  O86  1  0.48476793  0.79302631  0.80256106  1
  O  O87  1  0.98505618  0.79370473  0.80267178  1
  O  O88  1  0.41907966  0.02818710  0.80459470  1
  O  O89  1  0.91865003  0.02833548  0.80463874  1
  O  O90  1  0.39261794  0.97160845  0.68526050  1
  O  O91  1  0.89269330  0.97190669  0.68544690  1
  O  O92  1  0.09520023  0.21259199  0.69503638  1
  O  O93  1  0.59520630  0.21283737  0.69497492  1
  O  O94  1  0.01530747  0.81188502  0.69522230  1
  O  O95  1  0.51517051  0.81142976  0.69507711  1
  O  O96  1  0.39344030  0.81193246  0.19617281  1
  O  O97  1  0.90107484  0.83387466  0.19279215  1
  O  O98  1  0.01211187  0.20090182  0.19576190  1
  O  O99  1  0.52068180  0.22362719  0.19873322  1
  O  O100  1  0.08751677  0.97765704  0.19644562  1
  O  O101  1  0.59231461  0.96167271  0.19747679  1
  O  O102  1  0.43332594  0.35612227  0.63723155  1
  O  O103  1  0.93283199  0.35590525  0.63726713  1
  O  O104  1  0.24591145  0.13600466  0.63740917  1
  O  O105  1  0.74577455  0.13608818  0.63692568  1
  O  O106  1  0.32390897  0.51230445  0.63471957  1
  O  O107  1  0.82313040  0.51345022  0.63673545  1
  O  O108  1  0.44163401  0.52119922  0.13779147  1
  O  O109  1  0.94436802  0.52961333  0.13979775  1
  O  O110  1  0.32000273  0.11785080  0.13761508  1
  O  O111  1  0.82125129  0.11997334  0.13854608  1
  O  O112  1  0.24077668  0.36561239  0.13683278  1
  O  O113  1  0.73464646  0.35850480  0.13987279  1
  O  O114  1  0.22248494  0.29958242  0.02969183  1
  O  O115  1  0.72772817  0.30753570  0.03129075  1
  O  O116  1  0.42422803  0.54564201  0.03038614  1
  O  O117  1  0.92687861  0.55331748  0.03162397  1
  O  O118  1  0.34608390  0.14392993  0.02961551  1
  O  O119  1  0.85087080  0.14838932  0.03054106  1
  O  O120  1  0.22532113  0.14674592  0.53000534  1
  O  O121  1  0.72739646  0.14957137  0.52909426  1
  O  O122  1  0.34418090  0.54523046  0.52621421  1
  O  O123  1  0.84316517  0.54116389  0.52872934  1
  O  O124  1  0.42430767  0.30611088  0.52997159  1
  O  O125  1  0.92343480  0.30320640  0.53025413  1
  O  O126  1  0.28059403  0.70087996  0.97256612  1
  O  O127  1  0.77927702  0.70345265  0.97027717  1
  O  O128  1  0.07350416  0.44622333  0.97000452  1
  O  O129  1  0.57311326  0.44617041  0.96960403  1
  O  O130  1  0.14861724  0.85706893  0.97053570  1
  O  O131  1  0.64915429  0.85468385  0.97063507  1
  O  O132  1  0.27576233  0.85541916  0.47252981  1
  O  O133  1  0.77221227  0.85526071  0.47279792  1
  O  O134  1  0.15375999  0.44961679  0.47152448  1
  O  O135  1  0.65288022  0.45516495  0.46919806  1
  O  O136  1  0.07349596  0.68942260  0.46955107  1
  O  O137  1  0.57364152  0.69384917  0.47048896  1
  O  O138  1  0.05833415  0.64155934  0.36033334  1
  O  O139  1  0.56735961  0.64747644  0.36310882  1
  O  O140  1  0.26039813  0.88032777  0.36426276  1
  O  O141  1  0.75404803  0.85957368  0.36485010  1
  O  O142  1  0.18278127  0.48282067  0.36387948  1
  O  O143  1  0.67597899  0.48585302  0.36091796  1
  O  O144  1  0.06140034  0.47972113  0.86205549  1
  O  O145  1  0.56170700  0.47983633  0.86159910  1
  O  O146  1  0.17929892  0.88231753  0.86308809  1
  O  O147  1  0.67930759  0.88227923  0.86302781  1
  O  O148  1  0.26012677  0.63934629  0.86478576  1
  O  O149  1  0.76111171  0.63765334  0.86292675  1
  O  O150  1  0.01168038  0.82752481  0.41399036  1
  O  O151  1  0.51012764  0.82538374  0.41035235  1
  O  O152  1  0.40298819  0.97501860  0.41213486  1
  O  O153  1  0.90009253  0.97829877  0.41108781  1
  O  O154  1  0.08667272  0.19272886  0.41076031  1
  O  O155  1  0.58613170  0.19774183  0.40888223  1
  O  O156  1  0.01281194  0.19205862  0.90824135  1
  O  O157  1  0.51310926  0.19201046  0.90789052  1
  O  O158  1  0.08436904  0.98138117  0.90792561  1
  O  O159  1  0.58453101  0.98076942  0.90817145  1
  O  O160  1  0.40635689  0.83052447  0.90811360  1
  O  O161  1  0.90653029  0.83081596  0.90763348  1
  O  O162  1  0.48882713  0.17787143  0.58804324  1
  O  O163  1  0.98885925  0.17758996  0.58857589  1
  O  O164  1  0.09830961  0.02302403  0.59190541  1
  O  O165  1  0.59889638  0.02442366  0.59079498  1
  O  O166  1  0.41344766  0.80287852  0.58606845  1
  O  O167  1  0.91294622  0.80215163  0.58675791  1
  O  O168  1  0.48749732  0.80402967  0.08872527  1
  O  O169  1  0.99187864  0.81370652  0.09179493  1
  O  O170  1  0.41237942  0.01528004  0.08844086  1
  O  O171  1  0.91739349  0.02604306  0.09128996  1
  O  O172  1  0.09500891  0.17153279  0.09231314  1
  O  O173  1  0.59555564  0.17204846  0.08813308  1
  O  O174  1  0.34688823  0.18054135  0.74017353  1
  O  O175  1  0.84678233  0.18098049  0.73998836  1
  O  O176  1  0.23609387  0.30757691  0.74329549  1
  O  O177  1  0.73588573  0.30712637  0.74349121  1
  O  O178  1  0.41452024  0.53087921  0.74296170  1
  O  O179  1  0.91467583  0.53119862  0.74324000  1
  O  O180  1  0.34305020  0.52606044  0.24489952  1
  O  O181  1  0.83768001  0.50813769  0.24258281  1
  O  O182  1  0.42169611  0.31707711  0.24474893  1
  O  O183  1  0.92142840  0.31051529  0.24257760  1
  O  O184  1  0.23626449  0.15855019  0.24075537  1
  O  O185  1  0.73517984  0.15048601  0.24551061  1
  O  O186  1  0.32781917  0.51153453  0.92249766  1
  O  O187  1  0.82809169  0.51264003  0.92248516  1
  O  O188  1  0.43009443  0.34617633  0.92065052  1
  O  O189  1  0.93011126  0.34688800  0.92164365  1
  O  O190  1  0.24452542  0.14249073  0.92208989  1
  O  O191  1  0.74451939  0.14153974  0.92247713  1
  O  O192  1  0.32517410  0.14196215  0.42260725  1
  O  O193  1  0.81545352  0.13092050  0.41855415  1
  O  O194  1  0.24846028  0.35694915  0.42164763  1
  O  O195  1  0.74696800  0.36268477  0.41775978  1
  O  O196  1  0.43216409  0.50790109  0.41872349  1
  O  O197  1  0.93049845  0.50397686  0.42092675  1
  O  O198  1  0.17635729  0.49272035  0.07752312  1
  O  O199  1  0.67649556  0.49442052  0.07765892  1
  O  O200  1  0.07152804  0.65328323  0.07808341  1
  O  O201  1  0.57022588  0.64752858  0.07701317  1
  O  O202  1  0.25387426  0.85576481  0.07826970  1
  O  O203  1  0.75692979  0.86050410  0.07845824  1
  O  O204  1  0.18308565  0.86994367  0.58130003  1
  O  O205  1  0.68328098  0.87102371  0.58065435  1
  O  O206  1  0.25352155  0.64366803  0.57988259  1
  O  O207  1  0.75308521  0.64319397  0.58071990  1
  O  O208  1  0.06630897  0.49909784  0.58063750  1
  O  O209  1  0.56656783  0.49932364  0.58038875  1
  O  O210  1  0.15006754  0.83638777  0.25151668  1
  O  O211  1  0.65318024  0.83263170  0.26064443  1
  O  O212  1  0.26295191  0.68827189  0.25518612  1
  O  O213  1  0.75404886  0.68663375  0.25976699  1
  O  O214  1  0.08033850  0.47082836  0.25137092  1
  O  O215  1  0.58192550  0.47596289  0.25996917  1
  O  O216  1  0.15590596  0.46562210  0.75788362  1
  O  O217  1  0.65567314  0.46546903  0.75787772  1
  O  O218  1  0.07306977  0.67591395  0.75765401  1
  O  O219  1  0.57288512  0.67542990  0.75761631  1
  O  O220  1  0.25399500  0.82942916  0.75589242  1
  O  O221  1  0.75378504  0.82971971  0.75582727  1
