# generated using pymatgen
data_NaTaZnSi(SO6)2
_symmetry_space_group_name_H-M   'P 1'
_cell_length_a   8.80290422
_cell_length_b   8.80290393
_cell_length_c   22.79816173
_cell_angle_alpha   89.35835880
_cell_angle_beta   90.64164120
_cell_angle_gamma   119.59129371
_symmetry_Int_Tables_number   1
_chemical_formula_structural   NaTaZnSi(SO6)2
_chemical_formula_sum   'Na6 Ta6 Zn6 Si6 S12 O72'
_cell_volume   1536.10125157
_cell_formula_units_Z   6
loop_
 _symmetry_equiv_pos_site_id
 _symmetry_equiv_pos_as_xyz
  1  'x, y, z'
loop_
 _atom_site_type_symbol
 _atom_site_label
 _atom_site_symmetry_multiplicity
 _atom_site_fract_x
 _atom_site_fract_y
 _atom_site_fract_z
 _atom_site_occupancy
  Na  Na0  1  0.98327216  0.99202695  0.49194627  1
  Na  Na1  1  0.00797305  0.01672784  0.99194627  1
  Na  Na2  1  0.67518704  0.31981891  0.82449136  1
  Na  Na3  1  0.68018109  0.32481296  0.32449136  1
  Na  Na4  1  0.32982536  0.64763839  0.15932220  1
  Na  Na5  1  0.35236161  0.67017464  0.65932220  1
  Ta  Ta6  1  0.98052720  0.98892533  0.64574156  1
  Ta  Ta7  1  0.01107467  0.01947280  0.14574156  1
  Ta  Ta8  1  0.66541559  0.33191346  0.97929794  1
  Ta  Ta9  1  0.66808654  0.33458441  0.47929794  1
  Ta  Ta10  1  0.33623701  0.67072317  0.31269977  1
  Ta  Ta11  1  0.32927683  0.66376299  0.81269977  1
  Zn  Zn12  1  0.97632924  0.00746087  0.35189537  1
  Zn  Zn13  1  0.99253913  0.02367076  0.85189537  1
  Zn  Zn14  1  0.66186385  0.32758662  0.68479233  1
  Zn  Zn15  1  0.67241338  0.33813615  0.18479233  1
  Zn  Zn16  1  0.32507505  0.63783506  0.01955801  1
  Zn  Zn17  1  0.36216493  0.67492495  0.51955801  1
  Si  Si18  1  0.99244168  0.29796368  0.25161534  1
  Si  Si19  1  0.70203632  0.00755832  0.75161534  1
  Si  Si20  1  0.65608896  0.61127725  0.58738877  1
  Si  Si21  1  0.38872275  0.34391104  0.08738877  1
  Si  Si22  1  0.04184426  0.36971306  0.91895004  1
  Si  Si23  1  0.63028694  0.95815574  0.41895004  1
  S  S24  1  0.28379728  0.99813058  0.25321314  1
  S  S25  1  0.71152300  0.71169937  0.25173217  1
  S  S26  1  0.28830063  0.28847700  0.75173217  1
  S  S27  1  0.00186942  0.71620272  0.75321314  1
  S  S28  1  0.96114114  0.33678869  0.58368070  1
  S  S29  1  0.37241552  0.04249593  0.58388108  1
  S  S30  1  0.95750407  0.62758448  0.08388108  1
  S  S31  1  0.66321131  0.03885886  0.08368070  1
  S  S32  1  0.62502128  0.66744333  0.91802448  1
  S  S33  1  0.33356286  0.95285572  0.91828007  1
  S  S34  1  0.33255667  0.37497872  0.41802448  1
  S  S35  1  0.04714428  0.66643714  0.41828007  1
  O  O36  1  0.19698475  0.01105871  0.30475934  1
  O  O37  1  0.81419209  0.78777189  0.30418261  1
  O  O38  1  0.97549254  0.18571685  0.30734602  1
  O  O39  1  0.21222811  0.18580791  0.80418261  1
  O  O40  1  0.98894129  0.80301525  0.80475934  1
  O  O41  1  0.81428315  0.02450746  0.80734602  1
  O  O42  1  0.80280566  0.97410894  0.69187275  1
  O  O43  1  0.17852070  0.20852034  0.69765647  1
  O  O44  1  0.03174239  0.82867747  0.69768708  1
  O  O45  1  0.79147966  0.82147930  0.19765647  1
  O  O46  1  0.02589106  0.19719434  0.19187275  1
  O  O47  1  0.17132253  0.96825761  0.19768708  1
  O  O48  1  0.88222278  0.35400114  0.63638421  1
  O  O49  1  0.47816004  0.11521023  0.63588688  1
  O  O50  1  0.65133321  0.50753441  0.64448586  1
  O  O51  1  0.88478977  0.52183996  0.13588688  1
  O  O52  1  0.64599886  0.11777722  0.13638421  1
  O  O53  1  0.49246559  0.34866679  0.14448586  1
  O  O54  1  0.47796690  0.30896678  0.02723131  1
  O  O55  1  0.84265862  0.53572625  0.02979807  1
  O  O56  1  0.70109161  0.15793933  0.02982182  1
  O  O57  1  0.46427375  0.15734138  0.52979807  1
  O  O58  1  0.69103322  0.52203310  0.52723131  1
  O  O59  1  0.84206067  0.29890839  0.52982182  1
  O  O60  1  0.55013138  0.69780263  0.96982168  1
  O  O61  1  0.14927817  0.46547322  0.97505159  1
  O  O62  1  0.31997439  0.85548220  0.97115096  1
  O  O63  1  0.53452678  0.85072183  0.47505159  1
  O  O64  1  0.30219737  0.44986862  0.46982168  1
  O  O65  1  0.14451780  0.68002561  0.47115096  1
  O  O66  1  0.12878244  0.63328016  0.36410894  1
  O  O67  1  0.50067934  0.86071969  0.35898401  1
  O  O68  1  0.36071018  0.48968090  0.36402142  1
  O  O69  1  0.13928031  0.49932066  0.85898401  1
  O  O70  1  0.36671984  0.87121756  0.86410894  1
  O  O71  1  0.51031910  0.63928982  0.86402142  1
  O  O72  1  0.02348161  0.81676621  0.40775942  1
  O  O73  1  0.82207578  0.98325117  0.41442473  1
  O  O74  1  0.19545950  0.19635998  0.40902959  1
  O  O75  1  0.01674883  0.17792422  0.91442473  1
  O  O76  1  0.18323379  0.97651839  0.90775942  1
  O  O77  1  0.80364002  0.80454050  0.90902959  1
  O  O78  1  0.97864936  0.17122453  0.58820293  1
  O  O79  1  0.20175265  0.04530625  0.58815606  1
  O  O80  1  0.84593877  0.81294926  0.59224323  1
  O  O81  1  0.95469375  0.79824735  0.08815606  1
  O  O82  1  0.82877547  0.02135064  0.08820293  1
  O  O83  1  0.18705074  0.15406123  0.09224323  1
  O  O84  1  0.67439716  0.17125639  0.74077205  1
  O  O85  1  0.46717024  0.32388186  0.74549231  1
  O  O86  1  0.85684504  0.54164335  0.74576997  1
  O  O87  1  0.67611814  0.53282976  0.24549231  1
  O  O88  1  0.82874361  0.32560284  0.24077205  1
  O  O89  1  0.45835665  0.14315496  0.24576997  1
  O  O90  1  0.62656863  0.49394741  0.92297137  1
  O  O91  1  0.84353796  0.35812348  0.92494973  1
  O  O92  1  0.49994370  0.13368845  0.92212143  1
  O  O93  1  0.64187652  0.15646204  0.42494973  1
  O  O94  1  0.50605259  0.37343137  0.42297137  1
  O  O95  1  0.86631155  0.50005630  0.42212143  1
  O  O96  1  0.35493626  0.50550291  0.08237405  1
  O  O97  1  0.13691695  0.66636627  0.07508372  1
  O  O98  1  0.51366221  0.86837559  0.07267331  1
  O  O99  1  0.33363373  0.86308305  0.57508372  1
  O  O100  1  0.49449709  0.64506374  0.58237405  1
  O  O101  1  0.13162441  0.48633779  0.57267331  1
  O  O102  1  0.29343306  0.82820657  0.25589338  1
  O  O103  1  0.53128661  0.70278258  0.25686408  1
  O  O104  1  0.17955836  0.49030981  0.25845703  1
  O  O105  1  0.29721742  0.46871339  0.75686408  1
  O  O106  1  0.17179343  0.70656694  0.75589338  1
  O  O107  1  0.50969019  0.82044164  0.75845703  1
