# generated using pymatgen
data_Bi3BrO4
_symmetry_space_group_name_H-M   'P 1'
_cell_length_a   5.73059046
_cell_length_b   5.74487482
_cell_length_c   19.05601092
_cell_angle_alpha   90.00000000
_cell_angle_beta   90.00000000
_cell_angle_gamma   90.00000000
_symmetry_Int_Tables_number   1
_chemical_formula_structural   Bi3BrO4
_chemical_formula_sum   'Bi12 Br4 O16'
_cell_volume   627.35293680
_cell_formula_units_Z   4
loop_
 _symmetry_equiv_pos_site_id
 _symmetry_equiv_pos_as_xyz
  1  'x, y, z'
loop_
 _atom_site_type_symbol
 _atom_site_label
 _atom_site_symmetry_multiplicity
 _atom_site_fract_x
 _atom_site_fract_y
 _atom_site_fract_z
 _atom_site_occupancy
  Bi  Bi0  1  0.29269140  0.70730846  0.64115046  1
  Bi  Bi1  1  0.79269140  0.29269154  0.64115046  1
  Bi  Bi2  1  0.70730860  0.20730846  0.14115046  1
  Bi  Bi3  1  0.79269140  0.20730846  0.85884954  1
  Bi  Bi4  1  0.70730860  0.29269154  0.35884954  1
  Bi  Bi5  1  0.20730860  0.70730846  0.35884954  1
  Bi  Bi6  1  0.29269140  0.79269154  0.85884954  1
  Bi  Bi7  1  0.20730860  0.79269154  0.14115046  1
  Bi  Bi8  1  0.75000000  0.79283217  0.50000000  1
  Bi  Bi9  1  0.75000000  0.70716783  -0.00000000  1
  Bi  Bi10  1  0.25000000  0.20716783  0.50000000  1
  Bi  Bi11  1  0.25000000  0.29283217  -0.00000000  1
  Br  Br12  1  0.73499090  0.75000000  0.25000000  1
  Br  Br13  1  0.26500910  0.25000000  0.75000000  1
  Br  Br14  1  0.76500910  0.75000000  0.75000000  1
  Br  Br15  1  0.23499090  0.25000000  0.25000000  1
  O  O16  1  0.07130887  0.93547769  0.43561196  1
  O  O17  1  0.42869113  0.93547769  0.56438804  1
  O  O18  1  0.07130887  0.56452231  0.06438804  1
  O  O19  1  0.42869113  0.56452231  0.93561196  1
  O  O20  1  0.92869113  0.06452231  0.56438804  1
  O  O21  1  0.57130887  0.06452231  0.43561196  1
  O  O22  1  0.92869113  0.43547769  0.93561196  1
  O  O23  1  0.57130887  0.43547769  0.06438804  1
  O  O24  1  0.98875376  0.46027869  0.41149149  1
  O  O25  1  0.48875376  0.96027869  0.08850851  1
  O  O26  1  0.98875376  0.03972131  0.08850851  1
  O  O27  1  0.51124624  0.03972131  0.91149149  1
  O  O28  1  0.01124624  0.53972131  0.58850851  1
  O  O29  1  0.48875376  0.53972131  0.41149149  1
  O  O30  1  0.01124624  0.96027869  0.91149149  1
  O  O31  1  0.51124624  0.46027869  0.58850851  1
