# generated using pymatgen
data_Na2Hf3MgP4(SO12)2
_symmetry_space_group_name_H-M   'P 1'
_cell_length_a   8.78804168
_cell_length_b   8.79378971
_cell_length_c   23.20848015
_cell_angle_alpha   90.01597149
_cell_angle_beta   89.95960626
_cell_angle_gamma   120.01311225
_symmetry_Int_Tables_number   1
_chemical_formula_structural   Na2Hf3MgP4(SO12)2
_chemical_formula_sum   'Na6 Hf9 Mg3 P12 S6 O72'
_cell_volume   1553.05919476
_cell_formula_units_Z   3
loop_
 _symmetry_equiv_pos_site_id
 _symmetry_equiv_pos_as_xyz
  1  'x, y, z'
loop_
 _atom_site_type_symbol
 _atom_site_label
 _atom_site_symmetry_multiplicity
 _atom_site_fract_x
 _atom_site_fract_y
 _atom_site_fract_z
 _atom_site_occupancy
  Na  Na0  1  0.00052112  0.99338054  0.50743689  1
  Na  Na1  1  0.00644441  0.99825034  0.00401223  1
  Na  Na2  1  0.66223170  0.32630252  0.83157953  1
  Na  Na3  1  0.66770727  0.33257858  0.33870178  1
  Na  Na4  1  0.32828930  0.66134929  0.17080375  1
  Na  Na5  1  0.34400638  0.66983513  0.66414354  1
  Hf  Hf6  1  0.00137957  0.00003614  0.35705247  1
  Hf  Hf7  1  0.00203709  0.00795999  0.85246806  1
  Hf  Hf8  1  0.65237648  0.32462105  0.68521002  1
  Hf  Hf9  1  0.66856392  0.34128365  0.18581019  1
  Hf  Hf10  1  0.66376362  0.33891108  0.97969746  1
  Hf  Hf11  1  0.66036421  0.33594665  0.48017359  1
  Hf  Hf12  1  0.32751717  0.66105196  0.01980794  1
  Hf  Hf13  1  0.34033302  0.67216958  0.51803891  1
  Hf  Hf14  1  0.34014050  0.66838406  0.81290090  1
  Mg  Mg15  1  0.99767794  0.00050657  0.64648124  1
  Mg  Mg16  1  0.00806163  -0.00000445  0.14675876  1
  Mg  Mg17  1  0.33242079  0.66683397  0.31993773  1
  P  P18  1  0.28585318  0.28798687  0.74784102  1
  P  P19  1  0.71411689  0.00260298  0.74766156  1
  P  P20  1  0.36769075  0.03880341  0.58294298  1
  P  P21  1  0.67140515  0.62972958  0.58399295  1
  P  P22  1  0.95735430  0.62923985  0.08372437  1
  P  P23  1  0.37051714  0.32933885  0.08400214  1
  P  P24  1  0.62524742  0.67019271  0.91707806  1
  P  P25  1  0.04223452  0.37716410  0.91627669  1
  P  P26  1  0.33215140  0.95530659  0.91688464  1
  P  P27  1  0.62111767  0.95819489  0.41418629  1
  P  P28  1  0.33444310  0.38166849  0.41451385  1
  P  P29  1  0.04469060  0.66273782  0.41500312  1
  S  S30  1  0.28967040  0.99544447  0.24875842  1
  S  S31  1  0.70781226  0.71450063  0.24866485  1
  S  S32  1  0.00343841  0.29113595  0.24835558  1
  S  S33  1  0.99959960  0.70968524  0.74919552  1
  S  S34  1  0.95715873  0.33212444  0.58357470  1
  S  S35  1  0.66982544  0.04345044  0.08405224  1
  O  O36  1  0.20872316  0.02548817  0.30106322  1
  O  O37  1  0.81785576  0.79395083  0.30104702  1
  O  O38  1  0.97525740  0.18186888  0.30094419  1
  O  O39  1  0.20458462  0.17756570  0.80381339  1
  O  O40  1  0.97448922  0.79046997  0.80222825  1
  O  O41  1  0.82202618  0.02424899  0.80386042  1
  O  O42  1  0.79312028  0.97070447  0.69511019  1
  O  O43  1  0.17856898  0.20557455  0.69498498  1
  O  O44  1  0.02738353  0.81500586  0.69800468  1
  O  O45  1  0.79316777  0.81659850  0.19714892  1
  O  O46  1  0.02113294  0.20530495  0.19699342  1
  O  O47  1  0.18546019  0.97646051  0.19758302  1
  O  O48  1  0.87408072  0.35886117  0.63574075  1
  O  O49  1  0.48715103  0.12552387  0.63717304  1
  O  O50  1  0.64435444  0.51110173  0.63761526  1
  O  O51  1  0.86917772  0.50890371  0.13738176  1
  O  O52  1  0.64118337  0.12728909  0.13574201  1
  O  O53  1  0.49008693  0.35650728  0.13736219  1
  O  O54  1  0.46386395  0.30804827  0.03016621  1
  O  O55  1  0.84513585  0.53252451  0.02993201  1
  O  O56  1  0.69074762  0.14986070  0.03168656  1
  O  O57  1  0.46594325  0.15268568  0.52987116  1
  O  O58  1  0.69007250  0.53504791  0.53019530  1
  O  O59  1  0.85034676  0.31197916  0.53152113  1
  O  O60  1  0.53849235  0.69490403  0.97119071  1
  O  O61  1  0.15556112  0.46203383  0.97074030  1
  O  O62  1  0.30791774  0.84336678  0.97120862  1
  O  O63  1  0.53986556  0.84447182  0.46932772  1
  O  O64  1  0.30469820  0.46212384  0.46979506  1
  O  O65  1  0.15734169  0.69365785  0.46992969  1
  O  O66  1  0.12116020  0.63530968  0.36086262  1
  O  O67  1  0.51474907  0.88040545  0.36068073  1
  O  O68  1  0.36402399  0.48666827  0.36062012  1
  O  O69  1  0.12788365  0.48951069  0.86271062  1
  O  O70  1  0.35840631  0.86918587  0.86306552  1
  O  O71  1  0.51137806  0.64065730  0.86329678  1
  O  O72  1  0.02298793  0.82942846  0.40842236  1
  O  O73  1  0.80772831  0.97698094  0.40794279  1
  O  O74  1  0.16935391  0.19322620  0.40847224  1
  O  O75  1  0.02446561  0.19403225  0.91051564  1
  O  O76  1  0.16819644  0.97420543  0.90988466  1
  O  O77  1  0.80886188  0.83091272  0.90968670  1
  O  O78  1  0.97476795  0.17700690  0.58881960  1
  O  O79  1  0.19033850  0.02415475  0.58914889  1
  O  O80  1  0.83157660  0.80989036  0.58899157  1
  O  O81  1  0.97208747  0.80665871  0.08989592  1
  O  O82  1  0.82390885  0.02522972  0.09073559  1
  O  O83  1  0.19003798  0.17047512  0.08995550  1
  O  O84  1  0.69499188  0.16949204  0.74365744  1
  O  O85  1  0.47525021  0.31260992  0.74437824  1
  O  O86  1  0.84229361  0.53113783  0.74413033  1
  O  O87  1  0.69301193  0.53360805  0.24356866  1
  O  O88  1  0.83819102  0.30574069  0.24291700  1
  O  O89  1  0.46939001  0.15946073  0.24275523  1
  O  O90  1  0.64261824  0.50376877  0.92323981  1
  O  O91  1  0.85796440  0.35468266  0.92433470  1
  O  O92  1  0.49739116  0.13874634  0.92438947  1
  O  O93  1  0.64890954  0.14433456  0.42466517  1
  O  O94  1  0.49474155  0.35378755  0.42334328  1
  O  O95  1  0.85805616  0.50279079  0.42468344  1
  O  O96  1  0.36304474  0.50164954  0.07756524  1
  O  O97  1  0.14062023  0.64335021  0.07770693  1
  O  O98  1  0.50744070  0.86829916  0.07801655  1
  O  O99  1  0.35521126  0.85663820  0.57697598  1
  O  O100  1  0.49892439  0.63769830  0.57729361  1
  O  O101  1  0.13281548  0.49378823  0.57757807  1
  O  O102  1  0.31222329  0.84231877  0.25544821  1
  O  O103  1  0.53095317  0.68865670  0.25519095  1
  O  O104  1  0.15584014  0.46754668  0.25491720  1
  O  O105  1  0.30976053  0.47444750  0.75759156  1
  O  O106  1  0.15741023  0.68926782  0.75737234  1
  O  O107  1  0.52507954  0.84140356  0.75748760  1
