# generated using pymatgen
data_MnSO4
_symmetry_space_group_name_H-M   'P 1'
_cell_length_a   4.81555013
_cell_length_b   4.81555008
_cell_length_c   6.76495096
_cell_angle_alpha   90.00000000
_cell_angle_beta   90.00000000
_cell_angle_gamma   113.52279184
_symmetry_Int_Tables_number   1
_chemical_formula_structural   MnSO4
_chemical_formula_sum   'Mn2 S2 O8'
_cell_volume   143.83980720
_cell_formula_units_Z   2
loop_
 _symmetry_equiv_pos_site_id
 _symmetry_equiv_pos_as_xyz
  1  'x, y, z'
loop_
 _atom_site_type_symbol
 _atom_site_label
 _atom_site_symmetry_multiplicity
 _atom_site_fract_x
 _atom_site_fract_y
 _atom_site_fract_z
 _atom_site_occupancy
  Mn  Mn0  1  -0.00000000  -0.00000000  0.50000000  1
  Mn  Mn1  1  -0.00000000  -0.00000000  -0.00000000  1
  S  S2  1  0.64706960  0.35293040  0.25000000  1
  S  S3  1  0.35293040  0.64706960  0.75000000  1
  O  O4  1  0.23150551  0.30867161  0.75000000  1
  O  O5  1  0.76849449  0.69132839  0.25000000  1
  O  O6  1  0.30867161  0.23150551  0.25000000  1
  O  O7  1  0.69132839  0.76849449  0.75000000  1
  O  O8  1  0.25343688  0.74656312  0.92979640  1
  O  O9  1  0.74656312  0.25343688  0.42979640  1
  O  O10  1  0.74656312  0.25343688  0.07020360  1
  O  O11  1  0.25343688  0.74656312  0.57020360  1
