# generated using pymatgen
data_Br2O
_symmetry_space_group_name_H-M   'P 1'
_cell_length_a   3.98991338
_cell_length_b   6.97427077
_cell_length_c   10.26897850
_cell_angle_alpha   90.00000000
_cell_angle_beta   90.00000000
_cell_angle_gamma   90.00000000
_symmetry_Int_Tables_number   1
_chemical_formula_structural   Br2O
_chemical_formula_sum   'Br8 O4'
_cell_volume   285.75215639
_cell_formula_units_Z   4
loop_
 _symmetry_equiv_pos_site_id
 _symmetry_equiv_pos_as_xyz
  1  'x, y, z'
loop_
 _atom_site_type_symbol
 _atom_site_label
 _atom_site_symmetry_multiplicity
 _atom_site_fract_x
 _atom_site_fract_y
 _atom_site_fract_z
 _atom_site_occupancy
  Br  Br0  1  0.62757709  0.31954501  0.50586828  1
  Br  Br1  1  0.37242291  0.81954501  0.49413172  1
  Br  Br2  1  0.87242291  0.31954501  0.00586828  1
  Br  Br3  1  0.12757709  0.81954501  0.99413172  1
  Br  Br4  1  0.07964678  0.50178461  0.22120195  1
  Br  Br5  1  0.92035322  0.00178461  0.77879805  1
  Br  Br6  1  0.42035322  0.50178461  0.72120195  1
  Br  Br7  1  0.57964678  0.00178461  0.27879805  1
  O  O8  1  0.32238189  0.70057038  0.14832494  1
  O  O9  1  0.67761811  0.20057038  0.85167506  1
  O  O10  1  0.17761811  0.70057038  0.64832494  1
  O  O11  1  0.82238189  0.20057038  0.35167506  1
