# generated using pymatgen
data_Na6Ca2Ta4Si3(PO6)6
_symmetry_space_group_name_H-M   'P 1'
_cell_length_a   9.05943720
_cell_length_b   9.05943689
_cell_length_c   22.80338453
_cell_angle_alpha   89.99415030
_cell_angle_beta   90.00584969
_cell_angle_gamma   120.22849108
_symmetry_Int_Tables_number   1
_chemical_formula_structural   Na6Ca2Ta4Si3(PO6)6
_chemical_formula_sum   'Na12 Ca4 Ta8 Si6 P12 O72'
_cell_volume   1617.06627119
_cell_formula_units_Z   2
loop_
 _symmetry_equiv_pos_site_id
 _symmetry_equiv_pos_as_xyz
  1  'x, y, z'
loop_
 _atom_site_type_symbol
 _atom_site_label
 _atom_site_symmetry_multiplicity
 _atom_site_fract_x
 _atom_site_fract_y
 _atom_site_fract_z
 _atom_site_occupancy
  Na  Na0  1  0.36448838  0.35022625  0.24428498  1
  Na  Na1  1  0.98400028  0.63375179  0.24183283  1
  Na  Na2  1  0.64977375  0.63551162  0.74428498  1
  Na  Na3  1  0.36624821  0.01599972  0.74183283  1
  Na  Na4  1  0.71234863  0.03168634  0.91394885  1
  Na  Na5  1  0.96831366  0.28765137  0.41394885  1
  Na  Na6  1  0.00763674  0.99409233  0.49577565  1
  Na  Na7  1  0.00590767  0.99236326  0.99577565  1
  Na  Na8  1  0.68116225  0.34524670  0.82842027  1
  Na  Na9  1  0.65475330  0.31883775  0.32842027  1
  Na  Na10  1  0.34351534  0.69088123  0.16277950  1
  Na  Na11  1  0.30911877  0.65648466  0.66277950  1
  Ca  Ca12  1  0.00047023  0.99369535  0.35793136  1
  Ca  Ca13  1  0.00630465  0.99952977  0.85793136  1
  Ca  Ca14  1  0.67450648  0.33002664  0.67800331  1
  Ca  Ca15  1  0.66997336  0.32549352  0.17800331  1
  Ta  Ta16  1  0.00310847  0.00540708  0.64398961  1
  Ta  Ta17  1  0.99459292  0.99689153  0.14398961  1
  Ta  Ta18  1  0.67000132  0.34208381  0.98358409  1
  Ta  Ta19  1  0.65791619  0.32999868  0.48358409  1
  Ta  Ta20  1  0.33675030  0.66628585  0.02086922  1
  Ta  Ta21  1  0.33371415  0.66324970  0.52086922  1
  Ta  Ta22  1  0.34097120  0.67078961  0.31337767  1
  Ta  Ta23  1  0.32921039  0.65902880  0.81337767  1
  Si  Si24  1  0.96216841  0.33233027  0.58221392  1
  Si  Si25  1  0.36563197  0.03131150  0.58617393  1
  Si  Si26  1  0.96868850  0.63436803  0.08617393  1
  Si  Si27  1  0.66766973  0.03783159  0.08221392  1
  Si  Si28  1  0.61649800  0.65276650  0.91771417  1
  Si  Si29  1  0.34723350  0.38350200  0.41771417  1
  P  P30  1  0.28888734  0.99505501  0.25062611  1
  P  P31  1  0.70359984  0.71286476  0.24997059  1
  P  P32  1  0.00587646  0.29683590  0.25348326  1
  P  P33  1  0.28713524  0.29640016  0.74997059  1
  P  P34  1  0.00494499  0.71111266  0.75062611  1
  P  P35  1  0.70316410  0.99412354  0.75348326  1
  P  P36  1  0.66854622  0.63269672  0.58403326  1
  P  P37  1  0.36730328  0.33145378  0.08403326  1
  P  P38  1  0.03886644  0.38707520  0.91902855  1
  P  P39  1  0.34454412  0.95668663  0.91824620  1
  P  P40  1  0.61292480  0.96113356  0.41902855  1
  P  P41  1  0.04331337  0.65545588  0.41824620  1
  O  O42  1  0.20820982  0.01591133  0.30529187  1
  O  O43  1  0.80917877  0.78662844  0.30389895  1
  O  O44  1  0.99200484  0.20684542  0.31078388  1
  O  O45  1  0.21337156  0.19082123  0.80389895  1
  O  O46  1  0.98408867  0.79179018  0.80529187  1
  O  O47  1  0.79315458  0.00799516  0.81078388  1
  O  O48  1  0.79851777  0.96816041  0.69965936  1
  O  O49  1  0.17171190  0.19961472  0.69441070  1
  O  O50  1  0.03104844  0.83134447  0.69577224  1
  O  O51  1  0.80038528  0.82828810  0.19441070  1
  O  O52  1  0.03183959  0.20148223  0.19965936  1
  O  O53  1  0.16865553  0.96895156  0.19577224  1
  O  O54  1  0.91196228  0.38756391  0.64033324  1
  O  O55  1  0.45835067  0.08430423  0.64736093  1
  O  O56  1  0.62403215  0.53683603  0.64098200  1
  O  O57  1  0.91569577  0.54164933  0.14736093  1
  O  O58  1  0.61243609  0.08803772  0.14033324  1
  O  O59  1  0.46316397  0.37596785  0.14098200  1
  O  O60  1  0.46828567  0.30526919  0.03200980  1
  O  O61  1  0.82935707  0.52520351  0.03123983  1
  O  O62  1  0.69487986  0.16384148  0.02426031  1
  O  O63  1  0.47479649  0.17064293  0.53123983  1
  O  O64  1  0.69473081  0.53171433  0.53200980  1
  O  O65  1  0.83615852  0.30512014  0.52426031  1
  O  O66  1  0.49629704  0.65566640  0.96963554  1
  O  O67  1  0.14694672  0.48585164  0.97159224  1
  O  O68  1  0.33546550  0.84374199  0.97033703  1
  O  O69  1  0.51414836  0.85305328  0.47159224  1
  O  O70  1  0.34433360  0.50370296  0.46963554  1
  O  O71  1  0.15625801  0.66453450  0.47033703  1
  O  O72  1  0.13702432  0.63900490  0.36100031  1
  O  O73  1  0.50385598  0.86784020  0.36207359  1
  O  O74  1  0.36543977  0.50263217  0.35679566  1
  O  O75  1  0.13215980  0.49614402  0.86207359  1
  O  O76  1  0.36099510  0.86297568  0.86100031  1
  O  O77  1  0.49736783  0.63456023  0.85679566  1
  O  O78  1  0.02242864  0.80941387  0.41939237  1
  O  O79  1  0.79119665  0.98718047  0.41778452  1
  O  O80  1  0.17232769  0.20693465  0.42095516  1
  O  O81  1  0.01281953  0.20880335  0.91778452  1
  O  O82  1  0.19058613  0.97757136  0.91939237  1
  O  O83  1  0.79306535  0.82767231  0.92095516  1
  O  O84  1  0.97087919  0.15319904  0.59135275  1
  O  O85  1  0.17583354  0.01894147  0.59055108  1
  O  O86  1  0.83508557  0.81055501  0.58935046  1
  O  O87  1  0.98105853  0.82416646  0.09055108  1
  O  O88  1  0.84680096  0.02912081  0.09135275  1
  O  O89  1  0.18944499  0.16491443  0.08935046  1
  O  O90  1  0.66207682  0.13713083  0.74784926  1
  O  O91  1  0.47147183  0.33624756  0.74216689  1
  O  O92  1  0.84892772  0.53400622  0.74437230  1
  O  O93  1  0.66375244  0.52852817  0.24216689  1
  O  O94  1  0.86286917  0.33792318  0.24784926  1
  O  O95  1  0.46599378  0.15107228  0.24437230  1
  O  O96  1  0.62687732  0.47631478  0.92440434  1
  O  O97  1  0.85924613  0.37391896  0.92305459  1
  O  O98  1  0.51662067  0.13031941  0.92208607  1
  O  O99  1  0.62608104  0.14075387  0.42305459  1
  O  O100  1  0.52368522  0.37312268  0.42440434  1
  O  O101  1  0.86968059  0.48337933  0.42208607  1
  O  O102  1  0.33225334  0.47797860  0.06816089  1
  O  O103  1  0.15645181  0.66452841  0.06830744  1
  O  O104  1  0.51600627  0.83986709  0.06708821  1
  O  O105  1  0.33547159  0.84354819  0.56830744  1
  O  O106  1  0.52202140  0.66774666  0.56816089  1
  O  O107  1  0.16013291  0.48399373  0.56708821  1
  O  O108  1  0.29402610  0.82150023  0.25540031  1
  O  O109  1  0.52470766  0.70727001  0.25496510  1
  O  O110  1  0.18364991  0.48088526  0.25570044  1
  O  O111  1  0.29272999  0.47529234  0.75496510  1
  O  O112  1  0.17849977  0.70597390  0.75540031  1
  O  O113  1  0.51911474  0.81635009  0.75570044  1
