# generated using pymatgen
data_Na2Ti3ZnP4(SO12)2
_symmetry_space_group_name_H-M   'P 1'
_cell_length_a   8.62170156
_cell_length_b   8.62720514
_cell_length_c   22.42218009
_cell_angle_alpha   89.95451700
_cell_angle_beta   89.94477046
_cell_angle_gamma   120.02522389
_symmetry_Int_Tables_number   1
_chemical_formula_structural   Na2Ti3ZnP4(SO12)2
_chemical_formula_sum   'Na6 Ti9 Zn3 P12 S6 O72'
_cell_volume   1443.97762350
_cell_formula_units_Z   3
loop_
 _symmetry_equiv_pos_site_id
 _symmetry_equiv_pos_as_xyz
  1  'x, y, z'
loop_
 _atom_site_type_symbol
 _atom_site_label
 _atom_site_symmetry_multiplicity
 _atom_site_fract_x
 _atom_site_fract_y
 _atom_site_fract_z
 _atom_site_occupancy
  Na  Na0  1  0.00004745  0.99666704  0.50576245  1
  Na  Na1  1  0.00316794  0.99848796  0.00245322  1
  Na  Na2  1  0.66598911  0.33030335  0.83243813  1
  Na  Na3  1  0.66768440  0.33219276  0.33600514  1
  Na  Na4  1  0.33129846  0.66505136  0.16951043  1
  Na  Na5  1  0.33720923  0.66679151  0.66525847  1
  Ti  Ti6  1  0.00206568  0.00080245  0.35949035  1
  Ti  Ti7  1  0.00254619  0.01038399  0.85331632  1
  Ti  Ti8  1  0.65027695  0.32369957  0.68575828  1
  Ti  Ti9  1  0.66914646  0.34306901  0.18563410  1
  Ti  Ti10  1  0.66316765  0.33912921  0.97801895  1
  Ti  Ti11  1  0.66091829  0.33653062  0.47957345  1
  Ti  Ti12  1  0.32674749  0.66066071  0.01925891  1
  Ti  Ti13  1  0.34090348  0.67272332  0.51806294  1
  Ti  Ti14  1  0.34093136  0.66913081  0.81375807  1
  Zn  Zn15  1  0.99790043  0.99946849  0.64752015  1
  Zn  Zn16  1  0.00629134  0.00019139  0.14598670  1
  Zn  Zn17  1  0.33233929  0.66681773  0.32012154  1
  P  P18  1  0.28713349  0.29054588  0.74906794  1
  P  P19  1  0.71188736  0.00155292  0.74894955  1
  P  P20  1  0.37481345  0.04166898  0.58196901  1
  P  P21  1  0.66602782  0.62235776  0.58300700  1
  P  P22  1  0.95472673  0.62181104  0.08201727  1
  P  P23  1  0.37806097  0.33492607  0.08244385  1
  P  P24  1  0.62281335  0.67039478  0.91721835  1
  P  P25  1  0.04470248  0.37997391  0.91615885  1
  P  P26  1  0.33195592  0.95301488  0.91691862  1
  P  P27  1  0.62249491  0.95991962  0.41537459  1
  P  P28  1  0.33528359  0.38072476  0.41584023  1
  P  P29  1  0.04354645  0.66291449  0.41627474  1
  S  S30  1  0.29182307  -0.00041517  0.24944063  1
  S  S31  1  0.70998071  0.71239487  0.24912714  1
  S  S32  1  -0.00044263  0.28946517  0.24893684  1
  S  S33  1  0.00069279  0.70876866  0.75058633  1
  S  S34  1  0.95464023  0.33623695  0.58269751  1
  S  S35  1  0.66453859  0.04584984  0.08263189  1
  O  O36  1  0.20700843  0.02866008  0.30356657  1
  O  O37  1  0.82194612  0.79331084  0.30327530  1
  O  O38  1  0.97140582  0.17690886  0.30334865  1
  O  O39  1  0.20041320  0.17143270  0.80595583  1
  O  O40  1  0.97250480  0.79337578  0.80465258  1
  O  O41  1  0.83080077  0.02815601  0.80560281  1
  O  O42  1  0.78078893  0.95889902  0.69369600  1
  O  O43  1  0.17858587  0.21676898  0.69363803  1
  O  O44  1  0.03587634  0.81385099  0.69649735  1
  O  O45  1  0.79048845  0.81477927  0.19482322  1
  O  O46  1  0.02249088  0.20861902  0.19480954  1
  O  O47  1  0.18756608  0.97479917  0.19537346  1
  O  O48  1  0.87054214  0.36157922  0.63753641  1
  O  O49  1  0.49434153  0.13039084  0.63924913  1
  O  O50  1  0.63814926  0.50103155  0.63910137  1
  O  O51  1  0.86589192  0.50199876  0.13876515  1
  O  O52  1  0.63725826  0.12949971  0.13727739  1
  O  O53  1  0.49850491  0.36192152  0.13850284  1
  O  O54  1  0.47400481  0.31240231  0.02712835  1
  O  O55  1  0.83786757  0.52257001  0.02706993  1
  O  O56  1  0.68726395  0.15469453  0.02863387  1
  O  O57  1  0.47555445  0.15957222  0.52781028  1
  O  O58  1  0.68589241  0.52585318  0.52777873  1
  O  O59  1  0.84627425  0.31567906  0.52894283  1
  O  O60  1  0.53383355  0.69740787  0.97290760  1
  O  O61  1  0.16233563  0.46497059  0.97266389  1
  O  O62  1  0.30323513  0.83515951  0.97293808  1
  O  O63  1  0.53718100  0.83738140  0.47144326  1
  O  O64  1  0.30084453  0.46475432  0.47177773  1
  O  O65  1  0.16487842  0.69925672  0.47185766  1
  O  O66  1  0.11066986  0.62564848  0.35944499  1
  O  O67  1  0.51516568  0.88986884  0.35937710  1
  O  O68  1  0.37384634  0.48567350  0.35914192  1
  O  O69  1  0.13179629  0.49630265  0.86118686  1
  O  O70  1  0.36328595  0.86661997  0.86172096  1
  O  O71  1  0.50524571  0.63665550  0.86156975  1
  O  O72  1  0.02412390  0.83484777  0.40907618  1
  O  O73  1  0.81175106  0.97560815  0.40881163  1
  O  O74  1  0.16453641  0.18914131  0.40933292  1
  O  O75  1  0.02761269  0.19296494  0.90988795  1
  O  O76  1  0.16445604  0.97161994  0.90929061  1
  O  O77  1  0.80970629  0.83491475  0.90926630  1
  O  O78  1  0.97258517  0.17690791  0.58613440  1
  O  O79  1  0.19399758  0.02713413  0.58677494  1
  O  O80  1  0.83098233  0.80483684  0.58663450  1
  O  O81  1  0.96915425  0.80290758  0.08629887  1
  O  O82  1  0.82376657  0.02758800  0.08740969  1
  O  O83  1  0.19477872  0.17063945  0.08648323  1
  O  O84  1  0.69412743  0.17182623  0.74433984  1
  O  O85  1  0.47795363  0.31074738  0.74453217  1
  O  O86  1  0.83851187  0.52733061  0.74581583  1
  O  O87  1  0.69696351  0.52798279  0.24390619  1
  O  O88  1  0.82942254  0.30172539  0.24386278  1
  O  O89  1  0.47383383  0.16871954  0.24395698  1
  O  O90  1  0.64025400  0.50026058  0.92385778  1
  O  O91  1  0.85714378  0.35693256  0.92460755  1
  O  O92  1  0.50044690  0.13960907  0.92504767  1
  O  O93  1  0.65438719  0.14897800  0.42769710  1
  O  O94  1  0.49455667  0.34826597  0.42635222  1
  O  O95  1  0.85354626  0.50411334  0.42781625  1
  O  O96  1  0.37066985  0.51008097  0.07633079  1
  O  O97  1  0.14001302  0.63363431  0.07613361  1
  O  O98  1  0.49884684  0.86720807  0.07771647  1
  O  O99  1  0.36534808  0.85764797  0.57613120  1
  O  O100  1  0.49035607  0.62997293  0.57627963  1
  O  O101  1  0.13360328  0.50235582  0.57752247  1
  O  O102  1  0.31720742  0.84433971  0.25551737  1
  O  O103  1  0.52804811  0.68331290  0.25493021  1
  O  O104  1  0.15449340  0.47057698  0.25478132  1
  O  O105  1  0.31426181  0.48012503  0.76082528  1
  O  O106  1  0.16066482  0.68598426  0.75968744  1
  O  O107  1  0.52083895  0.83849917  0.76129728  1
