# generated using pymatgen
data_MgAl2(CoO3)2
_symmetry_space_group_name_H-M   'P 1'
_cell_length_a   5.03620091
_cell_length_b   5.68012718
_cell_length_c   5.03871425
_cell_angle_alpha   89.91704709
_cell_angle_beta   59.96335377
_cell_angle_gamma   116.35110412
_symmetry_Int_Tables_number   1
_chemical_formula_structural   MgAl2(CoO3)2
_chemical_formula_sum   'Mg1 Al2 Co2 O6'
_cell_volume   107.06895005
_cell_formula_units_Z   1
loop_
 _symmetry_equiv_pos_site_id
 _symmetry_equiv_pos_as_xyz
  1  'x, y, z'
loop_
 _atom_site_type_symbol
 _atom_site_label
 _atom_site_symmetry_multiplicity
 _atom_site_fract_x
 _atom_site_fract_y
 _atom_site_fract_z
 _atom_site_occupancy
  Mg  Mg0  1  0.99996900  0.00002400  0.99986300  1
  Al  Al1  1  0.35351800  0.52972900  0.82306300  1
  Al  Al2  1  0.64676700  0.47029100  0.17669200  1
  Co  Co3  1  0.24931500  0.87323200  0.37468500  1
  Co  Co4  1  0.75049000  0.12653600  0.62539800  1
  O  O5  1  0.78293600  0.73076900  0.79763300  1
  O  O6  1  0.84928400  0.26911800  0.94879700  1
  O  O7  1  0.52807000  0.73012400  0.41902700  1
  O  O8  1  0.47219500  0.27063000  0.58112700  1
  O  O9  1  0.15048000  0.73059800  0.05105200  1
  O  O10  1  0.21697700  0.26894700  0.20266400  1
