# generated using pymatgen
data_Hg3(SI)2
_symmetry_space_group_name_H-M   'P 1'
_cell_length_a   11.81976533
_cell_length_b   11.81922609
_cell_length_c   11.81954706
_cell_angle_alpha   131.74941684
_cell_angle_beta   130.44806154
_cell_angle_gamma   71.66013455
_symmetry_Int_Tables_number   1
_chemical_formula_structural   Hg3(SI)2
_chemical_formula_sum   'Hg12 S8 I8'
_cell_volume   917.22800416
_cell_formula_units_Z   4
loop_
 _symmetry_equiv_pos_site_id
 _symmetry_equiv_pos_as_xyz
  1  'x, y, z'
loop_
 _atom_site_type_symbol
 _atom_site_label
 _atom_site_symmetry_multiplicity
 _atom_site_fract_x
 _atom_site_fract_y
 _atom_site_fract_z
 _atom_site_occupancy
  Hg  Hg0  1  0.64759958  0.14757035  0.00007521  1
  Hg  Hg1  1  0.85256323  0.85247865  0.50008363  1
  Hg  Hg2  1  0.35236926  0.85245163  -0.00011707  1
  Hg  Hg3  1  0.14749476  0.14755374  0.49997091  1
  Hg  Hg4  1  0.48371931  0.74957902  0.73327947  1
  Hg  Hg5  1  0.01631654  0.74960044  0.26589669  1
  Hg  Hg6  1  0.98367377  0.25047603  0.73413874  1
  Hg  Hg7  1  0.51632550  0.25047145  0.26679878  1
  Hg  Hg8  1  0.11535868  0.15306640  0.03778604  1
  Hg  Hg9  1  0.38469780  0.42229973  0.03767419  1
  Hg  Hg10  1  0.88464554  0.84698187  0.96227476  1
  Hg  Hg11  1  0.61530752  0.57768345  0.96233699  1
  S  S12  1  0.63275097  0.87562241  0.75657311  1
  S  S13  1  0.86730186  0.62378020  0.24284029  1
  S  S14  1  0.88093010  0.12439835  0.75708467  1
  S  S15  1  0.61910379  0.37624447  0.24354427  1
  S  S16  1  0.36727799  0.12437108  0.24344188  1
  S  S17  1  0.13269729  0.37622753  0.75716263  1
  S  S18  1  0.11908302  0.87559380  0.24289663  1
  S  S19  1  0.38090616  0.62375241  0.75647531  1
  I  I20  1  0.99982981  0.25807303  0.25833142  1
  I  I21  1  0.50016428  0.75840172  0.25819440  1
  I  I22  1  0.00018293  0.74186736  0.74155063  1
  I  I23  1  0.49973723  0.24169146  0.74178870  1
  I  I24  1  0.75005135  0.01492407  0.26490028  1
  I  I25  1  0.25004976  0.98508005  0.73513485  1
  I  I26  1  0.74995377  0.49166624  0.74156518  1
  I  I27  1  0.24991022  0.50809207  0.25831643  1
