# generated using pymatgen
data_NaNbAl(PO4)3
_symmetry_space_group_name_H-M   'P 1'
_cell_length_a   8.58448779
_cell_length_b   8.58448753
_cell_length_c   22.28749522
_cell_angle_alpha   90.00000000
_cell_angle_beta   90.00000000
_cell_angle_gamma   120.00000105
_symmetry_Int_Tables_number   1
_chemical_formula_structural   NaNbAl(PO4)3
_chemical_formula_sum   'Na6 Nb6 Al6 P18 O72'
_cell_volume   1422.39642290
_cell_formula_units_Z   6
loop_
 _symmetry_equiv_pos_site_id
 _symmetry_equiv_pos_as_xyz
  1  'x, y, z'
loop_
 _atom_site_type_symbol
 _atom_site_label
 _atom_site_symmetry_multiplicity
 _atom_site_fract_x
 _atom_site_fract_y
 _atom_site_fract_z
 _atom_site_occupancy
  Na  Na0  1  0.00000000  0.00000000  0.49355587  1
  Na  Na1  1  0.00000000  0.00000000  0.99355587  1
  Na  Na2  1  0.66666700  0.33333300  0.82688887  1
  Na  Na3  1  0.66666700  0.33333300  0.32688887  1
  Na  Na4  1  0.33333300  0.66666700  0.16022287  1
  Na  Na5  1  0.33333300  0.66666700  0.66022287  1
  Nb  Nb6  1  0.00000000  0.00000000  0.64314302  1
  Nb  Nb7  1  0.00000000  0.00000000  0.14314302  1
  Nb  Nb8  1  0.66666700  0.33333300  0.97647602  1
  Nb  Nb9  1  0.66666700  0.33333300  0.47647602  1
  Nb  Nb10  1  0.33333300  0.66666700  0.30981002  1
  Nb  Nb11  1  0.33333300  0.66666700  0.80981002  1
  Al  Al12  1  0.00000000  0.00000000  0.35371953  1
  Al  Al13  1  0.00000000  0.00000000  0.85371953  1
  Al  Al14  1  0.66666700  0.33333300  0.68705253  1
  Al  Al15  1  0.66666700  0.33333300  0.18705253  1
  Al  Al16  1  0.33333300  0.66666700  0.02038653  1
  Al  Al17  1  0.33333300  0.66666700  0.52038653  1
  P  P18  1  0.29222053  0.01458473  0.25211112  1
  P  P19  1  0.72236420  0.70777947  0.25211112  1
  P  P20  1  0.98541527  0.27763580  0.25211112  1
  P  P21  1  0.29222053  0.27763580  0.75211112  1
  P  P22  1  0.98541527  0.70777947  0.75211112  1
  P  P23  1  0.72236420  0.01458473  0.75211112  1
  P  P24  1  0.95888753  0.34791773  0.58544412  1
  P  P25  1  0.38903120  0.04111247  0.58544412  1
  P  P26  1  0.65208227  0.61096880  0.58544412  1
  P  P27  1  0.95888753  0.61096880  0.08544412  1
  P  P28  1  0.65208227  0.04111247  0.08544412  1
  P  P29  1  0.38903120  0.34791773  0.08544412  1
  P  P30  1  0.62555353  0.68125173  0.91877812  1
  P  P31  1  0.05569720  0.37444647  0.91877812  1
  P  P32  1  0.31874827  0.94430280  0.91877812  1
  P  P33  1  0.62555353  0.94430280  0.41877812  1
  P  P34  1  0.31874827  0.37444647  0.41877812  1
  P  P35  1  0.05569720  0.68125173  0.41877812  1
  O  O36  1  0.20122142  0.03518611  0.30741070  1
  O  O37  1  0.83396469  0.79877858  0.30741070  1
  O  O38  1  0.96481389  0.16603531  0.30741070  1
  O  O39  1  0.20122142  0.16603531  0.80741070  1
  O  O40  1  0.96481389  0.79877858  0.80741070  1
  O  O41  1  0.83396469  0.03518611  0.80741070  1
  O  O42  1  0.80217718  0.97653927  0.69454718  1
  O  O43  1  0.17436209  0.19782282  0.69454718  1
  O  O44  1  0.02346073  0.82563791  0.69454718  1
  O  O45  1  0.80217718  0.82563791  0.19454718  1
  O  O46  1  0.02346073  0.19782282  0.19454718  1
  O  O47  1  0.17436209  0.97653927  0.19454718  1
  O  O48  1  0.86788842  0.36851911  0.64074370  1
  O  O49  1  0.50063169  0.13211158  0.64074370  1
  O  O50  1  0.63148089  0.49936831  0.64074370  1
  O  O51  1  0.86788842  0.49936831  0.14074370  1
  O  O52  1  0.63148089  0.13211158  0.14074370  1
  O  O53  1  0.50063169  0.36851911  0.14074370  1
  O  O54  1  0.46884418  0.30987227  0.02788018  1
  O  O55  1  0.84102909  0.53115582  0.02788018  1
  O  O56  1  0.69012773  0.15897091  0.02788018  1
  O  O57  1  0.46884418  0.15897091  0.52788018  1
  O  O58  1  0.69012773  0.53115582  0.52788018  1
  O  O59  1  0.84102909  0.30987227  0.52788018  1
  O  O60  1  0.53455442  0.70185311  0.97407770  1
  O  O61  1  0.16729769  0.46544558  0.97407770  1
  O  O62  1  0.29814689  0.83270231  0.97407770  1
  O  O63  1  0.53455442  0.83270231  0.47407770  1
  O  O64  1  0.29814689  0.46544558  0.47407770  1
  O  O65  1  0.16729769  0.70185311  0.47407770  1
  O  O66  1  0.13551018  0.64320627  0.36121418  1
  O  O67  1  0.50769509  0.86448982  0.36121418  1
  O  O68  1  0.35679373  0.49230491  0.36121418  1
  O  O69  1  0.13551018  0.49230491  0.86121418  1
  O  O70  1  0.35679373  0.86448982  0.86121418  1
  O  O71  1  0.50769509  0.64320627  0.86121418  1
  O  O72  1  0.03202595  0.84371823  0.40930267  1
  O  O73  1  0.81169228  0.96797405  0.40930267  1
  O  O74  1  0.15628177  0.18830772  0.40930267  1
  O  O75  1  0.03202595  0.18830772  0.90930267  1
  O  O76  1  0.15628177  0.96797405  0.90930267  1
  O  O77  1  0.81169228  0.84371823  0.90930267  1
  O  O78  1  0.97618068  0.17372276  0.58982219  1
  O  O79  1  0.19754208  0.02381932  0.58982219  1
  O  O80  1  0.82627724  0.80245792  0.58982219  1
  O  O81  1  0.97618068  0.80245792  0.08982219  1
  O  O82  1  0.82627724  0.02381932  0.08982219  1
  O  O83  1  0.19754208  0.17372276  0.08982219  1
  O  O84  1  0.69869295  0.17705123  0.74263567  1
  O  O85  1  0.47835928  0.30130705  0.74263567  1
  O  O86  1  0.82294877  0.52164072  0.74263567  1
  O  O87  1  0.69869295  0.52164072  0.24263567  1
  O  O88  1  0.82294877  0.30130705  0.24263567  1
  O  O89  1  0.47835928  0.17705123  0.24263567  1
  O  O90  1  0.64284768  0.50705576  0.92315519  1
  O  O91  1  0.86420908  0.35715232  0.92315519  1
  O  O92  1  0.49294424  0.13579092  0.92315519  1
  O  O93  1  0.64284768  0.13579092  0.42315519  1
  O  O94  1  0.49294424  0.35715232  0.42315519  1
  O  O95  1  0.86420908  0.50705576  0.42315519  1
  O  O96  1  0.36535895  0.51038523  0.07596967  1
  O  O97  1  0.14502528  0.63464105  0.07596967  1
  O  O98  1  0.48961477  0.85497472  0.07596967  1
  O  O99  1  0.36535895  0.85497472  0.57596967  1
  O  O100  1  0.48961477  0.63464105  0.57596967  1
  O  O101  1  0.14502528  0.51038523  0.57596967  1
  O  O102  1  0.30951368  0.84038976  0.25648919  1
  O  O103  1  0.53087508  0.69048632  0.25648919  1
  O  O104  1  0.15961024  0.46912492  0.25648919  1
  O  O105  1  0.30951368  0.46912492  0.75648919  1
  O  O106  1  0.15961024  0.69048632  0.75648919  1
  O  O107  1  0.53087508  0.84038976  0.75648919  1
