# generated using pymatgen
data_NaTa3GaSiP5O24
_symmetry_space_group_name_H-M   'P 1'
_cell_length_a   8.71519199
_cell_length_b   8.71856413
_cell_length_c   22.60040897
_cell_angle_alpha   89.77134250
_cell_angle_beta   90.08383101
_cell_angle_gamma   120.03068261
_symmetry_Int_Tables_number   1
_chemical_formula_structural   NaTa3GaSiP5O24
_chemical_formula_sum   'Na3 Ta9 Ga3 Si3 P15 O72'
_cell_volume   1486.72606706
_cell_formula_units_Z   3
loop_
 _symmetry_equiv_pos_site_id
 _symmetry_equiv_pos_as_xyz
  1  'x, y, z'
loop_
 _atom_site_type_symbol
 _atom_site_label
 _atom_site_symmetry_multiplicity
 _atom_site_fract_x
 _atom_site_fract_y
 _atom_site_fract_z
 _atom_site_occupancy
  Na  Na0  1  0.00093873  0.00021301  0.99263830  1
  Na  Na1  1  0.66410069  0.33226329  0.83927370  1
  Na  Na2  1  0.66792633  0.33430459  0.33838760  1
  Ta  Ta3  1  0.99448084  0.99794087  0.35953044  1
  Ta  Ta4  1  0.00303554  0.00446762  0.64395737  1
  Ta  Ta5  1  0.99753959  0.00170174  0.14410693  1
  Ta  Ta6  1  0.66481051  0.33356647  0.68943771  1
  Ta  Ta7  1  0.66832149  0.33528408  0.18810316  1
  Ta  Ta8  1  0.33378346  0.66661938  0.02057982  1
  Ta  Ta9  1  0.33309518  0.66600457  0.52431034  1
  Ta  Ta10  1  0.33295282  0.66506826  0.30988082  1
  Ta  Ta11  1  0.33321546  0.66513264  0.81071834  1
  Ga  Ga12  1  0.00438130  0.00185572  0.85456177  1
  Ga  Ga13  1  0.66613051  0.33332303  0.97775380  1
  Ga  Ga14  1  0.66709178  0.33434713  0.48040921  1
  Si  Si15  1  0.71605373  0.71458013  0.25098102  1
  Si  Si16  1  0.99833446  0.28349354  0.25056334  1
  Si  Si17  1  0.28046254  0.28009152  0.75344136  1
  P  P18  1  0.28303774  0.00109306  0.25090282  1
  P  P19  1  0.99892458  0.71843280  0.75227010  1
  P  P20  1  0.71952459  0.00081865  0.75208989  1
  P  P21  1  0.94596904  0.33068703  0.58098201  1
  P  P22  1  0.38409402  0.05237489  0.58101551  1
  P  P23  1  0.67008737  0.61689967  0.58088812  1
  P  P24  1  0.95019485  0.61754455  0.07981834  1
  P  P25  1  0.66644941  0.05075122  0.08008688  1
  P  P26  1  0.38353757  0.33199833  0.07982533  1
  P  P27  1  0.62865001  0.66784075  0.91630241  1
  P  P28  1  0.03824778  0.37270182  0.91677615  1
  P  P29  1  0.33344713  0.96100187  0.91643147  1
  P  P30  1  0.61666236  0.96001672  0.41801204  1
  P  P31  1  0.34161912  0.38147137  0.41801040  1
  P  P32  1  0.04100561  0.65911368  0.41793609  1
  O  O33  1  0.20207947  0.03495529  0.30594292  1
  O  O34  1  0.84021940  0.80204475  0.30876904  1
  O  O35  1  0.96756374  0.16117712  0.30848683  1
  O  O36  1  0.20325371  0.15909968  0.81044028  1
  O  O37  1  0.95495982  0.78815110  0.80684702  1
  O  O38  1  0.83134225  0.03807901  0.80695548  1
  O  O39  1  0.79979722  0.97001156  0.69518571  1
  O  O40  1  0.16547734  0.19348619  0.69264641  1
  O  O41  1  0.02563470  0.82856283  0.69525903  1
  O  O42  1  0.80654262  0.83313112  0.19193785  1
  O  O43  1  0.03264206  0.19742586  0.19173727  1
  O  O44  1  0.17154417  0.97047570  0.19448857  1
  O  O45  1  0.86674774  0.36421412  0.63712328  1
  O  O46  1  0.49925978  0.13440720  0.63708114  1
  O  O47  1  0.63586245  0.50025049  0.63698719  1
  O  O48  1  0.86541321  0.50458210  0.13728998  1
  O  O49  1  0.63890623  0.13277271  0.13733645  1
  O  O50  1  0.49387416  0.35980149  0.13726539  1
  O  O51  1  0.46346517  0.29751543  0.02624925  1
  O  O52  1  0.83424697  0.53839116  0.02644895  1
  O  O53  1  0.70386902  0.16624259  0.02631153  1
  O  O54  1  0.46112610  0.16473149  0.52625397  1
  O  O55  1  0.70271594  0.53841540  0.52627104  1
  O  O56  1  0.83523390  0.29782494  0.52606490  1
  O  O57  1  0.53203323  0.69132650  0.97176148  1
  O  O58  1  0.16002641  0.47000434  0.97194124  1
  O  O59  1  0.31162716  0.84016916  0.97205329  1
  O  O60  1  0.52965385  0.83915749  0.47268076  1
  O  O61  1  0.30879326  0.46935131  0.47238308  1
  O  O62  1  0.16101651  0.68980676  0.47265545  1
  O  O63  1  0.13311463  0.63679380  0.36270212  1
  O  O64  1  0.50318741  0.86895844  0.36263763  1
  O  O65  1  0.36447638  0.49855775  0.36269235  1
  O  O66  1  0.13465212  0.49435821  0.86211292  1
  O  O67  1  0.35887572  0.86702243  0.86195022  1
  O  O68  1  0.50703106  0.64288653  0.86181621  1
  O  O69  1  0.03235669  0.83126458  0.40944200  1
  O  O70  1  0.79956939  0.97010095  0.41010928  1
  O  O71  1  0.17269812  0.19901262  0.40856883  1
  O  O72  1  0.02689959  0.19291995  0.91268777  1
  O  O73  1  0.16145629  0.96699994  0.91351882  1
  O  O74  1  0.80790588  0.83745116  0.91089310  1
  O  O75  1  0.97105841  0.16902457  0.59213462  1
  O  O76  1  0.19615282  0.02264461  0.59290241  1
  O  O77  1  0.82777304  0.80249969  0.59349666  1
  O  O78  1  0.97823201  0.80661106  0.09026961  1
  O  O79  1  0.83117060  0.02529100  0.08946178  1
  O  O80  1  0.19531110  0.16767559  0.08958148  1
  O  O81  1  0.69576185  0.16515801  0.74022883  1
  O  O82  1  0.48098302  0.30981124  0.74064640  1
  O  O83  1  0.83903698  0.52746351  0.74023812  1
  O  O84  1  0.68798268  0.51673841  0.24180649  1
  O  O85  1  0.82276099  0.30188054  0.24169342  1
  O  O86  1  0.46940799  0.16433951  0.24143634  1
  O  O87  1  0.63756231  0.49775284  0.92247718  1
  O  O88  1  0.85939995  0.36456358  0.92264002  1
  O  O89  1  0.50292071  0.14086529  0.92284576  1
  O  O90  1  0.63981314  0.14365815  0.42365732  1
  O  O91  1  0.50504737  0.36263101  0.42340949  1
  O  O92  1  0.85768029  0.49720109  0.42361056  1
  O  O93  1  0.36068486  0.49653968  0.07308447  1
  O  O94  1  0.13643217  0.63755671  0.07335079  1
  O  O95  1  0.50317509  0.86278683  0.07335056  1
  O  O96  1  0.36207232  0.86448976  0.57315679  1
  O  O97  1  0.50291380  0.63723612  0.57296866  1
  O  O98  1  0.13539094  0.49497795  0.57294038  1
  O  O99  1  0.30446381  0.83847279  0.26067576  1
  O  O100  1  0.52480135  0.69784034  0.26117078  1
  O  O101  1  0.16697930  0.47883777  0.26100964  1
  O  O102  1  0.30836675  0.47932287  0.76055282  1
  O  O103  1  0.16428511  0.69787702  0.76001858  1
  O  O104  1  0.53045621  0.84002320  0.75988168  1
