# generated using pymatgen
data_Na7ZrZn3P5SO24
_symmetry_space_group_name_H-M   'P 1'
_cell_length_a   9.07183810
_cell_length_b   9.05229883
_cell_length_c   22.18245648
_cell_angle_alpha   89.31914007
_cell_angle_beta   90.44837248
_cell_angle_gamma   119.88765293
_symmetry_Int_Tables_number   1
_chemical_formula_structural   Na7ZrZn3P5SO24
_chemical_formula_sum   'Na21 Zr3 Zn9 P15 S3 O72'
_cell_volume   1579.25869390
_cell_formula_units_Z   3
loop_
 _symmetry_equiv_pos_site_id
 _symmetry_equiv_pos_as_xyz
  1  'x, y, z'
loop_
 _atom_site_type_symbol
 _atom_site_label
 _atom_site_symmetry_multiplicity
 _atom_site_fract_x
 _atom_site_fract_y
 _atom_site_fract_z
 _atom_site_occupancy
  Na  Na0  1  0.62387570  0.99612355  0.25102104  1
  Na  Na1  1  0.36872901  0.36259960  0.25287094  1
  Na  Na2  1  0.00831390  0.63907936  0.24900289  1
  Na  Na3  1  0.64634744  0.63417166  0.74384067  1
  Na  Na4  1  0.99075194  0.35479134  0.74579701  1
  Na  Na5  1  0.29687765  0.33984294  0.58788392  1
  Na  Na6  1  0.03128602  0.70197365  0.58868069  1
  Na  Na7  1  0.67504723  0.96103069  0.58510264  1
  Na  Na8  1  0.29239420  0.95755482  0.08220059  1
  Na  Na9  1  0.66435874  0.70154013  0.07946905  1
  Na  Na10  1  0.03965427  0.33585541  0.07976780  1
  Na  Na11  1  0.97381055  0.67913707  0.90675707  1
  Na  Na12  1  0.32091572  0.29387213  0.90683271  1
  Na  Na13  1  0.32314859  0.02098971  0.40897123  1
  Na  Na14  1  0.69854639  0.67869627  0.41409719  1
  Na  Na15  1  0.99460505  0.01739854  0.49697568  1
  Na  Na16  1  0.98381711  -0.00024816  0.99442285  1
  Na  Na17  1  0.64820268  0.29895604  0.82409437  1
  Na  Na18  1  0.67222342  0.32468957  0.32888004  1
  Na  Na19  1  0.33279023  0.67182514  0.16378765  1
  Na  Na20  1  0.33442086  0.67199685  0.66265287  1
  Zr  Zr21  1  0.66785527  0.32845255  0.98095159  1
  Zr  Zr22  1  0.67931140  0.33905005  0.47918431  1
  Zr  Zr23  1  0.33566118  0.67599196  0.81340777  1
  Zn  Zn24  1  0.01089691  0.00936881  0.35312422  1
  Zn  Zn25  1  0.99636227  0.00220856  0.84497425  1
  Zn  Zn26  1  0.99492397  0.00288108  0.66089943  1
  Zn  Zn27  1  0.00970129  0.99834577  0.14699367  1
  Zn  Zn28  1  0.67079343  0.33732580  0.68591489  1
  Zn  Zn29  1  0.65424634  0.31977164  0.17453982  1
  Zn  Zn30  1  0.33784259  0.66884337  0.01315158  1
  Zn  Zn31  1  0.32960524  0.65354975  0.50841638  1
  Zn  Zn32  1  0.32737955  0.67204644  0.32776359  1
  P  P33  1  0.29882893  0.99856382  0.24993587  1
  P  P34  1  0.30050227  0.29671795  0.75038074  1
  P  P35  1  0.99891494  0.70479794  0.74934717  1
  P  P36  1  0.70603523  0.00437472  0.74662967  1
  P  P37  1  0.96995330  0.33605461  0.58811689  1
  P  P38  1  0.66471366  0.63165699  0.58450110  1
  P  P39  1  0.96174165  0.62815033  0.08752863  1
  P  P40  1  0.66772295  0.03061601  0.08931779  1
  P  P41  1  0.36798056  0.33547582  0.08609612  1
  P  P42  1  0.63421502  0.67228793  0.91954753  1
  P  P43  1  0.03862505  0.36781142  0.91947032  1
  P  P44  1  0.32800031  0.96153387  0.92165536  1
  P  P45  1  0.63309015  0.96250433  0.41594018  1
  P  P46  1  0.33142068  0.36730747  0.41597223  1
  P  P47  1  0.03970775  0.67250346  0.41553001  1
  S  S48  1  0.70298277  0.70271502  0.25032248  1
  S  S49  1  0.99985896  0.29530479  0.24840139  1
  S  S50  1  0.37176684  0.03805734  0.58337029  1
  O  O51  1  0.21334897  0.02146149  0.30635810  1
  O  O52  1  0.80137599  0.78865988  0.30545673  1
  O  O53  1  0.97809335  0.18496865  0.30102990  1
  O  O54  1  0.21655979  0.20021736  0.80863378  1
  O  O55  1  0.98356230  0.79053516  0.80629712  1
  O  O56  1  0.82147177  0.03024319  0.80033528  1
  O  O57  1  0.77039676  0.96511889  0.68783735  1
  O  O58  1  0.19178969  0.22068026  0.69310797  1
  O  O59  1  0.01890102  0.80337878  0.69014709  1
  O  O60  1  0.78628887  0.80404601  0.19495167  1
  O  O61  1  0.01428267  0.21775453  0.19137310  1
  O  O62  1  0.19229770  0.97573594  0.19219711  1
  O  O63  1  0.88921406  0.35836395  0.64500529  1
  O  O64  1  0.47869807  0.12596968  0.63534681  1
  O  O65  1  0.64283647  0.52422254  0.64130297  1
  O  O66  1  0.87537045  0.52277375  0.14473790  1
  O  O67  1  0.64519200  0.10775454  0.14750228  1
  O  O68  1  0.47024632  0.35894887  0.14449667  1
  O  O69  1  0.46717059  0.31821000  0.03114285  1
  O  O70  1  0.85156591  0.53284371  0.03036732  1
  O  O71  1  0.68466026  0.15254193  0.03527169  1
  O  O72  1  0.45644650  0.13483080  0.52556103  1
  O  O73  1  0.67403231  0.53016298  0.52818007  1
  O  O74  1  0.84842243  0.31707908  0.53358892  1
  O  O75  1  0.55307003  0.68506209  0.97790478  1
  O  O76  1  0.13793123  0.45131088  0.97734614  1
  O  O77  1  0.31259274  0.86479220  0.98045379  1
  O  O78  1  0.54746406  0.85628634  0.47298244  1
  O  O79  1  0.31895549  0.44571761  0.47502753  1
  O  O80  1  0.14540787  0.69217266  0.47230231  1
  O  O81  1  0.10929948  0.64584101  0.35642530  1
  O  O82  1  0.52480805  0.88889367  0.35835390  1
  O  O83  1  0.35980867  0.47937054  0.35955561  1
  O  O84  1  0.12835697  0.48494015  0.86340462  1
  O  O85  1  0.34686314  0.86631253  0.86690464  1
  O  O86  1  0.51712914  0.64637465  0.86401598  1
  O  O87  1  0.01125745  0.82725204  0.41338080  1
  O  O88  1  0.81013554  0.98025949  0.41137325  1
  O  O89  1  0.18072443  0.18456391  0.41284070  1
  O  O90  1  0.01953903  0.19111262  0.91430763  1
  O  O91  1  0.17140694  0.98401730  0.91584314  1
  O  O92  1  0.81626377  0.82025709  0.91347209  1
  O  O93  1  0.98453040  0.17294734  0.58603075  1
  O  O94  1  0.20201032  0.02670419  0.58405867  1
  O  O95  1  0.83098269  0.80575006  0.58178364  1
  O  O96  1  0.97083468  0.80368569  0.08534732  1
  O  O97  1  0.83267989  0.02033888  0.08771166  1
  O  O98  1  0.19232768  0.17068145  0.08477729  1
  O  O99  1  0.68277357  0.16062322  0.74265370  1
  O  O100  1  0.48328666  0.32922098  0.74673982  1
  O  O101  1  0.84172346  0.52292792  0.74891923  1
  O  O102  1  0.68977709  0.53005976  0.25015876  1
  O  O103  1  0.84682314  0.31917488  0.24860631  1
  O  O104  1  0.47976890  0.16220058  0.24834127  1
  O  O105  1  0.64210559  0.50115162  0.92049853  1
  O  O106  1  0.86273670  0.36174211  0.92045962  1
  O  O107  1  0.48962670  0.14321654  0.92052521  1
  O  O108  1  0.64605394  0.14210898  0.42124298  1
  O  O109  1  0.49783318  0.35025452  0.41892488  1
  O  O110  1  0.85480929  0.51336063  0.42007114  1
  O  O111  1  0.34908609  0.49528740  0.08102580  1
  O  O112  1  0.14006537  0.64709271  0.08424508  1
  O  O113  1  0.50787815  0.85398209  0.08308069  1
  O  O114  1  0.35092726  0.86347912  0.58166181  1
  O  O115  1  0.50511149  0.65261268  0.58069823  1
  O  O116  1  0.14523900  0.49956234  0.58076693  1
  O  O117  1  0.31703519  0.83543238  0.25279653  1
  O  O118  1  0.52749917  0.68141449  0.25097012  1
  O  O119  1  0.15888813  0.46717175  0.25171332  1
  O  O120  1  0.31576522  0.48025337  0.75425851  1
  O  O121  1  0.15777490  0.67815226  0.75289077  1
  O  O122  1  0.52808466  0.83889143  0.75508963  1
