# generated using pymatgen
data_Na30Ta8Zn16Si15(S7O48)3
_symmetry_space_group_name_H-M   'P 1'
_cell_length_a   18.01789209
_cell_length_b   9.02797249
_cell_length_c   22.28241003
_cell_angle_alpha   89.96355511
_cell_angle_beta   89.60250480
_cell_angle_gamma   119.99258777
_symmetry_Int_Tables_number   1
_chemical_formula_structural   Na30Ta8Zn16Si15(S7O48)3
_chemical_formula_sum   'Na30 Ta8 Zn16 Si15 S21 O144'
_cell_volume   3139.09245465
_cell_formula_units_Z   1
loop_
 _symmetry_equiv_pos_site_id
 _symmetry_equiv_pos_as_xyz
  1  'x, y, z'
loop_
 _atom_site_type_symbol
 _atom_site_label
 _atom_site_symmetry_multiplicity
 _atom_site_fract_x
 _atom_site_fract_y
 _atom_site_fract_z
 _atom_site_occupancy
  Na  Na0  1  0.32320601  0.02378486  0.24680601  1
  Na  Na1  1  0.82358828  0.02217719  0.24765105  1
  Na  Na2  1  0.18673697  0.34879694  0.24794132  1
  Na  Na3  1  0.68527029  0.34872731  0.24775330  1
  Na  Na4  1  0.98850322  0.62581787  0.24850495  1
  Na  Na5  1  0.48745767  0.61790315  0.24217483  1
  Na  Na6  1  0.32259526  0.62296027  0.74808057  1
  Na  Na7  1  0.82539815  0.62560047  0.74893034  1
  Na  Na8  1  0.98766781  0.35493365  0.74397865  1
  Na  Na9  1  0.48732851  0.35507174  0.74328526  1
  Na  Na10  1  0.18466899  0.02361671  0.74843480  1
  Na  Na11  1  0.68644284  0.02394293  0.74827522  1
  Na  Na12  1  0.01354377  0.67887193  0.58762720  1
  Na  Na13  1  0.51370731  0.67885096  0.58683737  1
  Na  Na14  1  0.51365555  0.34719014  0.08468827  1
  Na  Na15  1  0.47811573  0.66650183  0.91722256  1
  Na  Na16  1  0.47801122  0.28902217  0.41840030  1
  Na  Na17  1  0.97779572  0.28867856  0.41961002  1
  Na  Na18  1  0.99858588  0.00353890  0.49672313  1
  Na  Na19  1  0.49905736  0.00365858  0.49616853  1
  Na  Na20  1  0.00038370  0.00068671  0.98955160  1
  Na  Na21  1  0.49812572  0.99352438  0.99392841  1
  Na  Na22  1  0.32676387  0.31970853  0.82940646  1
  Na  Na23  1  0.83488004  0.33617901  0.82999321  1
  Na  Na24  1  0.32857067  0.33426494  0.32939243  1
  Na  Na25  1  0.82673714  0.33271615  0.33101019  1
  Na  Na26  1  0.16708888  0.66601457  0.15476423  1
  Na  Na27  1  0.66642293  0.67967735  0.15438762  1
  Na  Na28  1  0.16599028  0.65347313  0.65623182  1
  Na  Na29  1  0.66670685  0.65412963  0.65563139  1
  Ta  Ta30  1  0.99983495  0.01216297  0.65047018  1
  Ta  Ta31  1  0.49929790  0.01138222  0.65073636  1
  Ta  Ta32  1  0.00027993  0.00038391  0.15024548  1
  Ta  Ta33  1  0.49967437  0.98707920  0.14951195  1
  Ta  Ta34  1  0.16757272  0.66822910  0.31105630  1
  Ta  Ta35  1  0.66682276  0.66574786  0.31093550  1
  Ta  Ta36  1  0.16462058  0.66756273  0.81215524  1
  Ta  Ta37  1  0.66787891  0.66580901  0.81179322  1
  Zn  Zn38  1  0.00012164  0.99713344  0.33970646  1
  Zn  Zn39  1  0.50099888  0.99616173  0.33991902  1
  Zn  Zn40  1  0.00162508  0.00396054  0.84151055  1
  Zn  Zn41  1  0.50161049  0.00658035  0.83916705  1
  Zn  Zn42  1  0.33915345  0.33462081  0.68526922  1
  Zn  Zn43  1  0.83963397  0.33405039  0.68514939  1
  Zn  Zn44  1  0.33923834  0.34410127  0.18440426  1
  Zn  Zn45  1  0.83448747  0.33363711  0.18530674  1
  Zn  Zn46  1  0.33299191  0.34314508  0.99046782  1
  Zn  Zn47  1  0.83621019  0.33833174  0.98258517  1
  Zn  Zn48  1  0.33514234  0.32483806  0.49368245  1
  Zn  Zn49  1  0.83490010  0.32441835  0.49410542  1
  Zn  Zn50  1  0.16508117  0.66510170  0.01436035  1
  Zn  Zn51  1  0.66610654  0.67612029  0.01853331  1
  Zn  Zn52  1  0.16487761  0.65536721  0.51889352  1
  Zn  Zn53  1  0.66505171  0.65561079  0.51866121  1
  Si  Si54  1  0.14754914  0.00506640  0.25149735  1
  Si  Si55  1  0.64749884  0.00374571  0.25356765  1
  Si  Si56  1  0.35444002  0.70586734  0.25375435  1
  Si  Si57  1  0.85450199  0.70591522  0.25211549  1
  Si  Si58  1  0.99915369  0.29094429  0.25478017  1
  Si  Si59  1  0.49899681  0.28718256  0.25350998  1
  Si  Si60  1  0.14810601  0.29215912  0.75383980  1
  Si  Si61  1  0.64890715  0.29175199  0.75305911  1
  Si  Si62  1  0.99850247  0.71103158  0.75180725  1
  Si  Si63  1  0.49956421  0.71011879  0.75410830  1
  Si  Si64  1  0.35325134  0.00195899  0.75426870  1
  Si  Si65  1  0.85508850  0.00364282  0.75479887  1
  Si  Si66  1  0.48305952  0.33447583  0.58089714  1
  Si  Si67  1  0.98323130  0.33403432  0.58067597  1
  Si  Si68  1  0.48242677  0.62932614  0.08051138  1
  S  S69  1  0.18298668  0.03749155  0.58348865  1
  S  S70  1  0.68275704  0.03710159  0.58381819  1
  S  S71  1  0.33505914  0.63374722  0.58363592  1
  S  S72  1  0.83496382  0.63368726  0.58347172  1
  S  S73  1  0.98219811  0.63374650  0.08328804  1
  S  S74  1  0.33237183  0.03215532  0.08347247  1
  S  S75  1  0.83748584  0.04184868  0.08329897  1
  S  S76  1  0.18154128  0.33146634  0.08356607  1
  S  S77  1  0.68583975  0.32955494  0.08319464  1
  S  S78  1  0.31084061  0.66440053  0.91806653  1
  S  S79  1  0.81095674  0.66452625  0.92037495  1
  S  S80  1  0.01913592  0.37422575  0.91978929  1
  S  S81  1  0.51987507  0.36923061  0.91860275  1
  S  S82  1  0.16800136  0.96122770  0.91974341  1
  S  S83  1  0.66933865  0.96329097  0.91776603  1
  S  S84  1  0.30945380  0.95419939  0.41907657  1
  S  S85  1  0.80979959  0.95435360  0.41858608  1
  S  S86  1  0.16888058  0.37561199  0.41780198  1
  S  S87  1  0.66917502  0.37516800  0.41803501  1
  S  S88  1  0.01993969  0.67044633  0.41802186  1
  S  S89  1  0.52027149  0.67053307  0.41817899  1
  O  O90  1  0.11109571  0.05487022  0.30841461  1
  O  O91  1  0.61255659  0.05444400  0.31078945  1
  O  O92  1  0.41427769  0.78161031  0.31036992  1
  O  O93  1  0.91520993  0.78043042  0.30862720  1
  O  O94  1  0.48286095  0.18157953  0.31467442  1
  O  O95  1  0.97830422  0.18157792  0.31539038  1
  O  O96  1  0.11300802  0.17167078  0.81102730  1
  O  O97  1  0.61326457  0.17101031  0.81029628  1
  O  O98  1  0.48287122  0.78381507  0.81492791  1
  O  O99  1  0.97791096  0.78969250  0.80858313  1
  O  O100  1  0.41490011  0.04901889  0.81010914  1
  O  O101  1  0.91641971  0.05194159  0.81063196  1
  O  O102  1  0.39944429  0.96038148  0.69540304  1
  O  O103  1  0.90058088  0.96159129  0.69551583  1
  O  O104  1  0.07923965  0.20016129  0.69638537  1
  O  O105  1  0.57915997  0.20000603  0.69628694  1
  O  O106  1  0.01985101  0.83560342  0.69065004  1
  O  O107  1  0.51912660  0.83877682  0.69477390  1
  O  O108  1  0.40071314  0.83856108  0.19508304  1
  O  O109  1  0.90035537  0.84097725  0.19370705  1
  O  O110  1  0.01895558  0.19220926  0.19803692  1
  O  O111  1  0.51877173  0.19870357  0.19412794  1
  O  O112  1  0.07860638  0.95873824  0.19399723  1
  O  O113  1  0.57962964  0.95915165  0.19621367  1
  O  O114  1  0.43904972  0.36522681  0.63946331  1
  O  O115  1  0.93897207  0.36407946  0.63912898  1
  O  O116  1  0.22927013  0.11650802  0.63867477  1
  O  O117  1  0.72916632  0.11634520  0.63886076  1
  O  O118  1  0.32328077  0.53710365  0.63940362  1
  O  O119  1  0.82324082  0.53727805  0.63922344  1
  O  O120  1  0.44007181  0.51373252  0.14030550  1
  O  O121  1  0.94364259  0.53842306  0.13990257  1
  O  O122  1  0.32093419  0.10394908  0.13994692  1
  O  O123  1  0.82763519  0.11728996  0.13986910  1
  O  O124  1  0.22861239  0.34858575  0.13932628  1
  O  O125  1  0.73164217  0.34356761  0.13958683  1
  O  O126  1  0.22068603  0.30349885  0.02988410  1
  O  O127  1  0.72707563  0.30516283  0.03019694  1
  O  O128  1  0.42836482  0.55364445  0.01905905  1
  O  O129  1  0.92922613  0.55196654  0.03059303  1
  O  O130  1  0.34574760  0.14281262  0.03100275  1
  O  O131  1  0.84894555  0.14774721  0.03030806  1
  O  O132  1  0.22187705  0.14319963  0.52899202  1
  O  O133  1  0.72100091  0.14267774  0.52924598  1
  O  O134  1  0.34781942  0.55008191  0.53023226  1
  O  O135  1  0.84741003  0.54943389  0.53010529  1
  O  O136  1  0.43023701  0.30093989  0.51827633  1
  O  O137  1  0.93029826  0.30114882  0.51801484  1
  O  O138  1  0.26655603  0.67500942  0.97176259  1
  O  O139  1  0.76381285  0.67560305  0.97265064  1
  O  O140  1  0.07009914  0.46220329  0.97270153  1
  O  O141  1  0.56816290  0.45392076  0.97311842  1
  O  O142  1  0.16068873  0.85668617  0.97250184  1
  O  O143  1  0.65991058  0.85611265  0.97007224  1
  O  O144  1  0.26285691  0.85224825  0.47112920  1
  O  O145  1  0.76317956  0.85288448  0.47100453  1
  O  O146  1  0.15929374  0.46465831  0.46921723  1
  O  O147  1  0.65990512  0.46531001  0.46940381  1
  O  O148  1  0.06835257  0.68169874  0.47187328  1
  O  O149  1  0.56855375  0.68195312  0.47233627  1
  O  O150  1  0.07102374  0.65558478  0.36311493  1
  O  O151  1  0.57188336  0.65578277  0.36372613  1
  O  O152  1  0.25850490  0.85750999  0.36202512  1
  O  O153  1  0.75935733  0.85787330  0.36169133  1
  O  O154  1  0.17516538  0.48321017  0.36062704  1
  O  O155  1  0.67555362  0.48222654  0.36075796  1
  O  O156  1  0.06777826  0.48583805  0.86388950  1
  O  O157  1  0.57104403  0.48676127  0.86453076  1
  O  O158  1  0.17450857  0.86388122  0.86324791  1
  O  O159  1  0.67586835  0.86862794  0.86151236  1
  O  O160  1  0.25905216  0.65817911  0.86261463  1
  O  O161  1  0.75724270  0.65189173  0.86361782  1
  O  O162  1  0.01254396  0.82387491  0.41213421  1
  O  O163  1  0.51274385  0.82354745  0.41241593  1
  O  O164  1  0.39571344  0.97446437  0.41606119  1
  O  O165  1  0.89613117  0.97432872  0.41591970  1
  O  O166  1  0.08928469  0.20875455  0.41365396  1
  O  O167  1  0.58963384  0.20861289  0.41442208  1
  O  O168  1  0.01184094  0.20669097  0.91457907  1
  O  O169  1  0.51227882  0.20121007  0.91300702  1
  O  O170  1  0.09098013  0.97455379  0.91502371  1
  O  O171  1  0.59006269  0.97215686  0.91408930  1
  O  O172  1  0.39726816  0.81603021  0.91513177  1
  O  O173  1  0.89492627  0.81736973  0.91574324  1
  O  O174  1  0.49171680  0.15675417  0.59099846  1
  O  O175  1  0.99211448  0.15657427  0.59013546  1
  O  O176  1  0.09254349  0.01260115  0.58681857  1
  O  O177  1  0.59185776  0.01063398  0.58771672  1
  O  O178  1  0.41978532  0.80457873  0.58779072  1
  O  O179  1  0.91929268  0.80476215  0.58720901  1
  O  O180  1  0.49184132  0.82550467  0.09073074  1
  O  O181  1  0.98949347  0.81051947  0.08841349  1
  O  O182  1  0.41684404  0.02841814  0.08781202  1
  O  O183  1  0.91932696  0.02903670  0.08834212  1
  O  O184  1  0.09241417  0.16972633  0.08896126  1
  O  O185  1  0.59517152  0.17284249  0.08733468  1
  O  O186  1  0.33072398  0.14977521  0.74285992  1
  O  O187  1  0.83152585  0.14978585  0.74292598  1
  O  O188  1  0.24315208  0.33242561  0.73801130  1
  O  O189  1  0.74392747  0.33275515  0.73770396  1
  O  O190  1  0.42128142  0.51913707  0.74545345  1
  O  O191  1  0.92205480  0.51779898  0.74399638  1
  O  O192  1  0.33188972  0.51278388  0.24302341  1
  O  O193  1  0.83394217  0.51408029  0.23995480  1
  O  O194  1  0.42059260  0.32198931  0.24528270  1
  O  O195  1  0.92310351  0.32939759  0.24136849  1
  O  O196  1  0.24294180  0.15501714  0.23718889  1
  O  O197  1  0.74340952  0.15387586  0.23994687  1
  O  O198  1  0.31600092  0.50527695  0.91534632  1
  O  O199  1  0.81466947  0.50390256  0.91958614  1
  O  O200  1  0.43679874  0.36537186  0.91575021  1
  O  O201  1  0.93504353  0.36745161  0.91932590  1
  O  O202  1  0.24844860  0.12789977  0.91934455  1
  O  O203  1  0.74804650  0.13118357  0.91820224  1
  O  O204  1  0.31425762  0.12283064  0.41537922  1
  O  O205  1  0.81482443  0.12317629  0.41520715  1
  O  O206  1  0.24763297  0.36528653  0.41814501  1
  O  O207  1  0.74792800  0.36495597  0.41847085  1
  O  O208  1  0.43737028  0.50846514  0.41503412  1
  O  O209  1  0.93696940  0.50858130  0.41485759  1
  O  O210  1  0.16812286  0.48007664  0.07799164  1
  O  O211  1  0.67276157  0.47904766  0.07867869  1
  O  O212  1  0.07018863  0.66047476  0.07821460  1
  O  O213  1  0.57823317  0.64974129  0.07720598  1
  O  O214  1  0.26047635  0.85542630  0.07705072  1
  O  O215  1  0.76432726  0.86586266  0.07869109  1
  O  O216  1  0.17106773  0.86302122  0.57810445  1
  O  O217  1  0.67093632  0.86263896  0.57830713  1
  O  O218  1  0.26461467  0.66986023  0.57722173  1
  O  O219  1  0.76417843  0.66932219  0.57706342  1
  O  O220  1  0.07866226  0.50600246  0.57771603  1
  O  O221  1  0.57846650  0.50600658  0.57773671  1
  O  O222  1  0.14959608  0.82076040  0.25941453  1
  O  O223  1  0.65068751  0.82082197  0.25975449  1
  O  O224  1  0.26049552  0.70447281  0.25836411  1
  O  O225  1  0.76039063  0.70138920  0.25836983  1
  O  O226  1  0.09078100  0.48048297  0.25922089  1
  O  O227  1  0.59007591  0.48126582  0.25942170  1
  O  O228  1  0.14988433  0.48008394  0.76091742  1
  O  O229  1  0.65050317  0.47939303  0.76018890  1
  O  O230  1  0.09009033  0.70093192  0.75965695  1
  O  O231  1  0.59074619  0.69882661  0.76030698  1
  O  O232  1  0.25979742  0.81701181  0.76016933  1
  O  O233  1  0.76152661  0.81695495  0.76018346  1
