# generated using pymatgen
data_CsCuCl3
_symmetry_space_group_name_H-M   'P 1'
_cell_length_a   7.44686057
_cell_length_b   7.27283726
_cell_length_c   6.47977483
_cell_angle_alpha   89.07892484
_cell_angle_beta   91.92712137
_cell_angle_gamma   120.78409151
_symmetry_Int_Tables_number   1
_chemical_formula_structural   CsCuCl3
_chemical_formula_sum   'Cs2 Cu2 Cl6'
_cell_volume   301.32535201
_cell_formula_units_Z   2
loop_
 _symmetry_equiv_pos_site_id
 _symmetry_equiv_pos_as_xyz
  1  'x, y, z'
loop_
 _atom_site_type_symbol
 _atom_site_label
 _atom_site_symmetry_multiplicity
 _atom_site_fract_x
 _atom_site_fract_y
 _atom_site_fract_z
 _atom_site_occupancy
  Cs  Cs0  1  0.66031768  0.32015076  0.27205308  1
  Cs  Cs1  1  0.34034860  0.67986563  0.77162796  1
  Cu  Cu2  1  0.00007959  0.00021152  0.02060672  1
  Cu  Cu3  1  0.99983145  0.99977075  0.52060651  1
  Cl  Cl4  1  0.85206478  0.16720115  0.84103326  1
  Cl  Cl5  1  0.13656872  0.27344434  0.27125598  1
  Cl  Cl6  1  0.68476153  0.83288278  0.34061346  1
  Cl  Cl7  1  0.14799126  0.83326047  0.20066180  1
  Cl  Cl8  1  0.86320688  0.72654875  0.77045459  1
  Cl  Cl9  1  0.31482952  0.16666385  0.70108465  1
