# generated using pymatgen
data_Na3YTi3(PO4)6
_symmetry_space_group_name_H-M   'P 1'
_cell_length_a   8.82126085
_cell_length_b   8.83514887
_cell_length_c   22.58601581
_cell_angle_alpha   89.91828411
_cell_angle_beta   90.07784103
_cell_angle_gamma   120.32635466
_symmetry_Int_Tables_number   1
_chemical_formula_structural   Na3YTi3(PO4)6
_chemical_formula_sum   'Na9 Y3 Ti9 P18 O72'
_cell_volume   1519.41571869
_cell_formula_units_Z   3
loop_
 _symmetry_equiv_pos_site_id
 _symmetry_equiv_pos_as_xyz
  1  'x, y, z'
loop_
 _atom_site_type_symbol
 _atom_site_label
 _atom_site_symmetry_multiplicity
 _atom_site_fract_x
 _atom_site_fract_y
 _atom_site_fract_z
 _atom_site_occupancy
  Na  Na0  1  0.36180840  0.35788749  0.24907660  1
  Na  Na1  1  0.63142440  0.62977453  0.75055734  1
  Na  Na2  1  0.96691448  0.29754332  0.41678655  1
  Na  Na3  1  0.00038332  0.99122959  0.50293589  1
  Na  Na4  1  0.99983646  -0.00001427  0.00068662  1
  Na  Na5  1  0.66714788  0.32397610  0.83695894  1
  Na  Na6  1  0.66773925  0.33410558  0.33215188  1
  Na  Na7  1  0.33179246  0.67514870  0.16427967  1
  Na  Na8  1  0.32306801  0.66702890  0.66568753  1
  Y  Y9  1  0.99786062  0.98890373  0.35657683  1
  Y  Y10  1  0.66828216  0.32558548  0.68580445  1
  Y  Y11  1  0.67517769  0.33318366  0.17855781  1
  Ti  Ti12  1  0.00108959  0.00139499  0.85632013  1
  Ti  Ti13  1  0.00295780  0.00359092  0.64638813  1
  Ti  Ti14  1  0.99756517  0.99664052  0.14614470  1
  Ti  Ti15  1  0.66615868  0.33425294  0.98219054  1
  Ti  Ti16  1  0.65853091  0.33413834  0.48339423  1
  Ti  Ti17  1  0.33456874  0.66611095  0.01675660  1
  Ti  Ti18  1  0.33488067  0.66689734  0.52041846  1
  Ti  Ti19  1  0.33570433  0.67558361  0.31283596  1
  Ti  Ti20  1  0.32621382  0.66758790  0.81663829  1
  P  P21  1  0.28820248  0.99134287  0.24865724  1
  P  P22  1  0.70044519  0.70930924  0.24866003  1
  P  P23  1  0.00543469  0.29649921  0.25174752  1
  P  P24  1  0.27677638  0.28795999  0.75277609  1
  P  P25  1  0.01219995  0.72638747  0.75244282  1
  P  P26  1  0.71495325  0.99327264  0.75322707  1
  P  P27  1  0.96452479  0.33189734  0.58043317  1
  P  P28  1  0.36647220  0.03352447  0.58139577  1
  P  P29  1  0.66734370  0.63171470  0.58315797  1
  P  P30  1  0.96953826  0.63541807  0.07913664  1
  P  P31  1  0.66659934  0.03282579  0.07944445  1
  P  P32  1  0.36655415  0.33380543  0.08106441  1
  P  P33  1  0.62052792  0.66416891  0.91581487  1
  P  P34  1  0.04279566  0.37803454  0.91703797  1
  P  P35  1  0.33488955  0.95602599  0.91690366  1
  P  P36  1  0.61008667  0.95741209  0.41944555  1
  P  P37  1  0.34724318  0.39179775  0.41809059  1
  P  P38  1  0.04586834  0.65736089  0.41988692  1
  O  O39  1  0.21443560  0.02714056  0.30439879  1
  O  O40  1  0.80499703  0.78291566  0.30513520  1
  O  O41  1  0.98471255  0.19889167  0.31003797  1
  O  O42  1  0.18445264  0.17368671  0.80725399  1
  O  O43  1  0.98780812  0.81748856  0.80688104  1
  O  O44  1  0.82765964  0.00940129  0.80779079  1
  O  O45  1  0.80232878  0.96839021  0.69638034  1
  O  O46  1  0.16881695  0.19690034  0.69547039  1
  O  O47  1  0.03125496  0.83418797  0.69520072  1
  O  O48  1  0.79982863  0.82713890  0.19379719  1
  O  O49  1  0.03090203  0.19803315  0.19783114  1
  O  O50  1  0.16915936  0.96918889  0.19379597  1
  O  O51  1  0.89621495  0.37236604  0.63617086  1
  O  O52  1  0.47399261  0.10123251  0.63754422  1
  O  O53  1  0.62938471  0.52862832  0.64089297  1
  O  O54  1  0.90901192  0.53233665  0.13626989  1
  O  O55  1  0.62248728  0.09265463  0.13625442  1
  O  O56  1  0.46677102  0.37319946  0.13928542  1
  O  O57  1  0.47071420  0.30753304  0.02944169  1
  O  O58  1  0.83923193  0.53269626  0.02712119  1
  O  O59  1  0.69447160  0.16249104  0.02735624  1
  O  O60  1  0.46669815  0.16130524  0.52826691  1
  O  O61  1  0.69263682  0.52903142  0.53062435  1
  O  O62  1  0.84309492  0.30349616  0.52582799  1
  O  O63  1  0.53034751  0.69271601  0.96911493  1
  O  O64  1  0.16094722  0.46690645  0.97059655  1
  O  O65  1  0.30600270  0.83799328  0.97032254  1
  O  O66  1  0.51764936  0.84282837  0.47304692  1
  O  O67  1  0.32485209  0.48652696  0.47118122  1
  O  O68  1  0.15873514  0.67202315  0.47340481  1
  O  O69  1  0.13388900  0.63434819  0.36288296  1
  O  O70  1  0.50277142  0.86568850  0.36213290  1
  O  O71  1  0.36665691  0.49434400  0.35973797  1
  O  O72  1  0.13521790  0.49713605  0.86140541  1
  O  O73  1  0.36147841  0.86466393  0.86127180  1
  O  O74  1  0.50737259  0.63756138  0.85901187  1
  O  O75  1  0.02621545  0.81817418  0.42058412  1
  O  O76  1  0.79696064  0.98594405  0.41853596  1
  O  O77  1  0.17878944  0.21060437  0.41810930  1
  O  O78  1  0.02456751  0.19529916  0.90876682  1
  O  O79  1  0.17063945  0.97494547  0.90853117  1
  O  O80  1  0.80597503  0.82939431  0.90887721  1
  O  O81  1  0.97852850  0.16405952  0.58877484  1
  O  O82  1  0.18568175  0.02150562  0.58772155  1
  O  O83  1  0.83612054  0.81382923  0.58848699  1
  O  O84  1  0.98058177  0.81588010  0.08631916  1
  O  O85  1  0.83560542  0.02087548  0.08718415  1
  O  O86  1  0.18390840  0.16489663  0.08732631  1
  O  O87  1  0.69605410  0.15490680  0.75187018  1
  O  O88  1  0.46323922  0.31527258  0.75023950  1
  O  O89  1  0.84299523  0.54601140  0.74975880  1
  O  O90  1  0.66319855  0.52119820  0.24303879  1
  O  O91  1  0.85056740  0.32455132  0.24634576  1
  O  O92  1  0.47066011  0.15272433  0.24244155  1
  O  O93  1  0.63855688  0.49949621  0.92430778  1
  O  O94  1  0.86016286  0.36036332  0.92390333  1
  O  O95  1  0.50029818  0.13968715  0.92414602  1
  O  O96  1  0.62889524  0.14183162  0.42410409  1
  O  O97  1  0.51201319  0.37309596  0.42556122  1
  O  O98  1  0.86281065  0.48671378  0.42453308  1
  O  O99  1  0.34388389  0.49293509  0.06786651  1
  O  O100  1  0.15257920  0.65972743  0.06678437  1
  O  O101  1  0.50813759  0.84860176  0.06674511  1
  O  O102  1  0.34064950  0.85013532  0.57017168  1
  O  O103  1  0.50914688  0.65618278  0.57087451  1
  O  O104  1  0.15126398  0.48995431  0.57046957  1
  O  O105  1  0.29879965  0.82203230  0.25601743  1
  O  O106  1  0.51832302  0.69859637  0.25451002  1
  O  O107  1  0.18144037  0.47759074  0.25566736  1
  O  O108  1  0.29564366  0.47250767  0.75771688  1
  O  O109  1  0.17639979  0.70715004  0.75861217  1
  O  O110  1  0.53219280  0.82231378  0.75815426  1
