# generated using pymatgen
data_Na5ZrGa3Si3(SO8)3
_symmetry_space_group_name_H-M   'P 1'
_cell_length_a   8.90200904
_cell_length_b   8.93917503
_cell_length_c   22.30850495
_cell_angle_alpha   89.93381370
_cell_angle_beta   90.90523230
_cell_angle_gamma   120.19143206
_symmetry_Int_Tables_number   1
_chemical_formula_structural   Na5ZrGa3Si3(SO8)3
_chemical_formula_sum   'Na15 Zr3 Ga9 Si9 S9 O72'
_cell_volume   1534.18584546
_cell_formula_units_Z   3
loop_
 _symmetry_equiv_pos_site_id
 _symmetry_equiv_pos_as_xyz
  1  'x, y, z'
loop_
 _atom_site_type_symbol
 _atom_site_label
 _atom_site_symmetry_multiplicity
 _atom_site_fract_x
 _atom_site_fract_y
 _atom_site_fract_z
 _atom_site_occupancy
  Na  Na0  1  0.63850582  0.00024114  0.25596400  1
  Na  Na1  1  0.00288909  0.62428239  0.24838450  1
  Na  Na2  1  0.62814372  0.63294635  0.74262913  1
  Na  Na3  1  0.36990587  0.01151231  0.75557449  1
  Na  Na4  1  0.66782539  0.96008750  0.58679230  1
  Na  Na5  1  0.97412825  0.68525382  0.92225208  1
  Na  Na6  1  0.69159113  0.02061559  0.90916836  1
  Na  Na7  1  0.96113598  0.29929207  0.40658639  1
  Na  Na8  1  0.71050073  0.68468022  0.42207342  1
  Na  Na9  1  0.00694443  0.97914790  0.50287655  1
  Na  Na10  1  0.01229554  0.98958667  0.00092816  1
  Na  Na11  1  0.64386663  0.32143606  0.83029270  1
  Na  Na12  1  0.65729902  0.31976663  0.32920659  1
  Na  Na13  1  0.31401983  0.63700132  0.16137758  1
  Na  Na14  1  0.32224165  0.63470553  0.66176581  1
  Zr  Zr15  1  0.66123998  0.34671347  0.98359782  1
  Zr  Zr16  1  0.67346443  0.34117893  0.48017253  1
  Zr  Zr17  1  0.34376839  0.66504593  0.81091467  1
  Ga  Ga18  1  0.98637203  0.99404725  0.35307157  1
  Ga  Ga19  1  0.00739820  0.01498153  0.85130004  1
  Ga  Ga20  1  0.98107535  0.99234966  0.65200334  1
  Ga  Ga21  1  0.01111389  0.00631652  0.14771583  1
  Ga  Ga22  1  0.64633303  0.33257521  0.68788849  1
  Ga  Ga23  1  0.70522728  0.34409137  0.17845462  1
  Ga  Ga24  1  0.33063237  0.69376609  0.01609477  1
  Ga  Ga25  1  0.35137126  0.68343296  0.51517232  1
  Ga  Ga26  1  0.31311203  0.65514329  0.31744058  1
  Si  Si27  1  0.00855378  0.28760220  0.24954124  1
  Si  Si28  1  0.27644396  0.27808504  0.74567942  1
  Si  Si29  1  0.71714262  0.01682394  0.74863645  1
  Si  Si30  1  0.66553842  0.63278629  0.58616281  1
  Si  Si31  1  0.98336676  0.64879539  0.08667137  1
  Si  Si32  1  0.62618153  0.67606879  0.92082678  1
  Si  Si33  1  0.32489108  0.96331087  0.91399061  1
  Si  Si34  1  0.61873384  0.95212174  0.41224331  1
  Si  Si35  1  0.05635708  0.68158221  0.41561214  1
  S  S36  1  0.29375353  0.00604863  0.24986716  1
  S  S37  1  0.70263609  0.70037650  0.24904113  1
  S  S38  1  0.99207544  0.70451649  0.74904124  1
  S  S39  1  0.96789819  0.33773842  0.58533225  1
  S  S40  1  0.36740877  0.03629172  0.58455137  1
  S  S41  1  0.66875900  0.03651904  0.08621158  1
  S  S42  1  0.37547134  0.33427538  0.08978871  1
  S  S43  1  0.04806438  0.37471335  0.92034326  1
  S  S44  1  0.32812638  0.37582988  0.41563342  1
  O  O45  1  0.21288325  0.02566251  0.30453864  1
  O  O46  1  0.81084255  0.77343539  0.30613549  1
  O  O47  1  0.96864819  0.16993904  0.31073741  1
  O  O48  1  0.20015567  0.15684759  0.80477725  1
  O  O49  1  0.96501016  0.77838203  0.80469809  1
  O  O50  1  0.82338952  0.03280031  0.81112125  1
  O  O51  1  0.78326470  0.95936710  0.68983149  1
  O  O52  1  0.16856546  0.18181051  0.68502232  1
  O  O53  1  0.02229651  0.81496035  0.69606399  1
  O  O54  1  0.79090647  0.81419697  0.19778066  1
  O  O55  1  0.02475997  0.18720740  0.19223448  1
  O  O56  1  0.18164395  0.97237327  0.19604703  1
  O  O57  1  0.87618612  0.35344559  0.63676022  1
  O  O58  1  0.47622700  0.11599303  0.64001715  1
  O  O59  1  0.64552430  0.51485263  0.64470030  1
  O  O60  1  0.89496211  0.53190727  0.14740835  1
  O  O61  1  0.64386641  0.11993799  0.14139749  1
  O  O62  1  0.48729256  0.34628818  0.14235571  1
  O  O63  1  0.45327613  0.30955027  0.03379463  1
  O  O64  1  0.85609865  0.54982912  0.02798605  1
  O  O65  1  0.68289440  0.14041108  0.03257719  1
  O  O66  1  0.46041969  0.14286324  0.53171103  1
  O  O67  1  0.68525513  0.54177369  0.52466781  1
  O  O68  1  0.85960682  0.31270699  0.52815858  1
  O  O69  1  0.52012157  0.69760986  0.97577578  1
  O  O70  1  0.15142393  0.45729118  0.97455496  1
  O  O71  1  0.27683212  0.83269763  0.97055824  1
  O  O72  1  0.54873023  0.83791591  0.47331150  1
  O  O73  1  0.30275699  0.45406359  0.47001227  1
  O  O74  1  0.17037945  0.69273837  0.47454316  1
  O  O75  1  0.11377280  0.62211993  0.35465036  1
  O  O76  1  0.50589233  0.85409523  0.35152243  1
  O  O77  1  0.36192171  0.48454145  0.36173053  1
  O  O78  1  0.12020955  0.47967003  0.86590273  1
  O  O79  1  0.35451178  0.87408753  0.85445960  1
  O  O80  1  0.51846179  0.63797387  0.85702930  1
  O  O81  1  0.02767837  0.84855542  0.40777551  1
  O  O82  1  0.81849468  0.98099166  0.40969612  1
  O  O83  1  0.17326975  0.20206366  0.40938224  1
  O  O84  1  0.02353208  0.20000051  0.91509675  1
  O  O85  1  0.15234056  0.98215203  0.90838494  1
  O  O86  1  0.81769645  0.85046675  0.91519994  1
  O  O87  1  0.97677891  0.17633203  0.58609066  1
  O  O88  1  0.19524152  0.01773759  0.58654710  1
  O  O89  1  0.84123462  0.82933309  0.58956698  1
  O  O90  1  0.99207733  0.83657929  0.09354139  1
  O  O91  1  0.82866487  0.02645521  0.09072612  1
  O  O92  1  0.20008086  0.17707715  0.09136372  1
  O  O93  1  0.69043362  0.18453914  0.74009052  1
  O  O94  1  0.47940973  0.31328419  0.74472844  1
  O  O95  1  0.83620513  0.53021467  0.74289280  1
  O  O96  1  0.68401762  0.52517565  0.24353848  1
  O  O97  1  0.82614301  0.30510472  0.24409104  1
  O  O98  1  0.47033959  0.15991867  0.24404748  1
  O  O99  1  0.66150504  0.51071704  0.92282713  1
  O  O100  1  0.86736853  0.35286448  0.92491168  1
  O  O101  1  0.51176873  0.14430231  0.92321941  1
  O  O102  1  0.64470444  0.14818017  0.41792705  1
  O  O103  1  0.48650577  0.35849818  0.42098086  1
  O  O104  1  0.85377718  0.50976519  0.42235025  1
  O  O105  1  0.36353965  0.49049033  0.08515722  1
  O  O106  1  0.16949882  0.65450891  0.07854332  1
  O  O107  1  0.51277190  0.86233147  0.08295730  1
  O  O108  1  0.35689629  0.86383277  0.58035084  1
  O  O109  1  0.49229973  0.65743735  0.57880536  1
  O  O110  1  0.13998668  0.49268031  0.57934323  1
  O  O111  1  0.31390425  0.84749159  0.25274496  1
  O  O112  1  0.53130812  0.68838747  0.25379992  1
  O  O113  1  0.17551507  0.48859535  0.25502004  1
  O  O114  1  0.30154573  0.47343646  0.74922781  1
  O  O115  1  0.14923628  0.68723152  0.75341434  1
  O  O116  1  0.51613460  0.84233891  0.75221369  1
