# generated using pymatgen
data_NaNbSi3Sn3(SO8)3
_symmetry_space_group_name_H-M   'P 1'
_cell_length_a   8.85464334
_cell_length_b   8.84524267
_cell_length_c   23.07659565
_cell_angle_alpha   89.49797316
_cell_angle_beta   91.03034488
_cell_angle_gamma   119.73739777
_symmetry_Int_Tables_number   1
_chemical_formula_structural   NaNbSi3Sn3(SO8)3
_chemical_formula_sum   'Na3 Nb3 Si9 Sn9 S9 O72'
_cell_volume   1569.11980291
_cell_formula_units_Z   3
loop_
 _symmetry_equiv_pos_site_id
 _symmetry_equiv_pos_as_xyz
  1  'x, y, z'
loop_
 _atom_site_type_symbol
 _atom_site_label
 _atom_site_symmetry_multiplicity
 _atom_site_fract_x
 _atom_site_fract_y
 _atom_site_fract_z
 _atom_site_occupancy
  Na  Na0  1  0.01674690  0.99219487  0.99350252  1
  Na  Na1  1  0.64563869  0.30707871  0.82889162  1
  Na  Na2  1  0.68872390  0.34111639  0.33507384  1
  Nb  Nb3  1  0.00196549  0.00537094  0.64635239  1
  Nb  Nb4  1  0.01349819  0.01270489  0.14245600  1
  Nb  Nb5  1  0.32851931  0.67656426  0.52656563  1
  Si  Si6  1  0.99242970  0.28353558  0.25173023  1
  Si  Si7  1  0.29230761  0.29775025  0.75308176  1
  Si  Si8  1  0.72123255  0.01173455  0.75108066  1
  Si  Si9  1  0.38100141  0.05906845  0.58174747  1
  Si  Si10  1  0.67089918  0.62318796  0.58419696  1
  Si  Si11  1  0.95234437  0.61969454  0.08227577  1
  Si  Si12  1  0.38882168  0.34556605  0.08303090  1
  Si  Si13  1  0.33342011  0.95645978  0.91539796  1
  Si  Si14  1  0.03486843  0.66024692  0.41540371  1
  Sn  Sn15  1  0.99475286  0.99741274  0.35640629  1
  Sn  Sn16  1  0.01432575  0.00817664  0.85004016  1
  Sn  Sn17  1  0.64339702  0.32049744  0.68888131  1
  Sn  Sn18  1  0.67866733  0.34480498  0.18445772  1
  Sn  Sn19  1  0.65298237  0.33071770  0.97998933  1
  Sn  Sn20  1  0.66989445  0.34880402  0.48388632  1
  Sn  Sn21  1  0.31813263  0.66491425  0.02136595  1
  Sn  Sn22  1  0.31230034  0.65122989  0.31154660  1
  Sn  Sn23  1  0.35097476  0.68595211  0.80557122  1
  S  S24  1  0.29424535  0.00339218  0.25057586  1
  S  S25  1  0.70486961  0.70972529  0.25182436  1
  S  S26  1  0.99544295  0.70707856  0.74965204  1
  S  S27  1  0.95616505  0.33395362  0.58349566  1
  S  S28  1  0.66641233  0.04073817  0.08358209  1
  S  S29  1  0.62592870  0.67023000  0.91703592  1
  S  S30  1  0.03791554  0.37366803  0.91644845  1
  S  S31  1  0.61620434  0.95253737  0.41562977  1
  S  S32  1  0.33554382  0.37753071  0.41559445  1
  O  O33  1  0.21526690  0.03054838  0.30268059  1
  O  O34  1  0.81626311  0.78211131  0.30516562  1
  O  O35  1  0.96161323  0.16581936  0.31035185  1
  O  O36  1  0.22454661  0.17484533  0.81070355  1
  O  O37  1  0.96166006  0.77755115  0.80355575  1
  O  O38  1  0.82636441  0.02964927  0.81206731  1
  O  O39  1  0.82104458  0.98824699  0.69525322  1
  O  O40  1  0.17437736  0.19275413  0.69552536  1
  O  O41  1  0.01982552  0.81779964  0.69839335  1
  O  O42  1  0.78815564  0.81089029  0.19992617  1
  O  O43  1  0.00967733  0.17631940  0.19608237  1
  O  O44  1  0.18305124  0.97510681  0.19787626  1
  O  O45  1  0.88465928  0.37285736  0.63369135  1
  O  O46  1  0.50997653  0.12044021  0.63694608  1
  O  O47  1  0.63117013  0.49914790  0.63953859  1
  O  O48  1  0.88150293  0.50742361  0.14146100  1
  O  O49  1  0.63697600  0.11617490  0.13632016  1
  O  O50  1  0.48900935  0.36036623  0.14412104  1
  O  O51  1  0.44808330  0.27835193  0.02747815  1
  O  O52  1  0.82914744  0.53905053  0.02460781  1
  O  O53  1  0.70784016  0.15341406  0.03181978  1
  O  O54  1  0.45931605  0.16277450  0.52117455  1
  O  O55  1  0.72054629  0.56082022  0.52487824  1
  O  O56  1  0.85069120  0.29935598  0.52915547  1
  O  O57  1  0.54600168  0.68866353  0.97031161  1
  O  O58  1  0.14493863  0.44706172  0.97054953  1
  O  O59  1  0.31142252  0.84913798  0.97531928  1
  O  O60  1  0.53159926  0.84468343  0.46709974  1
  O  O61  1  0.31821698  0.46397333  0.46649382  1
  O  O62  1  0.16044945  0.68036519  0.47126688  1
  O  O63  1  0.11668046  0.62858556  0.35660509  1
  O  O64  1  0.51197071  0.87300132  0.36106666  1
  O  O65  1  0.37101809  0.48564675  0.36150196  1
  O  O66  1  0.11851718  0.47682538  0.86485334  1
  O  O67  1  0.35564729  0.86361209  0.85834553  1
  O  O68  1  0.51766684  0.64111987  0.86453697  1
  O  O69  1  0.02460618  0.83960777  0.40862081  1
  O  O70  1  0.78938495  0.96495597  0.41197043  1
  O  O71  1  0.17448269  0.20686321  0.40935151  1
  O  O72  1  0.01375857  0.19372254  0.91416456  1
  O  O73  1  0.15326943  0.97049044  0.91266504  1
  O  O74  1  0.80081816  0.82804359  0.91277638  1
  O  O75  1  0.97866220  0.18099548  0.59036235  1
  O  O76  1  0.18833093  0.02742846  0.59462504  1
  O  O77  1  0.83109277  0.81789778  0.59800509  1
  O  O78  1  0.96722297  0.81375635  0.09565698  1
  O  O79  1  0.82578424  0.02210407  0.09224431  1
  O  O80  1  0.18724581  0.17055729  0.09443769  1
  O  O81  1  0.71858407  0.19468065  0.74521658  1
  O  O82  1  0.48901548  0.32687700  0.74915410  1
  O  O83  1  0.84296175  0.53273083  0.74216455  1
  O  O84  1  0.67742814  0.52820942  0.24853679  1
  O  O85  1  0.81477335  0.30005433  0.24620331  1
  O  O86  1  0.46749799  0.16029435  0.24406380  1
  O  O87  1  0.64802545  0.51220850  0.91969517  1
  O  O88  1  0.86341173  0.36050503  0.92269990  1
  O  O89  1  0.51226384  0.15157715  0.91934648  1
  O  O90  1  0.63604116  0.12857395  0.42032031  1
  O  O91  1  0.48845779  0.34996152  0.41883975  1
  O  O92  1  0.84288244  0.48310616  0.42111307  1
  O  O93  1  0.36690358  0.51231594  0.07188777  1
  O  O94  1  0.14766721  0.65647344  0.07640012  1
  O  O95  1  0.51955703  0.86680166  0.07574259  1
  O  O96  1  0.35487266  0.85922895  0.57010476  1
  O  O97  1  0.49574824  0.63998884  0.56720117  1
  O  O98  1  0.13461795  0.48771858  0.57389803  1
  O  O99  1  0.31396842  0.84694160  0.25577017  1
  O  O100  1  0.53565148  0.70427915  0.25938753  1
  O  O101  1  0.17287837  0.46906164  0.25408991  1
  O  O102  1  0.28469236  0.47612282  0.75976361  1
  O  O103  1  0.15435222  0.69529487  0.75511758  1
  O  O104  1  0.53095592  0.83910323  0.75157379  1
