# generated using pymatgen
data_Na2LaNb3Si4(SO12)2
_symmetry_space_group_name_H-M   'P 1'
_cell_length_a   9.03114116
_cell_length_b   9.08504130
_cell_length_c   23.24539959
_cell_angle_alpha   90.93074576
_cell_angle_beta   90.04400856
_cell_angle_gamma   119.87113526
_symmetry_Int_Tables_number   1
_chemical_formula_structural   Na2LaNb3Si4(SO12)2
_chemical_formula_sum   'Na6 La3 Nb9 Si12 S6 O72'
_cell_volume   1653.55898454
_cell_formula_units_Z   3
loop_
 _symmetry_equiv_pos_site_id
 _symmetry_equiv_pos_as_xyz
  1  'x, y, z'
loop_
 _atom_site_type_symbol
 _atom_site_label
 _atom_site_symmetry_multiplicity
 _atom_site_fract_x
 _atom_site_fract_y
 _atom_site_fract_z
 _atom_site_occupancy
  Na  Na0  1  0.98154998  0.97257555  0.50134282  1
  Na  Na1  1  0.99406387  0.98862248  0.99961884  1
  Na  Na2  1  0.64643748  0.30526262  0.83748305  1
  Na  Na3  1  0.66848725  0.31174611  0.32730561  1
  Na  Na4  1  0.31724366  0.64375862  0.15792666  1
  Na  Na5  1  0.36354610  0.66224861  0.66954056  1
  La  La6  1  0.65457685  0.32953958  0.69748370  1
  La  La7  1  0.67550140  0.33875584  0.18452639  1
  La  La8  1  0.34965655  0.67953613  0.51263065  1
  Nb  Nb9  1  0.99944012  0.00391708  0.35092292  1
  Nb  Nb10  1  0.00302966  0.01434546  0.86221824  1
  Nb  Nb11  1  0.98422886  0.99491773  0.65113776  1
  Nb  Nb12  1  0.02802956  0.01747886  0.14152539  1
  Nb  Nb13  1  0.66283100  0.34829004  0.97666657  1
  Nb  Nb14  1  0.67853569  0.34408937  0.47726963  1
  Nb  Nb15  1  0.32385273  0.66267120  0.01413030  1
  Nb  Nb16  1  0.31728164  0.67984985  0.31036147  1
  Nb  Nb17  1  0.34120959  0.66296011  0.81520725  1
  Si  Si18  1  0.28566638  0.99776622  0.25019151  1
  Si  Si19  1  0.01611355  0.29463166  0.25074930  1
  Si  Si20  1  0.26998009  0.29156173  0.75551427  1
  Si  Si21  1  0.70312031  0.98143253  0.75813295  1
  Si  Si22  1  0.67770811  0.63282473  0.58670266  1
  Si  Si23  1  0.96691360  0.63318163  0.08268295  1
  Si  Si24  1  0.37844108  0.34844189  0.08147574  1
  Si  Si25  1  0.62571081  0.67155964  0.91714697  1
  Si  Si26  1  0.03619567  0.38471605  0.91371119  1
  Si  Si27  1  0.33988023  0.95788946  0.91500546  1
  Si  Si28  1  0.63339940  0.96922902  0.41433131  1
  Si  Si29  1  0.03190854  0.67417979  0.41563747  1
  S  S30  1  0.70337808  0.72557993  0.25130163  1
  S  S31  1  0.02507078  0.73634756  0.75362027  1
  S  S32  1  0.95049448  0.31318256  0.58178508  1
  S  S33  1  0.35771040  0.04879914  0.58075772  1
  S  S34  1  0.66943030  0.02899687  0.07917801  1
  S  S35  1  0.33879490  0.35925582  0.41373008  1
  O  O36  1  0.16272981  0.98021563  0.30384701  1
  O  O37  1  0.79903169  0.82140276  0.30453117  1
  O  O38  1  0.01725831  0.18096236  0.30458712  1
  O  O39  1  0.16187370  0.17674517  0.81021889  1
  O  O40  1  0.02019178  0.82761916  0.80527366  1
  O  O41  1  0.81559611  0.97458069  0.81148998  1
  O  O42  1  0.80100850  0.96901497  0.69552541  1
  O  O43  1  0.16227377  0.18364377  0.69511121  1
  O  O44  1  0.02284318  0.82833507  0.69908533  1
  O  O45  1  0.78858034  0.81824455  0.19917764  1
  O  O46  1  0.02202746  0.19063212  0.19150908  1
  O  O47  1  0.18006783  0.98423121  0.18940058  1
  O  O48  1  0.87145620  0.33123492  0.63374725  1
  O  O49  1  0.45477436  0.12229830  0.63414727  1
  O  O50  1  0.67321372  0.53074552  0.64186424  1
  O  O51  1  0.91692068  0.52980666  0.14071668  1
  O  O52  1  0.63636352  0.08979620  0.13390976  1
  O  O53  1  0.47622318  0.38398424  0.14104971  1
  O  O54  1  0.47496435  0.31038846  0.02725137  1
  O  O55  1  0.83149586  0.52190828  0.02876929  1
  O  O56  1  0.69343971  0.14145266  0.03065721  1
  O  O57  1  0.45625075  0.14640563  0.52941792  1
  O  O58  1  0.68569716  0.51833687  0.52749383  1
  O  O59  1  0.84506531  0.30136546  0.52866875  1
  O  O60  1  0.52742259  0.69622699  0.97093112  1
  O  O61  1  0.15991709  0.47522850  0.96966209  1
  O  O62  1  0.31204221  0.83668002  0.96931522  1
  O  O63  1  0.59305723  0.86549463  0.47233558  1
  O  O64  1  0.29823341  0.41236525  0.46891231  1
  O  O65  1  0.13755358  0.71645308  0.47373075  1
  O  O66  1  0.13197963  0.63698991  0.36061731  1
  O  O67  1  0.49161364  0.85563410  0.36213378  1
  O  O68  1  0.36212733  0.47137846  0.36624981  1
  O  O69  1  0.13373344  0.50231565  0.85820892  1
  O  O70  1  0.36557826  0.86235992  0.85755546  1
  O  O71  1  0.50298275  0.63406866  0.85873812  1
  O  O72  1  0.98276568  0.81987869  0.40205537  1
  O  O73  1  0.82969366  0.02335286  0.39723692  1
  O  O74  1  0.19972187  0.17951554  0.40380630  1
  O  O75  1  0.01517330  0.19279227  0.91134114  1
  O  O76  1  0.17184335  0.98215880  0.90780891  1
  O  O77  1  0.81884058  0.83117768  0.91234502  1
  O  O78  1  0.95147869  0.14720875  0.58316878  1
  O  O79  1  0.19388920  0.05257580  0.58250695  1
  O  O80  1  0.86228594  0.82012419  0.59072107  1
  O  O81  1  0.96978150  0.81765646  0.09126102  1
  O  O82  1  0.82847190  0.01564636  0.08470864  1
  O  O83  1  0.18600252  0.16752936  0.08742255  1
  O  O84  1  0.70054410  0.15514991  0.75989725  1
  O  O85  1  0.45721220  0.31485826  0.76114242  1
  O  O86  1  0.87542108  0.56624556  0.75355106  1
  O  O87  1  0.68862740  0.55768122  0.25470123  1
  O  O88  1  0.85467411  0.32035416  0.25483745  1
  O  O89  1  0.46932073  0.15981866  0.25451623  1
  O  O90  1  0.63727015  0.49661794  0.92463006  1
  O  O91  1  0.84787434  0.36048160  0.92405205  1
  O  O92  1  0.50837448  0.14520277  0.92654341  1
  O  O93  1  0.63489322  0.15067561  0.42616400  1
  O  O94  1  0.49990220  0.34950345  0.42021524  1
  O  O95  1  0.84661788  0.49032005  0.42468747  1
  O  O96  1  0.33913850  0.50170236  0.06845738  1
  O  O97  1  0.16259303  0.67780346  0.06710858  1
  O  O98  1  0.52218388  0.85467901  0.07015764  1
  O  O99  1  0.32001023  0.87097415  0.57777473  1
  O  O100  1  0.51940662  0.66667800  0.58373828  1
  O  O101  1  0.12470736  0.45444207  0.57632906  1
  O  O102  1  0.29475190  0.81697398  0.25469266  1
  O  O103  1  0.53070792  0.71001411  0.25477287  1
  O  O104  1  0.19693610  0.47931951  0.26013943  1
  O  O105  1  0.27344920  0.47438261  0.75566776  1
  O  O106  1  0.18501220  0.72939698  0.75052078  1
  O  O107  1  0.51541583  0.80842050  0.75652708  1
