# generated using pymatgen
data_Ba2Mg(MoO4)2
_symmetry_space_group_name_H-M   'P 1'
_cell_length_a   6.06720343
_cell_length_b   5.59862507
_cell_length_c   7.59344361
_cell_angle_alpha   110.96776730
_cell_angle_beta   111.92592408
_cell_angle_gamma   91.45228453
_symmetry_Int_Tables_number   1
_chemical_formula_structural   Ba2Mg(MoO4)2
_chemical_formula_sum   'Ba2 Mg1 Mo2 O8'
_cell_volume   219.63808807
_cell_formula_units_Z   1
loop_
 _symmetry_equiv_pos_site_id
 _symmetry_equiv_pos_as_xyz
  1  'x, y, z'
loop_
 _atom_site_type_symbol
 _atom_site_label
 _atom_site_symmetry_multiplicity
 _atom_site_fract_x
 _atom_site_fract_y
 _atom_site_fract_z
 _atom_site_occupancy
  Ba  Ba0  1  0.13781900  0.38411300  0.27148700  1
  Ba  Ba1  1  0.88344200  0.63719600  0.76957000  1
  Mg  Mg2  1  0.57628400  0.31593700  0.14254000  1
  Mo  Mo3  1  0.63669300  0.88649600  0.28014200  1
  Mo  Mo4  1  0.35820400  0.10939900  0.71090000  1
  O  O5  1  0.77011000  0.98339800  0.12358400  1
  O  O6  1  0.35197400  0.64024400  0.12082600  1
  O  O7  1  0.45292200  0.81333800  0.57718500  1
  O  O8  1  0.12899200  0.27187200  0.58422600  1
  O  O9  1  0.25972700  0.07378000  0.91483200  1
  O  O10  1  0.65885300  0.34006300  0.90997300  1
  O  O11  1  0.55592500  0.21688800  0.38831000  1
  O  O12  1  0.82429600  0.66061100  0.38142500  1
