# generated using pymatgen
data_Na14Sc4Ga4Si7S5O48
_symmetry_space_group_name_H-M   'P 1'
_cell_length_a   18.05610356
_cell_length_b   9.02470796
_cell_length_c   22.22171543
_cell_angle_alpha   89.88689621
_cell_angle_beta   90.16755964
_cell_angle_gamma   119.98994077
_symmetry_Int_Tables_number   1
_chemical_formula_structural   Na14Sc4Ga4Si7S5O48
_chemical_formula_sum   'Na42 Sc12 Ga12 Si21 S15 O144'
_cell_volume   3136.22698339
_cell_formula_units_Z   3
loop_
 _symmetry_equiv_pos_site_id
 _symmetry_equiv_pos_as_xyz
  1  'x, y, z'
loop_
 _atom_site_type_symbol
 _atom_site_label
 _atom_site_symmetry_multiplicity
 _atom_site_fract_x
 _atom_site_fract_y
 _atom_site_fract_z
 _atom_site_occupancy
  Na  Na0  1  0.81275985  0.99386321  0.24152383  1
  Na  Na1  1  0.18604394  0.36571587  0.25788112  1
  Na  Na2  1  0.68742765  0.36622427  0.25434541  1
  Na  Na3  1  0.99702129  0.64129167  0.24135547  1
  Na  Na4  1  0.50248494  0.64722713  0.24554128  1
  Na  Na5  1  0.31284306  0.63366396  0.75213612  1
  Na  Na6  1  0.00135443  0.35570640  0.74955797  1
  Na  Na7  1  0.49863877  0.35452256  0.74807083  1
  Na  Na8  1  0.18420452  0.00415119  0.75919163  1
  Na  Na9  1  0.68725182  0.00716727  0.76142612  1
  Na  Na10  1  0.14313721  0.33272290  0.58371529  1
  Na  Na11  1  0.64258409  0.33349278  0.58520313  1
  Na  Na12  1  0.33612438  0.97201055  0.57926803  1
  Na  Na13  1  0.83739864  0.97578300  0.58167895  1
  Na  Na14  1  0.14021516  0.95048180  0.08687722  1
  Na  Na15  1  0.65077719  0.95881331  0.08549854  1
  Na  Na16  1  0.33727317  0.69890746  0.08168111  1
  Na  Na17  1  0.83658892  0.71295786  0.07895135  1
  Na  Na18  1  0.48779385  0.68061058  0.92438121  1
  Na  Na19  1  0.98302430  0.67494495  0.92537728  1
  Na  Na20  1  0.34611297  0.02306454  0.91427585  1
  Na  Na21  1  0.84355552  0.02261209  0.92014947  1
  Na  Na22  1  0.16852743  0.29948511  0.90925739  1
  Na  Na23  1  0.67306452  0.30708624  0.91046402  1
  Na  Na24  1  0.48520076  0.29274551  0.41934083  1
  Na  Na25  1  0.98514601  0.29021641  0.42007640  1
  Na  Na26  1  0.16982332  0.03419585  0.40477892  1
  Na  Na27  1  0.66925571  0.03759817  0.40577517  1
  Na  Na28  1  0.34446625  0.66741275  0.40865731  1
  Na  Na29  1  0.84583397  0.66882264  0.41050982  1
  Na  Na30  1  0.99830591  0.00684164  0.49568017  1
  Na  Na31  1  0.49871361  0.00705236  0.49534175  1
  Na  Na32  1  0.99093237  0.99054601  0.00096259  1
  Na  Na33  1  0.50131651  0.99194464  0.99735688  1
  Na  Na34  1  0.32710218  0.32647037  0.83478435  1
  Na  Na35  1  0.82377357  0.33372076  0.83588390  1
  Na  Na36  1  0.32448349  0.31406271  0.33110240  1
  Na  Na37  1  0.82663109  0.32695558  0.32978598  1
  Na  Na38  1  0.16495440  0.67782432  0.17045245  1
  Na  Na39  1  0.66478104  0.67405133  0.16482449  1
  Na  Na40  1  0.15745428  0.65443081  0.67013425  1
  Na  Na41  1  0.66737576  0.65487697  0.67217610  1
  Sc  Sc42  1  0.99816069  0.01421906  0.64988869  1
  Sc  Sc43  1  0.49636019  0.01113008  0.64939666  1
  Sc  Sc44  1  0.99255585  0.98500647  0.14596440  1
  Sc  Sc45  1  0.49958754  0.98150383  0.14950952  1
  Sc  Sc46  1  0.83604243  0.33311000  0.69028530  1
  Sc  Sc47  1  0.33556769  0.33763789  0.18960751  1
  Sc  Sc48  1  0.16345077  0.67247698  0.01675300  1
  Sc  Sc49  1  0.67115741  0.68867050  0.01909149  1
  Sc  Sc50  1  0.16609456  0.65496606  0.51532757  1
  Sc  Sc51  1  0.66435175  0.65499580  0.51652069  1
  Sc  Sc52  1  0.17865201  0.68424453  0.31347580  1
  Sc  Sc53  1  0.68017849  0.67248961  0.81578600  1
  Ga  Ga54  1  -0.00013495  -0.00267823  0.34858530  1
  Ga  Ga55  1  0.50105416  0.00318646  0.34826429  1
  Ga  Ga56  1  0.00114624  0.99904290  0.84982292  1
  Ga  Ga57  1  0.50141203  0.00423189  0.85086810  1
  Ga  Ga58  1  0.33439629  0.32316530  0.68899948  1
  Ga  Ga59  1  0.83379061  0.33341425  0.18328266  1
  Ga  Ga60  1  0.33191594  0.34461190  0.97920491  1
  Ga  Ga61  1  0.83345432  0.33467559  0.98404265  1
  Ga  Ga62  1  0.33203356  0.31880471  0.47941462  1
  Ga  Ga63  1  0.83186247  0.31882219  0.47854974  1
  Ga  Ga64  1  0.68430841  0.68553818  0.31566799  1
  Ga  Ga65  1  0.18195303  0.68034448  0.81764431  1
  Si  Si66  1  0.14427076  0.99801898  0.25052417  1
  Si  Si67  1  0.64910701  0.99715622  0.25317984  1
  Si  Si68  1  0.35460043  0.71015482  0.25148114  1
  Si  Si69  1  0.85226476  0.70052855  0.25177777  1
  Si  Si70  1  0.14995243  0.30078412  0.75050165  1
  Si  Si71  1  0.64569562  0.29402021  0.75105066  1
  Si  Si72  1  0.35186965  0.99963562  0.75196002  1
  Si  Si73  1  0.85464744  0.99827630  0.75140366  1
  Si  Si74  1  0.47627840  0.34163754  0.58443687  1
  Si  Si75  1  0.98007305  0.34116877  0.58174391  1
  Si  Si76  1  0.47903912  0.61876957  0.08158986  1
  Si  Si77  1  0.97785949  0.61351378  0.08427616  1
  Si  Si78  1  0.83680544  0.05589024  0.08283995  1
  Si  Si79  1  0.31686962  0.66866879  0.91668280  1
  Si  Si80  1  0.81989226  0.66678725  0.91936593  1
  Si  Si81  1  0.16681418  0.96564456  0.91503012  1
  Si  Si82  1  0.66560450  0.97101441  0.91500816  1
  Si  Si83  1  0.31892300  0.96757804  0.41956342  1
  Si  Si84  1  0.81666321  0.96445178  0.41713121  1
  Si  Si85  1  0.16717715  0.36152688  0.41691277  1
  Si  Si86  1  0.66699978  0.36860318  0.41580726  1
  S  S87  1  0.99873315  0.28999981  0.25206365  1
  S  S88  1  0.50084264  0.29078884  0.25203843  1
  S  S89  1  0.00098656  0.71093027  0.75147788  1
  S  S90  1  0.49725077  0.70616284  0.74989723  1
  S  S91  1  0.18723428  0.04058626  0.58391089  1
  S  S92  1  0.68578720  0.03974222  0.58203313  1
  S  S93  1  0.33520281  0.61981824  0.58338658  1
  S  S94  1  0.83534096  0.62324577  0.58088426  1
  S  S95  1  0.33521167  0.04753410  0.08078929  1
  S  S96  1  0.18758560  0.33378847  0.08178249  1
  S  S97  1  0.68590318  0.33315390  0.08376798  1
  S  S98  1  0.02226366  0.37675416  0.91297045  1
  S  S99  1  0.51904925  0.37336433  0.91682141  1
  S  S100  1  0.01824926  0.66405976  0.41682487  1
  S  S101  1  0.51974602  0.66546180  0.41565562  1
  O  O102  1  0.10073597  0.03349244  0.31046163  1
  O  O103  1  0.60454818  0.03636751  0.31096738  1
  O  O104  1  0.41530414  0.80325469  0.31054195  1
  O  O105  1  0.91284129  0.78923591  0.31159205  1
  O  O106  1  0.48976921  0.19498242  0.30890261  1
  O  O107  1  0.98627446  0.18852062  0.30816281  1
  O  O108  1  0.10802356  0.17096190  0.80803705  1
  O  O109  1  0.60026391  0.16788838  0.80918528  1
  O  O110  1  0.48370462  0.78113325  0.80519260  1
  O  O111  1  0.99131757  0.78650859  0.80752454  1
  O  O112  1  0.41431989  0.03278875  0.80985068  1
  O  O113  1  0.91861331  0.03117201  0.80858356  1
  O  O114  1  0.39054121  0.96134815  0.69118292  1
  O  O115  1  0.89532985  0.97528180  0.68876052  1
  O  O116  1  0.09248644  0.21858074  0.68947462  1
  O  O117  1  0.58901615  0.20545866  0.68944991  1
  O  O118  1  0.01326566  0.81903254  0.69854731  1
  O  O119  1  0.50958087  0.81312530  0.69672210  1
  O  O120  1  0.39621472  0.81719844  0.18981234  1
  O  O121  1  0.89200968  0.82187168  0.19297651  1
  O  O122  1  0.01242659  0.20942914  0.19937740  1
  O  O123  1  0.51269587  0.20596021  0.19980728  1
  O  O124  1  0.08900026  0.97815811  0.18994860  1
  O  O125  1  0.59020801  0.96285301  0.19273119  1
  O  O126  1  0.42947117  0.35571250  0.64570962  1
  O  O127  1  0.93443218  0.35404500  0.64273298  1
  O  O128  1  0.23917657  0.12264071  0.63883658  1
  O  O129  1  0.73813867  0.12358330  0.63593435  1
  O  O130  1  0.32266872  0.51647728  0.63843393  1
  O  O131  1  0.82238977  0.51562613  0.63393613  1
  O  O132  1  0.43222555  0.51467805  0.14269778  1
  O  O133  1  0.93268518  0.50962724  0.14628549  1
  O  O134  1  0.32206869  0.12893655  0.13383582  1
  O  O135  1  0.81734461  0.13594664  0.14358955  1
  O  O136  1  0.24059158  0.35654839  0.13565788  1
  O  O137  1  0.73753731  0.35803769  0.13918563  1
  O  O138  1  0.22587111  0.30378625  0.02664079  1
  O  O139  1  0.72412273  0.30319469  0.02934658  1
  O  O140  1  0.41635831  0.52776081  0.02246138  1
  O  O141  1  0.91993402  0.52964935  0.02383381  1
  O  O142  1  0.34083348  0.14073229  0.02439873  1
  O  O143  1  0.84288635  0.15869139  0.02073250  1
  O  O144  1  0.22569870  0.14847144  0.52945795  1
  O  O145  1  0.72405574  0.14719465  0.52708873  1
  O  O146  1  0.34110992  0.53674107  0.52796927  1
  O  O147  1  0.84113593  0.54214729  0.52460686  1
  O  O148  1  0.41662473  0.31187130  0.52465786  1
  O  O149  1  0.91823334  0.31011333  0.52239461  1
  O  O150  1  0.27287547  0.69992493  0.97580048  1
  O  O151  1  0.77714496  0.70212206  0.97833844  1
  O  O152  1  0.07566572  0.45959053  0.96662166  1
  O  O153  1  0.57362468  0.45909134  0.96906519  1
  O  O154  1  0.14664402  0.84466651  0.97453875  1
  O  O155  1  0.64502519  0.84694469  0.97383960  1
  O  O156  1  0.27774654  0.85277914  0.48077924  1
  O  O157  1  0.77376869  0.84692786  0.47720690  1
  O  O158  1  0.14794931  0.44542297  0.47643843  1
  O  O159  1  0.64635303  0.44645331  0.47616114  1
  O  O160  1  0.07288276  0.68778215  0.46977986  1
  O  O161  1  0.57362894  0.68875014  0.46907960  1
  O  O162  1  0.05515247  0.63494257  0.36226589  1
  O  O163  1  0.55676627  0.63605352  0.36116532  1
  O  O164  1  0.25098971  0.87737675  0.36505416  1
  O  O165  1  0.75300589  0.88248987  0.35931863  1
  O  O166  1  0.18555037  0.48571881  0.35910758  1
  O  O167  1  0.68459349  0.49738053  0.35824118  1
  O  O168  1  0.06278494  0.48150915  0.85816021  1
  O  O169  1  0.55465885  0.47299676  0.86108365  1
  O  O170  1  0.18541204  0.87500858  0.85672814  1
  O  O171  1  0.68043968  0.87889992  0.85671506  1
  O  O172  1  0.25473952  0.62398735  0.85745554  1
  O  O173  1  0.75359791  0.61880439  0.86297478  1
  O  O174  1  0.01035935  0.82008163  0.41445539  1
  O  O175  1  0.51209498  0.82236063  0.41331262  1
  O  O176  1  0.41315228  0.98250207  0.41065508  1
  O  O177  1  0.91161908  0.98140134  0.40916294  1
  O  O178  1  0.08179567  0.16948830  0.41152066  1
  O  O179  1  0.58262279  0.17574491  0.40941931  1
  O  O180  1  0.01486168  0.20468872  0.91045576  1
  O  O181  1  0.50987376  0.19948994  0.91409795  1
  O  O182  1  0.08312098  0.99107368  0.90823902  1
  O  O183  1  0.57897959  0.99057679  0.90985674  1
  O  O184  1  0.41124430  0.84202100  0.90883063  1
  O  O185  1  0.91410627  0.84252868  0.90953055  1
  O  O186  1  0.48474098  0.16412750  0.58483507  1
  O  O187  1  0.98924558  0.16446158  0.58188892  1
  O  O188  1  0.10074643  0.01962342  0.58869925  1
  O  O189  1  0.59904328  0.01830453  0.58650914  1
  O  O190  1  0.41187824  0.79331193  0.58645797  1
  O  O191  1  0.91201404  0.79582850  0.58504680  1
  O  O192  1  0.48828435  0.81380812  0.08232343  1
  O  O193  1  0.98929680  0.80886566  0.08509610  1
  O  O194  1  0.41191556  0.02906080  0.08518141  1
  O  O195  1  0.91967544  0.02918228  0.08547630  1
  O  O196  1  0.10201661  0.18251150  0.08672894  1
  O  O197  1  0.59974159  0.17809228  0.08932094  1
  O  O198  1  0.34265657  0.17364756  0.74742281  1
  O  O199  1  0.84738890  0.17449631  0.74884057  1
  O  O200  1  0.24801274  0.32694736  0.74131394  1
  O  O201  1  0.73967664  0.31043828  0.74508035  1
  O  O202  1  0.41756966  0.53394193  0.74507318  1
  O  O203  1  0.92453338  0.53806924  0.74664763  1
  O  O204  1  0.34779997  0.51997344  0.24981702  1
  O  O205  1  0.84275925  0.50885189  0.24542941  1
  O  O206  1  0.42430931  0.31085758  0.24718628  1
  O  O207  1  0.92076910  0.30566558  0.24793522  1
  O  O208  1  0.23935888  0.16918621  0.24612483  1
  O  O209  1  0.74486516  0.16810775  0.24652076  1
  O  O210  1  0.32657585  0.49537744  0.92010351  1
  O  O211  1  0.83043278  0.49544129  0.92478727  1
  O  O212  1  0.43075712  0.34918416  0.92220611  1
  O  O213  1  0.93611113  0.35685875  0.91699858  1
  O  O214  1  0.25571514  0.15567718  0.92354030  1
  O  O215  1  0.75254714  0.16055865  0.92222870  1
  O  O216  1  0.33020199  0.16114003  0.42225847  1
  O  O217  1  0.82688281  0.15748777  0.42085016  1
  O  O218  1  0.25616444  0.35078120  0.42693962  1
  O  O219  1  0.75590201  0.35627602  0.42419749  1
  O  O220  1  0.43183614  0.51417702  0.42225933  1
  O  O221  1  0.93053809  0.51225541  0.42288102  1
  O  O222  1  0.18349936  0.49335003  0.07648663  1
  O  O223  1  0.67868638  0.48816614  0.07791814  1
  O  O224  1  0.07674193  0.64567614  0.08141156  1
  O  O225  1  0.57480218  0.64610617  0.07906696  1
  O  O226  1  0.25741405  0.87026948  0.07910408  1
  O  O227  1  0.75139941  0.85964958  0.08140801  1
  O  O228  1  0.18267663  0.87267965  0.57880346  1
  O  O229  1  0.68152809  0.87187296  0.57704657  1
  O  O230  1  0.25738960  0.64123364  0.58143198  1
  O  O231  1  0.75733478  0.64481284  0.57939984  1
  O  O232  1  0.07825196  0.50550265  0.57943431  1
  O  O233  1  0.57485030  0.50362531  0.58167154  1
  O  O234  1  0.14451653  0.81714873  0.25601032  1
  O  O235  1  0.65349992  0.81780531  0.26004822  1
  O  O236  1  0.25602189  0.67199233  0.25228451  1
  O  O237  1  0.75539924  0.67687378  0.25540196  1
  O  O238  1  0.07462314  0.46398448  0.25760214  1
  O  O239  1  0.57782397  0.46582307  0.25589389  1
  O  O240  1  0.15518364  0.48886224  0.75766965  1
  O  O241  1  0.64528911  0.47381311  0.75535339  1
  O  O242  1  0.07811643  0.68921908  0.75476974  1
  O  O243  1  0.57195949  0.68105880  0.75479018  1
  O  O244  1  0.25520220  0.83046551  0.75525986  1
  O  O245  1  0.75637402  0.83929530  0.75256310  1
