# generated using pymatgen
data_MgFeAs2O7
_symmetry_space_group_name_H-M   'P 1'
_cell_length_a   5.50905464
_cell_length_b   5.50862928
_cell_length_c   4.84290975
_cell_angle_alpha   82.64557624
_cell_angle_beta   97.32505389
_cell_angle_gamma   74.11845673
_symmetry_Int_Tables_number   1
_chemical_formula_structural   MgFeAs2O7
_chemical_formula_sum   'Mg1 Fe1 As2 O7'
_cell_volume   138.14674271
_cell_formula_units_Z   1
loop_
 _symmetry_equiv_pos_site_id
 _symmetry_equiv_pos_as_xyz
  1  'x, y, z'
loop_
 _atom_site_type_symbol
 _atom_site_label
 _atom_site_symmetry_multiplicity
 _atom_site_fract_x
 _atom_site_fract_y
 _atom_site_fract_z
 _atom_site_occupancy
  Mg  Mg0  1  0.76070100  0.76087647  0.00011525  1
  Fe  Fe1  1  0.13848869  0.13865098  -0.00027608  1
  As  As2  1  0.68877271  0.21697447  0.40035591  1
  As  As3  1  0.21712510  0.68873539  0.59956046  1
  O  O4  1  0.84598510  0.04525176  0.72523856  1
  O  O5  1  0.85477202  0.37556153  0.20432436  1
  O  O6  1  0.52287105  0.05540144  0.21229188  1
  O  O7  1  0.04536858  0.84612972  0.27477493  1
  O  O8  1  0.37543799  0.85472197  0.79580917  1
  O  O9  1  0.05552764  0.52284913  0.78778785  1
  O  O10  1  0.48302511  0.48292115  0.50001770  1
