# generated using pymatgen
data_NaCaNbSi(SO6)2
_symmetry_space_group_name_H-M   'P 1'
_cell_length_a   9.06879477
_cell_length_b   9.06879445
_cell_length_c   23.31504801
_cell_angle_alpha   90.30582087
_cell_angle_beta   89.69417914
_cell_angle_gamma   119.59219289
_symmetry_Int_Tables_number   1
_chemical_formula_structural   NaCaNbSi(SO6)2
_chemical_formula_sum   'Na6 Ca6 Nb6 Si6 S12 O72'
_cell_volume   1667.35405252
_cell_formula_units_Z   6
loop_
 _symmetry_equiv_pos_site_id
 _symmetry_equiv_pos_as_xyz
  1  'x, y, z'
loop_
 _atom_site_type_symbol
 _atom_site_label
 _atom_site_symmetry_multiplicity
 _atom_site_fract_x
 _atom_site_fract_y
 _atom_site_fract_z
 _atom_site_occupancy
  Na  Na0  1  0.97534270  0.99827926  0.49257543  1
  Na  Na1  1  0.00172074  0.02465730  0.99257543  1
  Na  Na2  1  0.67080549  0.31003911  0.82700593  1
  Na  Na3  1  0.68996089  0.32919451  0.32700593  1
  Na  Na4  1  0.33132688  0.63853864  0.16096930  1
  Na  Na5  1  0.36146136  0.66867312  0.66096930  1
  Ca  Ca6  1  0.99468906  0.00160939  0.35433898  1
  Ca  Ca7  1  0.99839061  0.00531094  0.85433898  1
  Ca  Ca8  1  0.66380602  0.33044311  0.68727982  1
  Ca  Ca9  1  0.66955689  0.33619398  0.18727982  1
  Ca  Ca10  1  0.33124867  0.65996203  0.02071601  1
  Ca  Ca11  1  0.34003797  0.66875133  0.52071601  1
  Nb  Nb12  1  0.97576838  0.98712932  0.64713282  1
  Nb  Nb13  1  0.01287068  0.02423162  0.14713282  1
  Nb  Nb14  1  0.66709927  0.33676207  0.98071581  1
  Nb  Nb15  1  0.66323793  0.33290073  0.48071581  1
  Nb  Nb16  1  0.34011985  0.67480743  0.31380698  1
  Nb  Nb17  1  0.32519257  0.65988015  0.81380698  1
  Si  Si18  1  0.00854664  0.30890872  0.25505627  1
  Si  Si19  1  0.69109128  0.99145336  0.75505627  1
  Si  Si20  1  0.66396506  0.62314913  0.58617141  1
  Si  Si21  1  0.37685087  0.33603494  0.08617141  1
  Si  Si22  1  0.03325639  0.37143364  0.91965605  1
  Si  Si23  1  0.62856636  0.96674361  0.41965605  1
  S  S24  1  0.28520605  0.98780580  0.25028740  1
  S  S25  1  0.70287625  0.71393331  0.25069995  1
  S  S26  1  0.28606669  0.29712375  0.75069995  1
  S  S27  1  0.01219420  0.71479395  0.75028740  1
  S  S28  1  0.95151121  0.32055641  0.58306688  1
  S  S29  1  0.36599513  0.04875815  0.58283196  1
  S  S30  1  0.95124185  0.63400487  0.08283196  1
  S  S31  1  0.67944359  0.04848879  0.08306688  1
  S  S32  1  0.61961040  0.65355576  0.91644087  1
  S  S33  1  0.34721873  0.96392914  0.91731193  1
  S  S34  1  0.34644424  0.38038960  0.41644087  1
  S  S35  1  0.03607086  0.65278127  0.41731193  1
  O  O36  1  0.20797134  0.00514745  0.30217623  1
  O  O37  1  0.79902769  0.78714238  0.30244699  1
  O  O38  1  0.99438997  0.19174928  0.30561034  1
  O  O39  1  0.21285762  0.20097231  0.80244699  1
  O  O40  1  0.99485255  0.79202866  0.80217623  1
  O  O41  1  0.80825072  0.00561003  0.80561034  1
  O  O42  1  0.80304246  0.97072198  0.69298691  1
  O  O43  1  0.17963878  0.21439734  0.69852642  1
  O  O44  1  0.03469913  0.82556002  0.69792297  1
  O  O45  1  0.78560266  0.82036122  0.19852642  1
  O  O46  1  0.02927802  0.19695754  0.19298691  1
  O  O47  1  0.17443998  0.96530087  0.19792297  1
  O  O48  1  0.87486635  0.33724873  0.63514351  1
  O  O49  1  0.46823012  0.12132434  0.63344020  1
  O  O50  1  0.66546176  0.53027402  0.64197525  1
  O  O51  1  0.87867566  0.53176988  0.13344020  1
  O  O52  1  0.66275127  0.12513365  0.13514351  1
  O  O53  1  0.46972598  0.33453824  0.14197525  1
  O  O54  1  0.47766013  0.30940192  0.02748900  1
  O  O55  1  0.84014059  0.53559467  0.02998001  1
  O  O56  1  0.70436880  0.15978509  0.03070391  1
  O  O57  1  0.46440533  0.15985941  0.52998001  1
  O  O58  1  0.69059808  0.52233987  0.52748900  1
  O  O59  1  0.84021491  0.29563120  0.53070391  1
  O  O60  1  0.54992125  0.68382668  0.96811095  1
  O  O61  1  0.13949361  0.47255429  0.97272555  1
  O  O62  1  0.33094266  0.87131691  0.96914490  1
  O  O63  1  0.52744571  0.86050639  0.47272555  1
  O  O64  1  0.31617332  0.45007875  0.46811095  1
  O  O65  1  0.12868309  0.66905734  0.46914490  1
  O  O66  1  0.12657249  0.63157972  0.36462846  1
  O  O67  1  0.49938420  0.85934066  0.36006262  1
  O  O68  1  0.36850261  0.49162405  0.36470495  1
  O  O69  1  0.14065934  0.50061580  0.86006262  1
  O  O70  1  0.36842028  0.87342751  0.86462846  1
  O  O71  1  0.50837595  0.63149739  0.86470495  1
  O  O72  1  0.00890403  0.79613278  0.40907942  1
  O  O73  1  0.81782499  0.00181487  0.41630661  1
  O  O74  1  0.21372219  0.20619766  0.40806217  1
  O  O75  1  -0.00181487  0.18217501  0.91630661  1
  O  O76  1  0.20386722  0.99109597  0.90907942  1
  O  O77  1  0.79380234  0.78627781  0.90806217  1
  O  O78  1  0.96549526  0.15876852  0.58674968  1
  O  O79  1  0.20287637  0.05340587  0.58605170  1
  O  O80  1  0.85532670  0.81964135  0.59309688  1
  O  O81  1  0.94659413  0.79712363  0.08605170  1
  O  O82  1  0.84123148  0.03450474  0.08674968  1
  O  O83  1  0.18035865  0.14467330  0.09309688  1
  O  O84  1  0.65588264  0.14418282  0.74771698  1
  O  O85  1  0.46018248  0.33338178  0.74430426  1
  O  O86  1  0.87322361  0.54324160  0.74301743  1
  O  O87  1  0.66661822  0.53981752  0.24430426  1
  O  O88  1  0.85581718  0.34411736  0.24771698  1
  O  O89  1  0.45675840  0.12677639  0.24301743  1
  O  O90  1  0.62166847  0.48543560  0.92143949  1
  O  O91  1  0.84050934  0.36425537  0.92641605  1
  O  O92  1  0.51017742  0.13563626  0.92053655  1
  O  O93  1  0.63574463  0.15949066  0.42641605  1
  O  O94  1  0.51456440  0.37833153  0.42143949  1
  O  O95  1  0.86436374  0.48982258  0.42053655  1
  O  O96  1  0.33246190  0.48374379  0.08270991  1
  O  O97  1  0.12496728  0.67058425  0.07475807  1
  O  O98  1  0.53633008  0.87994739  0.07473909  1
  O  O99  1  0.32941575  0.87503272  0.57475807  1
  O  O100  1  0.51625621  0.66753810  0.58270991  1
  O  O101  1  0.12005261  0.46366992  0.57473909  1
  O  O102  1  0.29205555  0.82157501  0.25403104  1
  O  O103  1  0.52830449  0.70601569  0.25642914  1
  O  O104  1  0.19294032  0.49340867  0.26071258  1
  O  O105  1  0.29398431  0.47169551  0.75642914  1
  O  O106  1  0.17842499  0.70794445  0.75403104  1
  O  O107  1  0.50659133  0.80705968  0.76071258  1
