# generated using pymatgen
data_Na5La3HfSi3(SO8)3
_symmetry_space_group_name_H-M   'P 1'
_cell_length_a   9.55478481
_cell_length_b   9.53572076
_cell_length_c   23.96581972
_cell_angle_alpha   90.66628157
_cell_angle_beta   89.89648242
_cell_angle_gamma   119.79883665
_symmetry_Int_Tables_number   1
_chemical_formula_structural   Na5La3HfSi3(SO8)3
_chemical_formula_sum   'Na15 La9 Hf3 Si9 S9 O72'
_cell_volume   1894.69894942
_cell_formula_units_Z   3
loop_
 _symmetry_equiv_pos_site_id
 _symmetry_equiv_pos_as_xyz
  1  'x, y, z'
loop_
 _atom_site_type_symbol
 _atom_site_label
 _atom_site_symmetry_multiplicity
 _atom_site_fract_x
 _atom_site_fract_y
 _atom_site_fract_z
 _atom_site_occupancy
  Na  Na0  1  0.65466291  0.01472895  0.25984917  1
  Na  Na1  1  0.99811131  0.61830037  0.24736526  1
  Na  Na2  1  0.62759367  0.64317788  0.74572118  1
  Na  Na3  1  0.36175715  0.01095730  0.76341079  1
  Na  Na4  1  0.66657676  0.94486107  0.58291945  1
  Na  Na5  1  0.98352467  0.69330116  0.92238685  1
  Na  Na6  1  0.68065343  0.00414485  0.91050636  1
  Na  Na7  1  0.95266502  0.30513328  0.40950573  1
  Na  Na8  1  0.70063350  0.68981571  0.43042599  1
  Na  Na9  1  0.99423727  0.96155433  0.50173369  1
  Na  Na10  1  0.00856374  0.97219650  0.99692158  1
  Na  Na11  1  0.63683253  0.31064043  0.83286345  1
  Na  Na12  1  0.67230012  0.31456853  0.33601571  1
  Na  Na13  1  0.27982891  0.62081107  0.16045041  1
  Na  Na14  1  0.33920504  0.62722673  0.67152957  1
  La  La15  1  0.00120558  0.00461780  0.35061785  1
  La  La16  1  0.01099697  0.01829642  0.84872939  1
  La  La17  1  0.99762824  0.00494131  0.65351149  1
  La  La18  1  0.00218916  0.00283942  0.14124177  1
  La  La19  1  0.66522480  0.34163384  0.68490663  1
  La  La20  1  0.68019087  0.34266714  0.17798966  1
  La  La21  1  0.33221047  0.67371906  0.01726584  1
  La  La22  1  0.33425333  0.67199629  0.51550754  1
  La  La23  1  0.31885141  0.66225291  0.32460896  1
  Hf  Hf24  1  0.66255783  0.34613109  0.97851999  1
  Hf  Hf25  1  0.67184334  0.34364769  0.48391340  1
  Hf  Hf26  1  0.35914077  0.67471330  0.81905676  1
  Si  Si27  1  0.00025260  0.30592897  0.25239851  1
  Si  Si28  1  0.30551760  0.31560664  0.75098459  1
  Si  Si29  1  0.68212922  0.99267914  0.75355413  1
  Si  Si30  1  0.67181516  0.63943407  0.58318791  1
  Si  Si31  1  0.96035787  0.63145906  0.08060404  1
  Si  Si32  1  0.63417045  0.66325217  0.91717460  1
  Si  Si33  1  0.34549281  0.97076632  0.91555428  1
  Si  Si34  1  0.64109648  0.98362142  0.41737498  1
  Si  Si35  1  0.01190004  0.65724833  0.41743875  1
  S  S36  1  0.30652586  0.99623570  0.24943051  1
  S  S37  1  0.69465267  0.69967227  0.25076243  1
  S  S38  1  0.01844268  0.69911451  0.75493835  1
  S  S39  1  0.95247060  0.32573198  0.57818233  1
  S  S40  1  0.37581070  0.04949285  0.57979873  1
  S  S41  1  0.67223356  0.04488837  0.07830742  1
  S  S42  1  0.37453629  0.32794826  0.07773268  1
  S  S43  1  0.02214975  0.37832988  0.91653181  1
  S  S44  1  0.34981353  0.36160434  0.41976995  1
  O  O45  1  0.22858203  0.00699903  0.30122077  1
  O  O46  1  0.78610041  0.77294984  0.30346838  1
  O  O47  1  0.99038579  0.21839594  0.31259718  1
  O  O48  1  0.23093676  0.18333586  0.80046822  1
  O  O49  1  0.98757198  0.77063344  0.80536396  1
  O  O50  1  0.78559000  0.01124716  0.80950674  1
  O  O51  1  0.76517748  0.96097961  0.69724898  1
  O  O52  1  0.20080653  0.23237869  0.69361825  1
  O  O53  1  0.04490769  0.80450936  0.70599891  1
  O  O54  1  0.78806691  0.79963724  0.20297111  1
  O  O55  1  0.00013298  0.19156322  0.20039402  1
  O  O56  1  0.20815179  0.98484871  0.20016566  1
  O  O57  1  0.87639592  0.33522434  0.62997954  1
  O  O58  1  0.45256416  0.11936969  0.63417847  1
  O  O59  1  0.67322134  0.55596307  0.64211208  1
  O  O60  1  0.88114927  0.55568147  0.14228719  1
  O  O61  1  0.66714592  0.11690960  0.13325304  1
  O  O62  1  0.45179519  0.32674743  0.13073948  1
  O  O63  1  0.47574495  0.32737394  0.02947954  1
  O  O64  1  0.83674588  0.50844373  0.02877369  1
  O  O65  1  0.66617502  0.14386533  0.03161432  1
  O  O66  1  0.48138212  0.15294625  0.53356029  1
  O  O67  1  0.66878219  0.52121213  0.52905648  1
  O  O68  1  0.85381619  0.32700038  0.52895271  1
  O  O69  1  0.54614434  0.69451791  0.96880425  1
  O  O70  1  0.11292212  0.44388618  0.96864150  1
  O  O71  1  0.30668297  0.85151323  0.96777058  1
  O  O72  1  0.55570700  0.85240149  0.46757075  1
  O  O73  1  0.32258989  0.44037716  0.46829439  1
  O  O74  1  0.13327386  0.67129696  0.46692848  1
  O  O75  1  0.07556363  0.61752243  0.35822793  1
  O  O76  1  0.54420878  0.90764767  0.35760642  1
  O  O77  1  0.38219039  0.46267741  0.36943885  1
  O  O78  1  0.11251174  0.47874440  0.86823527  1
  O  O79  1  0.37143889  0.87457816  0.85980372  1
  O  O80  1  0.52248750  0.64542586  0.86015530  1
  O  O81  1  0.97738330  0.80875649  0.41610669  1
  O  O82  1  0.82913012  0.01672810  0.41542781  1
  O  O83  1  0.20871566  0.19963964  0.41327940  1
  O  O84  1  0.98041610  0.20720424  0.91118268  1
  O  O85  1  0.18554171  0.98936156  0.90971610  1
  O  O86  1  0.81903709  0.81481028  0.91220282  1
  O  O87  1  0.95029426  0.16853275  0.57499027  1
  O  O88  1  0.21482493  0.03275028  0.57562627  1
  O  O89  1  0.83292455  0.82224444  0.57770854  1
  O  O90  1  0.97194995  0.80932871  0.07499283  1
  O  O91  1  0.82491891  0.03947484  0.07415424  1
  O  O92  1  0.21466131  0.17974344  0.07242982  1
  O  O93  1  0.63852905  0.13820569  0.74869770  1
  O  O94  1  0.49721330  0.35988350  0.74837360  1
  O  O95  1  0.87658696  0.53683793  0.74697426  1
  O  O96  1  0.67380650  0.53471223  0.24729374  1
  O  O97  1  0.82964460  0.31733553  0.25124168  1
  O  O98  1  0.47288389  0.13721863  0.24725322  1
  O  O99  1  0.64844047  0.49486422  0.92442047  1
  O  O100  1  0.86329001  0.37874136  0.91973620  1
  O  O101  1  0.52166758  0.14479254  0.92491235  1
  O  O102  1  0.65744509  0.16330136  0.43025188  1
  O  O103  1  0.49717187  0.34665622  0.42795422  1
  O  O104  1  0.83007410  0.49123217  0.42786897  1
  O  O105  1  0.35903439  0.47388936  0.07737536  1
  O  O106  1  0.13527802  0.64060925  0.08138583  1
  O  O107  1  0.53242423  0.88033989  0.07822407  1
  O  O108  1  0.36774027  0.88950783  0.57659372  1
  O  O109  1  0.51089293  0.66297944  0.58241443  1
  O  O110  1  0.11749210  0.46306929  0.57541492  1
  O  O111  1  0.31885745  0.84488214  0.24991104  1
  O  O112  1  0.53710148  0.69499449  0.25235632  1
  O  O113  1  0.15570059  0.49299937  0.24971247  1
  O  O114  1  0.31331977  0.49157907  0.76304870  1
  O  O115  1  0.16777892  0.68862967  0.76211107  1
  O  O116  1  0.50267123  0.81757209  0.75897041  1
