# generated using pymatgen
data_Na2Y3NbSi2(SO6)4
_symmetry_space_group_name_H-M   'P 1'
_cell_length_a   9.13037614
_cell_length_b   9.12454551
_cell_length_c   24.03320819
_cell_angle_alpha   90.63041999
_cell_angle_beta   89.76916336
_cell_angle_gamma   119.97271205
_symmetry_Int_Tables_number   1
_chemical_formula_structural   Na2Y3NbSi2(SO6)4
_chemical_formula_sum   'Na6 Y9 Nb3 Si6 S12 O72'
_cell_volume   1734.34195992
_cell_formula_units_Z   3
loop_
 _symmetry_equiv_pos_site_id
 _symmetry_equiv_pos_as_xyz
  1  'x, y, z'
loop_
 _atom_site_type_symbol
 _atom_site_label
 _atom_site_symmetry_multiplicity
 _atom_site_fract_x
 _atom_site_fract_y
 _atom_site_fract_z
 _atom_site_occupancy
  Na  Na0  1  0.00155448  0.98422405  0.49658947  1
  Na  Na1  1  0.99792148  0.97074960  0.99702146  1
  Na  Na2  1  0.64404676  0.32616484  0.83510545  1
  Na  Na3  1  0.69449865  0.34126744  0.32971351  1
  Na  Na4  1  0.31019253  0.65547756  0.15756174  1
  Na  Na5  1  0.32788809  0.65333818  0.67389932  1
  Y  Y6  1  0.99620981  0.99890967  0.35062483  1
  Y  Y7  1  0.01460551  0.00269356  0.85356189  1
  Y  Y8  1  0.01216026  0.01487867  0.65450984  1
  Y  Y9  1  0.99827609  -0.00001518  0.14451886  1
  Y  Y10  1  0.65788168  0.33493588  0.68815799  1
  Y  Y11  1  0.68426380  0.34074911  0.18554008  1
  Y  Y12  1  0.67822714  0.34278266  0.47661739  1
  Y  Y13  1  0.33035832  0.67385686  0.01863621  1
  Y  Y14  1  0.32580989  0.66798849  0.51815932  1
  Nb  Nb15  1  0.66508433  0.34584822  0.97795252  1
  Nb  Nb16  1  0.31386118  0.65784875  0.31365932  1
  Nb  Nb17  1  0.34604484  0.66588524  0.82203440  1
  Si  Si18  1  0.99454639  0.28901413  0.25167513  1
  Si  Si19  1  0.29876806  0.30979298  0.75248293  1
  Si  Si20  1  0.96009603  0.62814353  0.08206657  1
  Si  Si21  1  0.62945179  0.66911990  0.92051801  1
  Si  Si22  1  0.34385308  0.96568851  0.91843138  1
  Si  Si23  1  0.03748351  0.66968719  0.41676553  1
  S  S24  1  0.29630396  0.99238333  0.25244257  1
  S  S25  1  0.69203775  0.70336707  0.25226002  1
  S  S26  1  0.01034641  0.70332984  0.75059821  1
  S  S27  1  0.69514730  0.99096110  0.75205778  1
  S  S28  1  0.96008208  0.32944601  0.58336887  1
  S  S29  1  0.37174062  0.03990330  0.58255975  1
  S  S30  1  0.66910987  0.63211162  0.58317295  1
  S  S31  1  0.66833483  0.04801421  0.08089381  1
  S  S32  1  0.38091426  0.33128609  0.08124200  1
  S  S33  1  0.03675289  0.38104375  0.91617562  1
  S  S34  1  0.61854553  0.95197694  0.41510655  1
  S  S35  1  0.33523014  0.38128102  0.41393218  1
  O  O36  1  0.21422161  0.01202456  0.30223445  1
  O  O37  1  0.80017854  0.78091536  0.30153977  1
  O  O38  1  0.98487602  0.18971434  0.30742897  1
  O  O39  1  0.20649874  0.19224234  0.80439760  1
  O  O40  1  0.97714972  0.77935883  0.79971700  1
  O  O41  1  0.79993678  0.01582102  0.80104597  1
  O  O42  1  0.76909021  0.96156923  0.70061995  1
  O  O43  1  0.19031452  0.23357788  0.69468185  1
  O  O44  1  0.03122946  0.80517305  0.69982104  1
  O  O45  1  0.76815362  0.80555785  0.20194269  1
  O  O46  1  0.03521228  0.21575860  0.19576757  1
  O  O47  1  0.19132039  0.95556911  0.20196986  1
  O  O48  1  0.87840774  0.34952960  0.63360909  1
  O  O49  1  0.47190969  0.12465083  0.63301362  1
  O  O50  1  0.65130872  0.52986701  0.63287255  1
  O  O51  1  0.86422593  0.52244421  0.13670933  1
  O  O52  1  0.64638561  0.12322421  0.13293056  1
  O  O53  1  0.47611188  0.34479835  0.13179163  1
  O  O54  1  0.47121312  0.31529354  0.02960933  1
  O  O55  1  0.83238069  0.50879633  0.02612355  1
  O  O56  1  0.67874391  0.14997033  0.03142862  1
  O  O57  1  0.45483275  0.13898173  0.53213704  1
  O  O58  1  0.68513922  0.54615107  0.53224040  1
  O  O59  1  0.85993548  0.31433928  0.53270994  1
  O  O60  1  0.53490643  0.67779517  0.97402763  1
  O  O61  1  0.13562239  0.45251596  0.96640982  1
  O  O62  1  0.31179042  0.85054327  0.97094800  1
  O  O63  1  0.54251208  0.85514239  0.46635664  1
  O  O64  1  0.31944404  0.46119706  0.46548457  1
  O  O65  1  0.14869988  0.68415554  0.47046239  1
  O  O66  1  0.15302211  0.65687678  0.36119979  1
  O  O67  1  0.51561032  0.86105318  0.36513784  1
  O  O68  1  0.35289017  0.48928783  0.36436626  1
  O  O69  1  0.12651945  0.49081473  0.86595487  1
  O  O70  1  0.36269909  0.85783883  0.86209493  1
  O  O71  1  0.50004581  0.63554172  0.86343643  1
  O  O72  1  0.02157661  0.83642582  0.41168852  1
  O  O73  1  0.79012553  0.97515012  0.41093869  1
  O  O74  1  0.18399938  0.21291646  0.40915300  1
  O  O75  1  0.00862197  0.20917457  0.90722447  1
  O  O76  1  0.18972485  0.00021789  0.91004936  1
  O  O77  1  0.81147099  0.82432469  0.90780695  1
  O  O78  1  0.97378679  0.17368638  0.58615939  1
  O  O79  1  0.19928202  0.01861842  0.58694373  1
  O  O80  1  0.82232683  0.80175830  0.58762010  1
  O  O81  1  0.96816103  0.81115657  0.08119707  1
  O  O82  1  0.82683201  0.03946665  0.08371963  1
  O  O83  1  0.21290386  0.17457771  0.08184921  1
  O  O84  1  0.67374297  0.14064088  0.74479179  1
  O  O85  1  0.49074579  0.34079586  0.74644437  1
  O  O86  1  0.86284014  0.53007518  0.74314882  1
  O  O87  1  0.66105359  0.52908323  0.24633713  1
  O  O88  1  0.84099681  0.32913397  0.25022156  1
  O  O89  1  0.46561695  0.14033261  0.24668922  1
  O  O90  1  0.63900550  0.48839976  0.92645297  1
  O  O91  1  0.86836653  0.37189293  0.92002011  1
  O  O92  1  0.52352874  0.15133776  0.92729108  1
  O  O93  1  0.62803966  0.11954331  0.41862823  1
  O  O94  1  0.48949017  0.36615791  0.41618548  1
  O  O95  1  0.85712073  0.49262454  0.41489608  1
  O  O96  1  0.36385640  0.48231840  0.07668752  1
  O  O97  1  0.14161420  0.63888264  0.08036146  1
  O  O98  1  0.52139245  0.87478251  0.07795334  1
  O  O99  1  0.35722520  0.87005704  0.57986725  1
  O  O100  1  0.51534368  0.64780312  0.57919307  1
  O  O101  1  0.13251948  0.48051543  0.57943509  1
  O  O102  1  0.31911149  0.83776387  0.26123161  1
  O  O103  1  0.52349210  0.69279252  0.26229603  1
  O  O104  1  0.17516874  0.48845973  0.26500273  1
  O  O105  1  0.31295738  0.50032579  0.76414625  1
  O  O106  1  0.16558196  0.69079739  0.75758898  1
  O  O107  1  0.52220928  0.83578475  0.75894464  1
