# generated using pymatgen
data_Na14Al4Si9Sn4(SO16)3
_symmetry_space_group_name_H-M   'P 1'
_cell_length_a   17.85067580
_cell_length_b   8.92517504
_cell_length_c   22.15544470
_cell_angle_alpha   90.12681414
_cell_angle_beta   89.81781645
_cell_angle_gamma   119.99918672
_symmetry_Int_Tables_number   1
_chemical_formula_structural   Na14Al4Si9Sn4(SO16)3
_chemical_formula_sum   'Na42 Al12 Si27 Sn12 S9 O144'
_cell_volume   3056.91778832
_cell_formula_units_Z   3
loop_
 _symmetry_equiv_pos_site_id
 _symmetry_equiv_pos_as_xyz
  1  'x, y, z'
loop_
 _atom_site_type_symbol
 _atom_site_label
 _atom_site_symmetry_multiplicity
 _atom_site_fract_x
 _atom_site_fract_y
 _atom_site_fract_z
 _atom_site_occupancy
  Na  Na0  1  0.81736877  0.00279422  0.25273581  1
  Na  Na1  1  0.17833769  0.36263668  0.25171496  1
  Na  Na2  1  0.68929040  0.36971370  0.25242967  1
  Na  Na3  1  0.99720235  0.63066610  0.24675603  1
  Na  Na4  1  0.50414686  0.64657411  0.25060394  1
  Na  Na5  1  0.31728534  0.63108195  0.75038473  1
  Na  Na6  1  0.00219641  0.36019643  0.74657275  1
  Na  Na7  1  0.49827051  0.36461279  0.74433848  1
  Na  Na8  1  0.18814314  0.00869837  0.74953844  1
  Na  Na9  1  0.68089557  0.99668924  0.74855321  1
  Na  Na10  1  0.14766353  0.32719684  0.58291955  1
  Na  Na11  1  0.65119655  0.33559896  0.58315780  1
  Na  Na12  1  0.33486707  0.97902455  0.58527018  1
  Na  Na13  1  0.83268905  0.96674103  0.58302009  1
  Na  Na14  1  0.14475049  0.96271187  0.08204277  1
  Na  Na15  1  0.65015856  0.97040714  0.08227053  1
  Na  Na16  1  0.33260677  0.69042190  0.08300593  1
  Na  Na17  1  0.83480255  0.69123451  0.08537127  1
  Na  Na18  1  0.48277813  0.67751950  0.91526077  1
  Na  Na19  1  0.98357753  0.67414105  0.91972593  1
  Na  Na20  1  0.34699086  0.02430791  0.91153513  1
  Na  Na21  1  0.84660445  0.02597477  0.91308026  1
  Na  Na22  1  0.16878325  0.29664680  0.91257661  1
  Na  Na23  1  0.66851745  0.29656179  0.91285439  1
  Na  Na24  1  0.48527406  0.29636820  0.42232428  1
  Na  Na25  1  0.98026765  0.28708763  0.41859341  1
  Na  Na26  1  0.16805877  0.04019874  0.41533793  1
  Na  Na27  1  0.67240760  0.04496048  0.41665640  1
  Na  Na28  1  0.34675842  0.66646916  0.41536623  1
  Na  Na29  1  0.84631900  0.66702650  0.41805613  1
  Na  Na30  1  0.99817154  0.99818898  0.50044184  1
  Na  Na31  1  0.50389577  0.00940760  0.50061851  1
  Na  Na32  1  0.00186144  0.99657025  0.99936129  1
  Na  Na33  1  0.50255662  0.99815658  0.99694157  1
  Na  Na34  1  0.33074045  0.33369625  0.82885217  1
  Na  Na35  1  0.82709728  0.33082978  0.83225934  1
  Na  Na36  1  0.32730376  0.32318165  0.33591115  1
  Na  Na37  1  0.83029004  0.32709049  0.33299440  1
  Na  Na38  1  0.16141493  0.65749999  0.16894390  1
  Na  Na39  1  0.66577915  0.66331034  0.16911663  1
  Na  Na40  1  0.16379357  0.66679364  0.66760571  1
  Na  Na41  1  0.66641826  0.66586414  0.66539619  1
  Al  Al42  1  0.99739454  0.01295023  0.34816780  1
  Al  Al43  1  0.50337299  0.00245761  0.35257997  1
  Al  Al44  1  0.00216973  0.99894901  0.84933050  1
  Al  Al45  1  0.49840190  0.98392545  0.84613984  1
  Al  Al46  1  0.33576157  0.31859137  0.69030322  1
  Al  Al47  1  0.83586333  0.35238487  0.19101133  1
  Al  Al48  1  0.32349308  0.34590515  0.97900802  1
  Al  Al49  1  0.82363320  0.34576818  0.98245818  1
  Al  Al50  1  0.32451796  0.30251614  0.48277027  1
  Al  Al51  1  0.82563499  0.32159510  0.48495278  1
  Al  Al52  1  0.68558483  0.68896519  0.31631093  1
  Al  Al53  1  0.18392038  0.68060483  0.81414880  1
  Si  Si54  1  0.14539013  0.99931450  0.25346351  1
  Si  Si55  1  0.64850201  0.99641849  0.25416844  1
  Si  Si56  1  0.35938201  0.72069260  0.25232554  1
  Si  Si57  1  0.85486041  0.71095165  0.25275546  1
  Si  Si58  1  0.99609236  0.29059899  0.25028179  1
  Si  Si59  1  0.14642553  0.29600498  0.75291110  1
  Si  Si60  1  0.64579605  0.29021502  0.75425195  1
  Si  Si61  1  0.49589711  0.70133426  0.75036898  1
  Si  Si62  1  0.35519250  0.99922754  0.75264897  1
  Si  Si63  1  0.85973462  0.00440272  0.75234182  1
  Si  Si64  1  0.47276591  0.33676923  0.58321655  1
  Si  Si65  1  0.97727149  0.34149739  0.58053484  1
  Si  Si66  1  0.19164490  0.04875483  0.58553820  1
  Si  Si67  1  0.68397014  0.03640092  0.58068507  1
  Si  Si68  1  0.83723647  0.61940575  0.58002153  1
  Si  Si69  1  0.47671949  0.61300395  0.08002317  1
  Si  Si70  1  0.97329541  0.60924880  0.08326611  1
  Si  Si71  1  0.18407619  0.33172203  0.08071600  1
  Si  Si72  1  0.69007725  0.33388067  0.08573628  1
  Si  Si73  1  0.31577793  0.67180884  0.91558236  1
  Si  Si74  1  0.81800077  0.67028477  0.91646674  1
  Si  Si75  1  0.16743149  0.96152218  0.91352804  1
  Si  Si76  1  0.66791881  0.97015311  0.91787530  1
  Si  Si77  1  0.31788396  0.96565474  0.41643856  1
  Si  Si78  1  0.81664874  0.96679703  0.41571502  1
  Si  Si79  1  0.16789594  0.36555975  0.41740089  1
  Si  Si80  1  0.66616013  0.37256930  0.41236508  1
  Sn  Sn81  1  0.99946125  0.00483746  0.64429895  1
  Sn  Sn82  1  0.50327013  0.00681873  0.64976261  1
  Sn  Sn83  1  0.00241363  0.99944125  0.15062642  1
  Sn  Sn84  1  0.50466539  0.99294720  0.14890768  1
  Sn  Sn85  1  0.82915405  0.32591113  0.68316363  1
  Sn  Sn86  1  0.33091710  0.34188088  0.18627579  1
  Sn  Sn87  1  0.16214660  0.66243712  0.01695169  1
  Sn  Sn88  1  0.66653014  0.66507857  0.01846343  1
  Sn  Sn89  1  0.16581672  0.66811382  0.51889374  1
  Sn  Sn90  1  0.66820599  0.66005788  0.52061085  1
  Sn  Sn91  1  0.17414064  0.67330543  0.31265341  1
  Sn  Sn92  1  0.67530779  0.67666067  0.81125598  1
  S  S93  1  0.49958927  0.28946992  0.25205880  1
  S  S94  1  0.00076361  0.70998841  0.75318002  1
  S  S95  1  0.33560422  0.61741950  0.58252332  1
  S  S96  1  0.33592435  0.04979595  0.08146594  1
  S  S97  1  0.83576812  0.05373094  0.08247118  1
  S  S98  1  0.01886909  0.37128038  0.91403943  1
  S  S99  1  0.51683145  0.36812534  0.91692098  1
  S  S100  1  0.01766962  0.66606267  0.41553659  1
  S  S101  1  0.52051726  0.66673154  0.41450601  1
  O  O102  1  0.09932339  0.03603664  0.31018518  1
  O  O103  1  0.59883181  0.03508213  0.30849498  1
  O  O104  1  0.42199387  0.81158635  0.30937208  1
  O  O105  1  0.92018480  0.80431274  0.30896950  1
  O  O106  1  0.48545198  0.18024980  0.30513435  1
  O  O107  1  0.97998698  0.17064901  0.30916487  1
  O  O108  1  0.09984293  0.16427535  0.81004210  1
  O  O109  1  0.59798463  0.16334678  0.81167590  1
  O  O110  1  0.47888315  0.78650241  0.81044908  1
  O  O111  1  0.98706382  0.79283551  0.80696409  1
  O  O112  1  0.41854843  0.03424095  0.81033645  1
  O  O113  1  0.92026656  0.03408273  0.81113185  1
  O  O114  1  0.38993013  0.94919022  0.69073062  1
  O  O115  1  0.89638008  0.96632012  0.69047275  1
  O  O116  1  0.08595469  0.21737216  0.69208233  1
  O  O117  1  0.58994343  0.22272235  0.69138361  1
  O  O118  1  0.01856844  0.81755125  0.69824427  1
  O  O119  1  0.52193484  0.83132811  0.69259908  1
  O  O120  1  0.39430580  0.82835281  0.18823530  1
  O  O121  1  0.88895127  0.82850882  0.18983121  1
  O  O122  1  0.02342047  0.21573832  0.19148554  1
  O  O123  1  0.51619774  0.21649343  0.19591222  1
  O  O124  1  0.09209737  0.95971000  0.18937337  1
  O  O125  1  0.58899855  0.94902077  0.19153256  1
  O  O126  1  0.42880778  0.35886842  0.64402971  1
  O  O127  1  0.94241042  0.37374091  0.64531380  1
  O  O128  1  0.25180681  0.13698815  0.64432386  1
  O  O129  1  0.74212961  0.10613229  0.64296296  1
  O  O130  1  0.32048385  0.51272928  0.63746293  1
  O  O131  1  0.81349144  0.50323405  0.64175995  1
  O  O132  1  0.44066859  0.50557638  0.14383885  1
  O  O133  1  0.92959336  0.49887118  0.14364210  1
  O  O134  1  0.31945257  0.12263029  0.13729352  1
  O  O135  1  0.82052051  0.12827692  0.13739973  1
  O  O136  1  0.24402474  0.37630085  0.14186952  1
  O  O137  1  0.75010325  0.36334800  0.14413728  1
  O  O138  1  0.23081456  0.29500644  0.02412164  1
  O  O139  1  0.72812152  0.29312944  0.02484416  1
  O  O140  1  0.41362974  0.51771036  0.02297528  1
  O  O141  1  0.91537466  0.52176619  0.02242415  1
  O  O142  1  0.34719596  0.15284130  0.02750638  1
  O  O143  1  0.84575164  0.15271532  0.02738388  1
  O  O144  1  0.22964133  0.16352304  0.52424672  1
  O  O145  1  0.72892481  0.16296089  0.52329169  1
  O  O146  1  0.34567009  0.53798598  0.52725321  1
  O  O147  1  0.84837928  0.52774926  0.52033830  1
  O  O148  1  0.41407014  0.30566859  0.52246118  1
  O  O149  1  0.91570239  0.30719666  0.52268012  1
  O  O150  1  0.27453441  0.71063100  0.97708337  1
  O  O151  1  0.77813623  0.71513193  0.97736783  1
  O  O152  1  0.07431202  0.44256949  0.96942618  1
  O  O153  1  0.57446963  0.44576837  0.97069876  1
  O  O154  1  0.14430581  0.84147121  0.97570355  1
  O  O155  1  0.64398936  0.83924730  0.97685609  1
  O  O156  1  0.27705330  0.83922742  0.47633400  1
  O  O157  1  0.77399062  0.83937759  0.47455014  1
  O  O158  1  0.14495580  0.45143841  0.47562105  1
  O  O159  1  0.63995489  0.44513123  0.47288814  1
  O  O160  1  0.07552336  0.70498319  0.46921954  1
  O  O161  1  0.57536970  0.70324509  0.46865925  1
  O  O162  1  0.05710003  0.63165687  0.36161169  1
  O  O163  1  0.55956302  0.63344857  0.36069808  1
  O  O164  1  0.24828379  0.88313829  0.36143295  1
  O  O165  1  0.75113710  0.87849720  0.35850112  1
  O  O166  1  0.18946400  0.49361022  0.35844369  1
  O  O167  1  0.67928727  0.50204648  0.35545370  1
  O  O168  1  0.05981522  0.48672395  0.86189021  1
  O  O169  1  0.55446477  0.48150123  0.86343116  1
  O  O170  1  0.18163980  0.85802532  0.85773889  1
  O  O171  1  0.68861691  0.88177850  0.86006348  1
  O  O172  1  0.24852476  0.62533297  0.86014062  1
  O  O173  1  0.74691728  0.61307984  0.86278078  1
  O  O174  1  0.01082346  0.82374912  0.40977572  1
  O  O175  1  0.51145780  0.82441892  0.40890288  1
  O  O176  1  0.41190019  0.97873392  0.40621372  1
  O  O177  1  0.91062711  0.97538352  0.40755391  1
  O  O178  1  0.08132831  0.17553646  0.40937752  1
  O  O179  1  0.57921167  0.17756019  0.40550906  1
  O  O180  1  0.01116851  0.19809395  0.90929248  1
  O  O181  1  0.50940283  0.19762729  0.91137999  1
  O  O182  1  0.08111112  0.98292841  0.90698322  1
  O  O183  1  0.58126693  0.98722742  0.91048157  1
  O  O184  1  0.41055951  0.84687664  0.90910940  1
  O  O185  1  0.91260403  0.84445951  0.90675080  1
  O  O186  1  0.48142205  0.15641678  0.58595131  1
  O  O187  1  0.98748706  0.16703655  0.58338821  1
  O  O188  1  0.09543591  0.02857122  0.58920720  1
  O  O189  1  0.59007168  0.02841704  0.58477237  1
  O  O190  1  0.41059146  0.79601045  0.58565469  1
  O  O191  1  0.92000081  0.81633080  0.58512470  1
  O  O192  1  0.48295807  0.80646712  0.08354145  1
  O  O193  1  0.98320640  0.80777983  0.08569537  1
  O  O194  1  0.41267827  0.02730573  0.08675886  1
  O  O195  1  0.91078212  0.02472543  0.08548208  1
  O  O196  1  0.09040903  0.15433427  0.08463978  1
  O  O197  1  0.59097657  0.16046367  0.08888094  1
  O  O198  1  0.34468781  0.17044941  0.74654707  1
  O  O199  1  0.85206836  0.18287116  0.74929168  1
  O  O200  1  0.24206972  0.31637409  0.74248428  1
  O  O201  1  0.74080572  0.30272304  0.74970875  1
  O  O202  1  0.40945923  0.51168999  0.74222856  1
  O  O203  1  0.92318827  0.53621479  0.74911117  1
  O  O204  1  0.35281610  0.52704378  0.24939869  1
  O  O205  1  0.84464777  0.51910065  0.24565728  1
  O  O206  1  0.42084265  0.30679893  0.24655504  1
  O  O207  1  0.90986235  0.30721428  0.24145838  1
  O  O208  1  0.24258431  0.17596250  0.24662859  1
  O  O209  1  0.74246249  0.16827920  0.24190223  1
  O  O210  1  0.32433360  0.49648808  0.92249253  1
  O  O211  1  0.82683244  0.49684552  0.92388887  1
  O  O212  1  0.43052582  0.35135295  0.92561602  1
  O  O213  1  0.93285171  0.35327093  0.92268602  1
  O  O214  1  0.25726616  0.15056057  0.92450024  1
  O  O215  1  0.75859574  0.15629318  0.92737973  1
  O  O216  1  0.32697167  0.15702222  0.42330254  1
  O  O217  1  0.82598190  0.15930748  0.42323287  1
  O  O218  1  0.25859622  0.36042279  0.42652168  1
  O  O219  1  0.75427837  0.36007297  0.42051826  1
  O  O220  1  0.43296199  0.51315779  0.42195799  1
  O  O221  1  0.93316144  0.51041895  0.42202977  1
  O  O222  1  0.18223482  0.51361632  0.07633712  1
  O  O223  1  0.68368407  0.51231626  0.07915770  1
  O  O224  1  0.07560439  0.65186160  0.07944748  1
  O  O225  1  0.57726321  0.65256287  0.07891397  1
  O  O226  1  0.25669793  0.87301186  0.07891515  1
  O  O227  1  0.75513228  0.87358271  0.07980951  1
  O  O228  1  0.18568834  0.85742616  0.57920434  1
  O  O229  1  0.67845663  0.84942127  0.57586393  1
  O  O230  1  0.25518219  0.63623355  0.57967827  1
  O  O231  1  0.74995261  0.64038408  0.57919008  1
  O  O232  1  0.07848473  0.50576140  0.57927569  1
  O  O233  1  0.57239360  0.49815678  0.57886177  1
  O  O234  1  0.15023041  0.82217529  0.25636863  1
  O  O235  1  0.65299677  0.81606798  0.26193716  1
  O  O236  1  0.26005463  0.68119236  0.25161594  1
  O  O237  1  0.75691876  0.68653057  0.25738015  1
  O  O238  1  0.08301049  0.48380990  0.25709044  1
  O  O239  1  0.57608681  0.46456821  0.25729885  1
  O  O240  1  0.15233151  0.48742829  0.76215351  1
  O  O241  1  0.64882270  0.47596481  0.75781202  1
  O  O242  1  0.07829040  0.68953893  0.75982627  1
  O  O243  1  0.58261625  0.68234365  0.75804102  1
  O  O244  1  0.25727234  0.82752785  0.75776020  1
  O  O245  1  0.76051186  0.84222067  0.75237314  1
