# generated using pymatgen
data_Na2Ti3Zn5(SO4)12
_symmetry_space_group_name_H-M   'P 1'
_cell_length_a   17.29626197
_cell_length_b   8.64591389
_cell_length_c   22.40960929
_cell_angle_alpha   90.08228489
_cell_angle_beta   89.94556431
_cell_angle_gamma   120.03214853
_symmetry_Int_Tables_number   1
_chemical_formula_structural   Na2Ti3Zn5(SO4)12
_chemical_formula_sum   'Na6 Ti9 Zn15 S36 O144'
_cell_volume   2901.26121554
_cell_formula_units_Z   3
loop_
 _symmetry_equiv_pos_site_id
 _symmetry_equiv_pos_as_xyz
  1  'x, y, z'
loop_
 _atom_site_type_symbol
 _atom_site_label
 _atom_site_symmetry_multiplicity
 _atom_site_fract_x
 _atom_site_fract_y
 _atom_site_fract_z
 _atom_site_occupancy
  Na  Na0  1  0.00085637  0.00093777  0.50048802  1
  Na  Na1  1  0.50214720  0.00327583  0.99907603  1
  Na  Na2  1  0.33507275  0.33566308  0.83130136  1
  Na  Na3  1  0.83124116  0.33081176  0.83242329  1
  Na  Na4  1  0.33170687  0.33285895  0.33878400  1
  Na  Na5  1  0.83504866  0.33302752  0.33362179  1
  Ti  Ti6  1  0.50200745  0.99904162  0.35656457  1
  Ti  Ti7  1  0.99908189  0.99914526  0.85157922  1
  Ti  Ti8  1  0.49962587  0.99990663  0.64945931  1
  Ti  Ti9  1  0.99593244  0.99837917  0.14823808  1
  Ti  Ti10  1  0.33563214  0.33544040  0.18631543  1
  Ti  Ti11  1  0.16550118  0.66744905  0.01890400  1
  Ti  Ti12  1  0.66753018  0.66546304  0.01890856  1
  Ti  Ti13  1  0.16537814  0.66451426  0.52187449  1
  Ti  Ti14  1  0.66829633  0.66966233  0.52267390  1
  Zn  Zn15  1  0.00120002  0.00200984  0.35384454  1
  Zn  Zn16  1  0.50081719  0.00038573  0.85197139  1
  Zn  Zn17  1  0.00070178  0.00045878  0.64977882  1
  Zn  Zn18  1  0.50294244  0.00332675  0.14987058  1
  Zn  Zn19  1  0.33145387  0.33101646  0.68273966  1
  Zn  Zn20  1  0.83527788  0.33596767  0.68418150  1
  Zn  Zn21  1  0.83104151  0.33207091  0.18306755  1
  Zn  Zn22  1  0.33227749  0.33252273  0.98183088  1
  Zn  Zn23  1  0.83434695  0.33419594  0.98369327  1
  Zn  Zn24  1  0.33401691  0.33518480  0.48519751  1
  Zn  Zn25  1  0.83294008  0.33154984  0.48391934  1
  Zn  Zn26  1  0.16358194  0.66073518  0.31261747  1
  Zn  Zn27  1  0.67029809  0.67089273  0.31228654  1
  Zn  Zn28  1  0.16985861  0.67073709  0.81086063  1
  Zn  Zn29  1  0.66355325  0.66310899  0.81005263  1
  S  S30  1  0.14571993  0.00108417  0.24869747  1
  S  S31  1  0.64518605  0.00018775  0.25093306  1
  S  S32  1  0.35499213  0.71024789  0.24957088  1
  S  S33  1  0.85530282  0.70733903  0.25113752  1
  S  S34  1  0.99833493  0.28956875  0.25078718  1
  S  S35  1  0.50005404  0.29006089  0.24995835  1
  S  S36  1  0.14558249  0.29070294  0.75046061  1
  S  S37  1  0.64657666  0.28994384  0.75054247  1
  S  S38  1  0.00007416  0.70870875  0.75018485  1
  S  S39  1  0.49809252  0.70692794  0.75066820  1
  S  S40  1  0.35520106  0.00338462  0.75088815  1
  S  S41  1  0.85429564  0.99999831  0.75008148  1
  S  S42  1  0.48043120  0.33216333  0.58296756  1
  S  S43  1  0.97997807  0.33166483  0.58239236  1
  S  S44  1  0.18583334  0.03924319  0.58154526  1
  S  S45  1  0.68578365  0.04017199  0.58373616  1
  S  S46  1  0.33380620  0.62859096  0.58363765  1
  S  S47  1  0.83431057  0.62805721  0.58175123  1
  S  S48  1  0.47939905  0.62541205  0.08213917  1
  S  S49  1  0.98054016  0.62847146  0.08336729  1
  S  S50  1  0.33337807  0.04170108  0.08201703  1
  S  S51  1  0.83252019  0.03878052  0.08347936  1
  S  S52  1  0.18728368  0.33305735  0.08388276  1
  S  S53  1  0.68580895  0.33266700  0.08155079  1
  S  S54  1  0.31168510  0.66639204  0.91703674  1
  S  S55  1  0.81184186  0.66581108  0.91481597  1
  S  S56  1  0.02145495  0.37647894  0.91557583  1
  S  S57  1  0.52095069  0.37619504  0.91629410  1
  S  S58  1  0.16655590  0.95709990  0.91504264  1
  S  S59  1  0.66728914  0.95748282  0.91693466  1
  S  S60  1  0.31170617  0.95765173  0.41456408  1
  S  S61  1  0.81157357  0.95764779  0.41728915  1
  S  S62  1  0.16769431  0.37669492  0.41703107  1
  S  S63  1  0.66740148  0.37826655  0.41510482  1
  S  S64  1  0.02105637  0.66570139  0.41648897  1
  S  S65  1  0.52125361  0.66414313  0.41564107  1
  O  O66  1  0.11261727  0.04332697  0.30261124  1
  O  O67  1  0.59571459  0.02438044  0.30481525  1
  O  O68  1  0.41304949  0.79048020  0.30342894  1
  O  O69  1  0.91053319  0.78842368  0.30411502  1
  O  O70  1  0.48127662  0.17202242  0.30329316  1
  O  O71  1  0.98419015  0.18036786  0.30401303  1
  O  O72  1  0.09731726  0.16990094  0.80516915  1
  O  O73  1  0.60753903  0.18166369  0.80440669  1
  O  O74  1  0.48310404  0.78520012  0.80462254  1
  O  O75  1  0.98751762  0.80484556  0.80505280  1
  O  O76  1  0.40930059  0.03302520  0.80469261  1
  O  O77  1  0.91478614  0.02482312  0.80502202  1
  O  O78  1  0.40373832  0.98464234  0.69658465  1
  O  O79  1  0.89494798  0.97649429  0.69657941  1
  O  O80  1  0.09362014  0.21016133  0.69675153  1
  O  O81  1  0.58847278  0.19237425  0.69641006  1
  O  O82  1  0.01153542  0.81271127  0.69661146  1
  O  O83  1  0.50760933  0.82311700  0.69657666  1
  O  O84  1  0.39487518  0.81397404  0.19589212  1
  O  O85  1  0.90391528  0.82364593  0.19620324  1
  O  O86  1  0.00778778  0.19179319  0.19606053  1
  O  O87  1  0.51149512  0.21160917  0.19575855  1
  O  O88  1  0.08932281  0.98048921  0.19565993  1
  O  O89  1  0.59324116  0.97539009  0.19699383  1
  O  O90  1  0.44492236  0.37414805  0.63553250  1
  O  O91  1  0.94405130  0.36855750  0.63606648  1
  O  O92  1  0.23979420  0.11072517  0.63534132  1
  O  O93  1  0.74262804  0.11155582  0.63609982  1
  O  O94  1  0.31290735  0.51516825  0.63617062  1
  O  O95  1  0.81553001  0.51945932  0.63520432  1
  O  O96  1  0.43483234  0.50834950  0.13676583  1
  O  O97  1  0.94507583  0.51629301  0.13609222  1
  O  O98  1  0.31937158  0.13002038  0.13634651  1
  O  O99  1  0.81317104  0.11083638  0.13660999  1
  O  O100  1  0.24754020  0.36617943  0.13693128  1
  O  O101  1  0.73909714  0.36846304  0.13576387  1
  O  O102  1  0.22304103  0.29492124  0.03081443  1
  O  O103  1  0.72612301  0.30175628  0.02869177  1
  O  O104  1  0.42391627  0.54475264  0.02965944  1
  O  O105  1  0.92548047  0.55776779  0.03012591  1
  O  O106  1  0.34820170  0.15078731  0.02908784  1
  O  O107  1  0.85352928  0.15067557  0.03071340  1
  O  O108  1  0.22570414  0.14960204  0.52835146  1
  O  O109  1  0.72144005  0.14836415  0.53016243  1
  O  O110  1  0.35412445  0.55789685  0.53041439  1
  O  O111  1  0.84803500  0.54810570  0.52811650  1
  O  O112  1  0.42551894  0.29358821  0.52955572  1
  O  O113  1  0.92528427  0.30193465  0.52914260  1
  O  O114  1  0.26282248  0.68537021  0.97196652  1
  O  O115  1  0.76887186  0.69315806  0.96993291  1
  O  O116  1  0.07866903  0.46459361  0.97105699  1
  O  O117  1  0.57845848  0.47247607  0.97100835  1
  O  O118  1  0.15328384  0.84199900  0.97009090  1
  O  O119  1  0.65795104  0.84275985  0.97185928  1
  O  O120  1  0.27179432  0.84683188  0.46852588  1
  O  O121  1  0.76269269  0.84143900  0.47106852  1
  O  O122  1  0.15859145  0.47199589  0.47091108  1
  O  O123  1  0.65161774  0.45986918  0.46874993  1
  O  O124  1  0.07865543  0.68518479  0.47019233  1
  O  O125  1  0.57665783  0.69521009  0.46960802  1
  O  O126  1  0.06082607  0.64166808  0.36207084  1
  O  O127  1  0.56068055  0.63590563  0.36235768  1
  O  O128  1  0.25750001  0.87896466  0.36121431  1
  O  O129  1  0.75963463  0.87765169  0.36329206  1
  O  O130  1  0.17977252  0.48045601  0.36286525  1
  O  O131  1  0.68148778  0.48454607  0.36157620  1
  O  O132  1  0.06220979  0.48724409  0.86342176  1
  O  O133  1  0.56166561  0.48105303  0.86281893  1
  O  O134  1  0.18177653  0.87727335  0.86255946  1
  O  O135  1  0.67852093  0.87482522  0.86355775  1
  O  O136  1  0.25919559  0.64269557  0.86374061  1
  O  O137  1  0.75668159  0.63635939  0.86238721  1
  O  O138  1  0.01607485  0.83159722  0.41527320  1
  O  O139  1  0.51418437  0.83212275  0.40806033  1
  O  O140  1  0.40194597  0.96984837  0.40609202  1
  O  O141  1  0.89929629  0.96825499  0.41660475  1
  O  O142  1  0.08489761  0.20035902  0.41591595  1
  O  O143  1  0.58285127  0.19715160  0.40746166  1
  O  O144  1  0.01597598  0.19989122  0.90990929  1
  O  O145  1  0.51594190  0.20106972  0.91592062  1
  O  O146  1  0.08391260  0.96781992  0.90973749  1
  O  O147  1  0.58461050  0.96744101  0.91666358  1
  O  O148  1  0.39907423  0.83110624  0.91690654  1
  O  O149  1  0.90048960  0.83243960  0.90886080  1
  O  O150  1  0.49424178  0.17744532  0.59389775  1
  O  O151  1  0.99443840  0.17886978  0.58819783  1
  O  O152  1  0.09473619  0.00950745  0.58750581  1
  O  O153  1  0.59476929  0.01291180  0.59434898  1
  O  O154  1  0.41167997  0.81072458  0.59485052  1
  O  O155  1  0.91040206  0.81000802  0.58755542  1
  O  O156  1  0.49081352  0.80328435  0.09061680  1
  O  O157  1  0.99463891  0.81175126  0.09452890  1
  O  O158  1  0.40980020  0.01575039  0.09048290  1
  O  O159  1  0.91166396  0.01292208  0.09430131  1
  O  O160  1  0.09810052  0.17815355  0.09646209  1
  O  O161  1  0.59432233  0.17869462  0.08722785  1
  O  O162  1  0.34660269  0.16297082  0.74260240  1
  O  O163  1  0.84985491  0.16572389  0.74889418  1
  O  O164  1  0.23307142  0.30046160  0.74920967  1
  O  O165  1  0.73501037  0.30715723  0.74211333  1
  O  O166  1  0.41830536  0.52978454  0.74241598  1
  O  O167  1  0.91722426  0.53379670  0.74899395  1
  O  O168  1  0.34807966  0.52625775  0.24266982  1
  O  O169  1  0.84674037  0.53083729  0.24266733  1
  O  O170  1  0.41497278  0.30429577  0.24309130  1
  O  O171  1  0.91848016  0.30638313  0.24246672  1
  O  O172  1  0.23764293  0.16691062  0.23720420  1
  O  O173  1  0.73249768  0.16589779  0.24981397  1
  O  O174  1  0.31994007  0.50644225  0.92460054  1
  O  O175  1  0.82507427  0.51218512  0.92296616  1
  O  O176  1  0.43215359  0.35794293  0.92357968  1
  O  O177  1  0.93199387  0.35232544  0.92422384  1
  O  O178  1  0.24417479  0.13600953  0.92353159  1
  O  O179  1  0.74701730  0.13502843  0.92432115  1
  O  O180  1  0.32691214  0.13972481  0.42204186  1
  O  O181  1  0.82010471  0.13454869  0.42450842  1
  O  O182  1  0.24724602  0.35726265  0.42381616  1
  O  O183  1  0.74328333  0.34958193  0.42268201  1
  O  O184  1  0.43064286  0.51190375  0.42305137  1
  O  O185  1  0.93187272  0.50702729  0.42336211  1
  O  O186  1  0.17851933  0.49439494  0.07640114  1
  O  O187  1  0.67744120  0.49753579  0.07073089  1
  O  O188  1  0.07212727  0.65199041  0.07156580  1
  O  O189  1  0.56752533  0.63661499  0.07617756  1
  O  O190  1  0.25007399  0.86446550  0.07519363  1
  O  O191  1  0.75419181  0.85635900  0.07268769  1
  O  O192  1  0.17774394  0.85731658  0.57054911  1
  O  O193  1  0.67303323  0.85501585  0.57252699  1
  O  O194  1  0.25482712  0.65310858  0.57212028  1
  O  O195  1  0.75085899  0.64591858  0.57118142  1
  O  O196  1  0.07194907  0.49767573  0.57209272  1
  O  O197  1  0.57192400  0.49175532  0.57097629  1
  O  O198  1  0.15680104  0.84616923  0.25275282  1
  O  O199  1  0.65276013  0.84251238  0.26028994  1
  O  O200  1  0.26616332  0.68276985  0.25849494  1
  O  O201  1  0.76916694  0.69873707  0.25282303  1
  O  O202  1  0.08056835  0.46203795  0.25235913  1
  O  O203  1  0.57505377  0.46753909  0.25905532  1
  O  O204  1  0.15326645  0.46384744  0.75985565  1
  O  O205  1  0.65072324  0.46237866  0.75255389  1
  O  O206  1  0.07873988  0.69308428  0.75971941  1
  O  O207  1  0.58031845  0.69910028  0.75247600  1
  O  O208  1  0.26895372  0.83891503  0.75253965  1
  O  O209  1  0.76768039  0.84276241  0.75976048  1
