# generated using pymatgen
data_Na2CaTi3P4(SO12)2
_symmetry_space_group_name_H-M   'P 1'
_cell_length_a   8.72914760
_cell_length_b   8.73647549
_cell_length_c   22.70514793
_cell_angle_alpha   89.68676914
_cell_angle_beta   90.16827077
_cell_angle_gamma   119.94515700
_symmetry_Int_Tables_number   1
_chemical_formula_structural   Na2CaTi3P4(SO12)2
_chemical_formula_sum   'Na6 Ca3 Ti9 P12 S6 O72'
_cell_volume   1500.36286183
_cell_formula_units_Z   3
loop_
 _symmetry_equiv_pos_site_id
 _symmetry_equiv_pos_as_xyz
  1  'x, y, z'
loop_
 _atom_site_type_symbol
 _atom_site_label
 _atom_site_symmetry_multiplicity
 _atom_site_fract_x
 _atom_site_fract_y
 _atom_site_fract_z
 _atom_site_occupancy
  Na  Na0  1  -0.00002001  0.99503641  0.50552095  1
  Na  Na1  1  0.00503373  0.99753616  0.00021352  1
  Na  Na2  1  0.66685388  0.33044845  0.83205850  1
  Na  Na3  1  0.66750721  0.33153057  0.33624881  1
  Na  Na4  1  0.33100331  0.66502692  0.16784983  1
  Na  Na5  1  0.33803022  0.66585006  0.66492979  1
  Ca  Ca6  1  0.99776204  0.99912014  0.64731390  1
  Ca  Ca7  1  0.00344412  0.00019972  0.14059432  1
  Ca  Ca8  1  0.33260772  0.66744538  0.32043147  1
  Ti  Ti9  1  0.00325149  0.00224269  0.36130133  1
  Ti  Ti10  1  0.00305563  0.01287901  0.85290711  1
  Ti  Ti11  1  0.64609158  0.32133433  0.68531226  1
  Ti  Ti12  1  0.66971926  0.34484154  0.18411256  1
  Ti  Ti13  1  0.66367189  0.33863244  0.97552040  1
  Ti  Ti14  1  0.66238907  0.33531683  0.48040013  1
  Ti  Ti15  1  0.32652149  0.65978502  0.01754358  1
  Ti  Ti16  1  0.34226526  0.67302223  0.51702664  1
  Ti  Ti17  1  0.34069959  0.67002967  0.81720390  1
  P  P18  1  0.29588383  0.30055291  0.75189307  1
  P  P19  1  0.70237211  0.00114790  0.75182450  1
  P  P20  1  0.38455474  0.03980373  0.57992503  1
  P  P21  1  0.65472583  0.61163674  0.58101861  1
  P  P22  1  0.95413254  0.60867771  0.07840736  1
  P  P23  1  0.39100133  0.34740576  0.07889238  1
  P  P24  1  0.62413363  0.67236413  0.91761145  1
  P  P25  1  0.04508993  0.37943324  0.91630966  1
  P  P26  1  0.33027658  0.95249170  0.91732135  1
  P  P27  1  0.63285479  0.96921360  0.41797203  1
  P  P28  1  0.33485536  0.37110471  0.41847581  1
  P  P29  1  0.03532486  0.66403514  0.41889046  1
  S  S30  1  0.30073193  0.01177651  0.24976625  1
  S  S31  1  0.71149121  0.70244019  0.24951527  1
  S  S32  1  0.98840964  0.28774666  0.24944085  1
  S  S33  1  0.00121895  0.70139818  0.75359280  1
  S  S34  1  0.95538327  0.34637327  0.58167560  1
  S  S35  1  0.65262712  0.04663307  0.07994540  1
  O  O36  1  0.21015459  0.02915504  0.30368653  1
  O  O37  1  0.81843095  0.78854546  0.30330476  1
  O  O38  1  0.97108418  0.17958739  0.30354933  1
  O  O39  1  0.19943829  0.17308718  0.80595541  1
  O  O40  1  0.97529696  0.79330627  0.80490172  1
  O  O41  1  0.83110597  0.02733231  0.80544738  1
  O  O42  1  0.75808931  0.95220683  0.69608333  1
  O  O43  1  0.19384207  0.23937916  0.69572269  1
  O  O44  1  0.03930851  0.80081742  0.69922228  1
  O  O45  1  0.78995963  0.79928502  0.19598580  1
  O  O46  1  0.00745994  0.20860832  0.19625964  1
  O  O47  1  0.20139159  0.99175704  0.19660459  1
  O  O48  1  0.86846647  0.36072876  0.63659880  1
  O  O49  1  0.49419791  0.13115842  0.63890090  1
  O  O50  1  0.63694543  0.49802321  0.63836853  1
  O  O51  1  0.86384566  0.49960490  0.13690321  1
  O  O52  1  0.63667210  0.13142331  0.13520250  1
  O  O53  1  0.50162921  0.36324810  0.13659407  1
  O  O54  1  0.49153379  0.33239336  0.02527643  1
  O  O55  1  0.84101410  0.50439590  0.02513453  1
  O  O56  1  0.66777334  0.15152168  0.02706058  1
  O  O57  1  0.49244608  0.15418827  0.52820123  1
  O  O58  1  0.66577276  0.50980279  0.52794719  1
  O  O59  1  0.85149291  0.33386264  0.52907927  1
  O  O60  1  0.53273393  0.69678709  0.97229978  1
  O  O61  1  0.16257076  0.46491492  0.97216434  1
  O  O62  1  0.30279542  0.83385834  0.97258899  1
  O  O63  1  0.53730259  0.83817100  0.47106097  1
  O  O64  1  0.30220406  0.46511164  0.47102226  1
  O  O65  1  0.16506118  0.69874361  0.47142457  1
  O  O66  1  0.08885381  0.62005126  0.36180527  1
  O  O67  1  0.53072670  0.91241330  0.36176306  1
  O  O68  1  0.37878433  0.46885774  0.36129169  1
  O  O69  1  0.13334766  0.49627408  0.86275872  1
  O  O70  1  0.36054408  0.86491276  0.86372048  1
  O  O71  1  0.50620545  0.63990619  0.86331239  1
  O  O72  1  0.02144122  0.83772867  0.41112182  1
  O  O73  1  0.81761604  0.97860445  0.41095169  1
  O  O74  1  0.16179818  0.18359583  0.41157863  1
  O  O75  1  0.02878088  0.19409943  0.90902426  1
  O  O76  1  0.16427074  0.97117251  0.90878798  1
  O  O77  1  0.80881775  0.83587268  0.90902118  1
  O  O78  1  0.97413603  0.18918719  0.58216766  1
  O  O79  1  0.20556511  0.02528447  0.58050650  1
  O  O80  1  0.81691193  0.79247988  0.58099718  1
  O  O81  1  0.96840341  0.78772066  0.07780108  1
  O  O82  1  0.80978103  0.02772934  0.08099646  1
  O  O83  1  0.21008667  0.18530262  0.07818833  1
  O  O84  1  0.68947350  0.17246063  0.74621693  1
  O  O85  1  0.48277987  0.31450167  0.74613711  1
  O  O86  1  0.83956752  0.52367352  0.74871344  1
  O  O87  1  0.70321023  0.52252327  0.24515783  1
  O  O88  1  0.81818325  0.29556734  0.24543617  1
  O  O89  1  0.47818560  0.18074190  0.24547904  1
  O  O90  1  0.64270199  0.50427226  0.92396259  1
  O  O91  1  0.85878736  0.35498936  0.92402027  1
  O  O92  1  0.49652003  0.13765918  0.92518216  1
  O  O93  1  0.67204051  0.15663444  0.43230617  1
  O  O94  1  0.48530571  0.33065799  0.43119287  1
  O  O95  1  0.84719833  0.51381078  0.43285733  1
  O  O96  1  0.38464495  0.52154951  0.07505378  1
  O  O97  1  0.13752391  0.61962886  0.07479121  1
  O  O98  1  0.48832948  0.87051006  0.07697443  1
  O  O99  1  0.37693923  0.85820548  0.57561471  1
  O  O100  1  0.47944979  0.61798142  0.57553949  1
  O  O101  1  0.13130651  0.51133338  0.57757683  1
  O  O102  1  0.33178282  0.86168515  0.25402923  1
  O  O103  1  0.52919473  0.66787356  0.25365880  1
  O  O104  1  0.13796631  0.46905894  0.25373481  1
  O  O105  1  0.32662990  0.48688410  0.76671440  1
  O  O106  1  0.15639570  0.67593406  0.76461774  1
  O  O107  1  0.51483685  0.84515196  0.76771982  1
