# generated using pymatgen
data_Na7MgSi3Sn3(PO8)3
_symmetry_space_group_name_H-M   'P 1'
_cell_length_a   9.03247407
_cell_length_b   9.03268720
_cell_length_c   22.42587777
_cell_angle_alpha   89.69027609
_cell_angle_beta   90.23822875
_cell_angle_gamma   119.97634032
_symmetry_Int_Tables_number   1
_chemical_formula_structural   Na7MgSi3Sn3(PO8)3
_chemical_formula_sum   'Na21 Mg3 Si9 Sn9 P9 O72'
_cell_volume   1584.89431718
_cell_formula_units_Z   3
loop_
 _symmetry_equiv_pos_site_id
 _symmetry_equiv_pos_as_xyz
  1  'x, y, z'
loop_
 _atom_site_type_symbol
 _atom_site_label
 _atom_site_symmetry_multiplicity
 _atom_site_fract_x
 _atom_site_fract_y
 _atom_site_fract_z
 _atom_site_occupancy
  Na  Na0  1  0.63641504  0.00830033  0.24817055  1
  Na  Na1  1  0.37203594  0.36415830  0.24838726  1
  Na  Na2  1  0.99307256  0.63029927  0.25053425  1
  Na  Na3  1  0.63830313  0.62660708  0.74944958  1
  Na  Na4  1  0.99035624  0.36954243  0.74707447  1
  Na  Na5  1  0.36913727  0.00498436  0.74698788  1
  Na  Na6  1  0.02932362  0.69286913  0.58390598  1
  Na  Na7  1  0.66799950  0.97324017  0.58070492  1
  Na  Na8  1  0.31022443  0.97598849  0.08405365  1
  Na  Na9  1  0.66222432  0.69427855  0.08322289  1
  Na  Na10  1  0.02869885  0.33084515  0.08136920  1
  Na  Na11  1  0.33440901  0.30437119  0.91854749  1
  Na  Na12  1  0.96820266  0.29166278  0.41633134  1
  Na  Na13  1  0.32321841  0.03137593  0.41527400  1
  Na  Na14  1  0.70826886  0.67613864  0.41490250  1
  Na  Na15  1  0.00586522  0.00862618  0.49420429  1
  Na  Na16  1  0.98974872  0.99666100  0.99756317  1
  Na  Na17  1  0.68050269  0.34211622  0.83432387  1
  Na  Na18  1  0.66636527  0.33313188  0.33381920  1
  Na  Na19  1  0.33737645  0.66744551  0.16513940  1
  Na  Na20  1  0.32670960  0.65687095  0.66427510  1
  Mg  Mg21  1  0.99919320  0.99994407  0.35452274  1
  Mg  Mg22  1  0.67361459  0.33932380  0.68331862  1
  Mg  Mg23  1  0.66314974  0.32998198  0.18198525  1
  Si  Si24  1  -0.00066493  0.70631223  0.75033277  1
  Si  Si25  1  0.96335404  0.33451087  0.58586918  1
  Si  Si26  1  0.66434718  0.04064108  0.08555559  1
  Si  Si27  1  0.37610923  0.33393183  0.08487053  1
  Si  Si28  1  0.63027322  0.66741596  0.91664815  1
  Si  Si29  1  0.03406629  0.37069807  0.91633400  1
  Si  Si30  1  0.62725839  0.96013086  0.41755188  1
  Si  Si31  1  0.33288078  0.36995728  0.41645760  1
  Si  Si32  1  0.03908894  0.66844349  0.41705199  1
  Sn  Sn33  1  0.99242044  0.99452061  0.85456244  1
  Sn  Sn34  1  0.00584367  0.00445264  0.64768053  1
  Sn  Sn35  1  0.00035273  0.00331850  0.14974661  1
  Sn  Sn36  1  0.67120729  0.33370823  0.98089360  1
  Sn  Sn37  1  0.66816079  0.33173488  0.48212806  1
  Sn  Sn38  1  0.33684040  0.66521703  0.01633116  1
  Sn  Sn39  1  0.32989708  0.65896881  0.51732011  1
  Sn  Sn40  1  0.33353018  0.66590902  0.31867870  1
  Sn  Sn41  1  0.32901523  0.66472589  0.81766349  1
  P  P42  1  0.29297101  -0.00001197  0.25181464  1
  P  P43  1  0.70753815  0.70620483  0.25164929  1
  P  P44  1  -0.00028599  0.29480873  0.25178018  1
  P  P45  1  0.29283696  0.29220065  0.75113297  1
  P  P46  1  0.70641399  -0.00009642  0.74986588  1
  P  P47  1  0.37498709  0.04249298  0.58502024  1
  P  P48  1  0.66365358  0.62436668  0.58536005  1
  P  P49  1  0.95849844  0.62527603  0.08507015  1
  P  P50  1  0.33419946  0.96066272  0.91658537  1
  O  O51  1  0.20536303  0.02548929  0.30492802  1
  O  O52  1  0.81990574  0.79314074  0.30520830  1
  O  O53  1  0.97194653  0.18052571  0.30516439  1
  O  O54  1  0.21211234  0.17991033  0.80746763  1
  O  O55  1  0.96549107  0.80032863  0.80588891  1
  O  O56  1  0.82641691  0.03809226  0.80375252  1
  O  O57  1  0.78227047  0.95975638  0.69368931  1
  O  O58  1  0.17144488  0.21382199  0.69678394  1
  O  O59  1  0.04470396  0.83077109  0.69038317  1
  O  O60  1  0.78380918  0.81948965  0.19318526  1
  O  O61  1  0.03865561  0.22041156  0.19368388  1
  O  O62  1  0.17864302  0.96087114  0.19338016  1
  O  O63  1  0.88091618  0.36911316  0.64348755  1
  O  O64  1  0.48468900  0.12310709  0.64033334  1
  O  O65  1  0.63659566  0.51712007  0.64101565  1
  O  O66  1  0.88486920  0.51579102  0.14112288  1
  O  O67  1  0.62868197  0.11628365  0.14467550  1
  O  O68  1  0.49311523  0.37463634  0.14300454  1
  O  O69  1  0.45262345  0.29263893  0.02434500  1
  O  O70  1  0.84364988  0.55082894  0.02950890  1
  O  O71  1  0.71215019  0.16607926  0.02727487  1
  O  O72  1  0.45094109  0.14905840  0.52714712  1
  O  O73  1  0.69978231  0.54943066  0.52815999  1
  O  O74  1  0.84250943  0.29193966  0.52529511  1
  O  O75  1  0.54796615  0.70086248  0.97616466  1
  O  O76  1  0.15685629  0.45276316  0.97542415  1
  O  O77  1  0.30096543  0.84897540  0.97294168  1
  O  O78  1  0.54302234  0.83980019  0.47696120  1
  O  O79  1  0.29249967  0.45587022  0.47283468  1
  O  O80  1  0.16089490  0.70765122  0.47600855  1
  O  O81  1  0.11466119  0.61954852  0.35728044  1
  O  O82  1  0.50421476  0.88372394  0.35734298  1
  O  O83  1  0.38263925  0.49324689  0.35583285  1
  O  O84  1  0.11675433  0.48484018  0.85567781  1
  O  O85  1  0.36520941  0.88264338  0.85966680  1
  O  O86  1  0.50823754  0.62791719  0.85667710  1
  O  O87  1  0.02004970  0.83450142  0.41067142  1
  O  O88  1  0.81227931  0.97863834  0.41140328  1
  O  O89  1  0.16685404  0.18513889  0.41007491  1
  O  O90  1  0.03576349  0.18930930  0.91056621  1
  O  O91  1  0.17594782  0.98376383  0.91111083  1
  O  O92  1  0.81705812  0.83740800  0.91303624  1
  O  O93  1  0.97164442  0.15431573  0.58907680  1
  O  O94  1  0.18937641  0.01383150  0.58772531  1
  O  O95  1  0.83053657  0.80658111  0.58891543  1
  O  O96  1  0.97959261  0.80818214  0.09029251  1
  O  O97  1  0.83463471  0.01404596  0.08931545  1
  O  O98  1  0.18294256  0.15864047  0.08914826  1
  O  O99  1  0.68145836  0.15489989  0.74367071  1
  O  O100  1  0.46885211  0.30790465  0.74405867  1
  O  O101  1  0.83099872  0.51935317  0.74628238  1
  O  O102  1  0.68806937  0.52758693  0.24468169  1
  O  O103  1  0.84287352  0.31802723  0.24402104  1
  O  O104  1  0.47200002  0.15827717  0.24513981  1
  O  O105  1  0.63237453  0.48711372  0.92183229  1
  O  O106  1  0.84751064  0.35319767  0.92104670  1
  O  O107  1  0.49264481  0.14050994  0.92126196  1
  O  O108  1  0.63607295  0.14623156  0.42187979  1
  O  O109  1  0.50951050  0.36045166  0.42348857  1
  O  O110  1  0.85150440  0.49304803  0.42255458  1
  O  O111  1  0.34697906  0.50102743  0.07873691  1
  O  O112  1  0.14082091  0.64812261  0.07673307  1
  O  O113  1  0.49043226  0.84953595  0.07744980  1
  O  O114  1  0.35924132  0.86151345  0.57944178  1
  O  O115  1  0.51007781  0.65612457  0.57931041  1
  O  O116  1  0.15081811  0.51120952  0.57944995  1
  O  O117  1  0.30775928  0.83183700  0.25389813  1
  O  O118  1  0.52506244  0.69203905  0.25349578  1
  O  O119  1  0.16807862  0.47720758  0.25400325  1
  O  O120  1  0.31047471  0.47380088  0.75487922  1
  O  O121  1  0.17951441  0.69641617  0.75466689  1
  O  O122  1  0.52774181  0.83249688  0.75629131  1
