# generated using pymatgen
data_Na10Ta2Al6Si7S5O48
_symmetry_space_group_name_H-M   'P 1'
_cell_length_a   17.52789712
_cell_length_b   8.73449014
_cell_length_c   21.88472179
_cell_angle_alpha   90.10210455
_cell_angle_beta   90.35301634
_cell_angle_gamma   119.93165819
_symmetry_Int_Tables_number   1
_chemical_formula_structural   Na10Ta2Al6Si7S5O48
_chemical_formula_sum   'Na30 Ta6 Al18 Si21 S15 O144'
_cell_volume   2903.50542601
_cell_formula_units_Z   3
loop_
 _symmetry_equiv_pos_site_id
 _symmetry_equiv_pos_as_xyz
  1  'x, y, z'
loop_
 _atom_site_type_symbol
 _atom_site_label
 _atom_site_symmetry_multiplicity
 _atom_site_fract_x
 _atom_site_fract_y
 _atom_site_fract_z
 _atom_site_occupancy
  Na  Na0  1  0.31943316  0.00137630  0.24545214  1
  Na  Na1  1  0.81461049  0.00241991  0.24775860  1
  Na  Na2  1  0.18549777  0.36658502  0.24530246  1
  Na  Na3  1  0.31474671  0.62683521  0.74840584  1
  Na  Na4  1  0.81866967  0.63633711  0.74521981  1
  Na  Na5  1  0.68434745  0.00310060  0.74585654  1
  Na  Na6  1  0.15839179  0.33487865  0.58377054  1
  Na  Na7  1  0.65438258  0.33310800  0.57803654  1
  Na  Na8  1  0.01793000  0.69944181  0.57395100  1
  Na  Na9  1  0.15621699  0.97816899  0.08106220  1
  Na  Na10  1  0.65737935  0.98027516  0.08350671  1
  Na  Na11  1  0.51728544  0.33511512  0.07314047  1
  Na  Na12  1  0.85131816  0.02892864  0.92083975  1
  Na  Na13  1  0.66570060  0.31174830  0.91985814  1
  Na  Na14  1  0.48591481  0.29822994  0.42021198  1
  Na  Na15  1  0.16734980  0.02139992  0.42037563  1
  Na  Na16  1  0.66729372  0.05002557  0.41624869  1
  Na  Na17  1  0.84810868  0.65943498  0.41663802  1
  Na  Na18  1  0.99622859  0.99641413  0.49697913  1
  Na  Na19  1  0.48692058  0.97626789  0.49475023  1
  Na  Na20  1  0.99902104  0.99925580  0.99495343  1
  Na  Na21  1  0.48742695  0.99489861  0.99443578  1
  Na  Na22  1  0.33461772  0.32814708  0.83336528  1
  Na  Na23  1  0.84230854  0.34486274  0.83260083  1
  Na  Na24  1  0.33727079  0.35127413  0.33291373  1
  Na  Na25  1  0.83606308  0.34214348  0.33144462  1
  Na  Na26  1  0.16594952  0.65168017  0.16034110  1
  Na  Na27  1  0.67401119  0.66915567  0.16469858  1
  Na  Na28  1  0.17522835  0.67976747  0.66519858  1
  Na  Na29  1  0.66581943  0.68019488  0.66070148  1
  Ta  Ta30  1  0.00052411  0.00638830  0.64793204  1
  Ta  Ta31  1  0.50257897  0.98766144  0.64098205  1
  Ta  Ta32  1  0.00295980  0.01698290  0.14053121  1
  Ta  Ta33  1  0.49937872  0.99286494  0.14737480  1
  Ta  Ta34  1  0.16394692  0.67539744  0.31177469  1
  Ta  Ta35  1  0.66232858  0.64838612  0.81241438  1
  Al  Al36  1  0.00320682  0.00098357  0.34960585  1
  Al  Al37  1  0.50074704  0.99493470  0.35505883  1
  Al  Al38  1  0.99933060  0.00610160  0.85132414  1
  Al  Al39  1  0.49797445  0.00590323  0.84985533  1
  Al  Al40  1  0.32131800  0.33998117  0.68867759  1
  Al  Al41  1  0.82061463  0.31215454  0.68488355  1
  Al  Al42  1  0.32145715  0.32786415  0.18531978  1
  Al  Al43  1  0.82095582  0.30261328  0.18852402  1
  Al  Al44  1  0.33171452  0.31204424  0.97995650  1
  Al  Al45  1  0.83067192  0.34007116  0.98655441  1
  Al  Al46  1  0.32744134  0.32426659  0.48559710  1
  Al  Al47  1  0.82939997  0.35057329  0.47869531  1
  Al  Al48  1  0.17515788  0.66908790  0.02083871  1
  Al  Al49  1  0.68279681  0.65422079  0.01911600  1
  Al  Al50  1  0.18236733  0.70895572  0.52081493  1
  Al  Al51  1  0.67077859  0.66432228  0.52200829  1
  Al  Al52  1  0.66434541  0.66549882  0.31543546  1
  Al  Al53  1  0.16497837  0.65723628  0.81641041  1
  Si  Si54  1  0.14423481  0.00374067  0.25000337  1
  Si  Si55  1  0.64483201  0.99250030  0.25730923  1
  Si  Si56  1  0.36070921  0.70257220  0.25448831  1
  Si  Si57  1  0.99310557  0.28624731  0.25412524  1
  Si  Si58  1  0.14528000  0.29450454  0.75753989  1
  Si  Si59  1  0.64329576  0.28196681  0.75046763  1
  Si  Si60  1  0.49292623  0.70031095  0.75484390  1
  Si  Si61  1  0.85855769  0.01791967  0.75441298  1
  Si  Si62  1  0.19584396  0.04653430  0.58534662  1
  Si  Si63  1  0.69489915  0.03815885  0.57785308  1
  Si  Si64  1  0.32790237  0.61382819  0.57927793  1
  Si  Si65  1  0.83120764  0.61679863  0.58492581  1
  Si  Si66  1  0.33089901  0.04582478  0.08399248  1
  Si  Si67  1  0.82824020  0.04155740  0.07813731  1
  Si  Si68  1  0.19632165  0.34824455  0.07799703  1
  Si  Si69  1  0.69599463  0.34443036  0.08550100  1
  Si  Si70  1  0.82377505  0.66940857  0.91753371  1
  Si  Si71  1  0.51364503  0.36792048  0.92169491  1
  Si  Si72  1  0.31914210  0.96967842  0.41815557  1
  Si  Si73  1  0.66485656  0.38234716  0.41589146  1
  Si  Si74  1  0.01784307  0.66123927  0.42161335  1
  S  S75  1  0.85532821  0.70665418  0.25175100  1
  S  S76  1  0.50406142  0.29982735  0.25164504  1
  S  S77  1  0.00500722  0.71226971  0.75298404  1
  S  S78  1  0.35418663  0.00348117  0.75242685  1
  S  S79  1  0.47480042  0.33828252  0.58365299  1
  S  S80  1  0.97174724  0.33101196  0.58264700  1
  S  S81  1  0.47192071  0.61240794  0.08258367  1
  S  S82  1  0.97629629  0.61312860  0.08306281  1
  S  S83  1  0.31023697  0.66770149  0.91638992  1
  S  S84  1  0.02682676  0.38767373  0.91773653  1
  S  S85  1  0.16534137  0.94544853  0.91591503  1
  S  S86  1  0.66317425  0.95428124  0.91849136  1
  S  S87  1  0.81222732  0.95597353  0.41657620  1
  S  S88  1  0.16520665  0.37401547  0.41845816  1
  S  S89  1  0.52353809  0.66547250  0.41742823  1
  O  O90  1  0.09983646  0.03524833  0.30956889  1
  O  O91  1  0.59779072  0.02181579  0.31527693  1
  O  O92  1  0.42022093  0.80935634  0.31131848  1
  O  O93  1  0.90787582  0.79027096  0.30859551  1
  O  O94  1  0.48796044  0.18564103  0.30515972  1
  O  O95  1  0.97579552  0.15050070  0.30954029  1
  O  O96  1  0.09364228  0.15966407  0.81163503  1
  O  O97  1  0.59840523  0.16111491  0.80958389  1
  O  O98  1  0.47552544  0.80227784  0.80985356  1
  O  O99  1  0.98607901  0.79652483  0.80464473  1
  O  O100  1  0.40928480  0.02818992  0.80728901  1
  O  O101  1  0.91425587  0.03468624  0.81498176  1
  O  O102  1  0.39254343  0.96225582  0.69742421  1
  O  O103  1  0.90114094  0.96342753  0.69625692  1
  O  O104  1  0.08512927  0.20760641  0.69285444  1
  O  O105  1  0.58383208  0.19823581  0.68844031  1
  O  O106  1  0.01969456  0.81962883  0.69522250  1
  O  O107  1  0.51365665  0.83091936  0.69303833  1
  O  O108  1  0.39951078  0.83571918  0.19416903  1
  O  O109  1  0.89752887  0.82475813  0.19775675  1
  O  O110  1  0.01308150  0.19560579  0.19260945  1
  O  O111  1  0.51774255  0.21643711  0.19503483  1
  O  O112  1  0.08453081  0.97042649  0.18829121  1
  O  O113  1  0.58373290  0.96148979  0.19380573  1
  O  O114  1  0.43358022  0.35890437  0.63777999  1
  O  O115  1  0.93204272  0.35642422  0.63789054  1
  O  O116  1  0.25582062  0.14625045  0.64340928  1
  O  O117  1  0.74397337  0.11846353  0.64293725  1
  O  O118  1  0.31265026  0.50577041  0.64306384  1
  O  O119  1  0.82039011  0.49871458  0.64561078  1
  O  O120  1  0.43174117  0.50678774  0.13761568  1
  O  O121  1  0.93866051  0.51214081  0.13825493  1
  O  O122  1  0.31735025  0.13471143  0.14610105  1
  O  O123  1  0.81353899  0.12376094  0.14089123  1
  O  O124  1  0.24376658  0.36596823  0.14383297  1
  O  O125  1  0.75637173  0.36751266  0.14372382  1
  O  O126  1  0.24005816  0.29881440  0.02230615  1
  O  O127  1  0.73026047  0.29665189  0.02298937  1
  O  O128  1  0.41988946  0.53986973  0.02684791  1
  O  O129  1  0.92218945  0.53546783  0.02731436  1
  O  O130  1  0.35772536  0.17727144  0.02659466  1
  O  O131  1  0.84850600  0.16755948  0.01825988  1
  O  O132  1  0.22859661  0.15965609  0.52218947  1
  O  O133  1  0.73797858  0.17091805  0.52053897  1
  O  O134  1  0.34904081  0.52430953  0.52200203  1
  O  O135  1  0.85503711  0.54210242  0.52437485  1
  O  O136  1  0.42403442  0.31027411  0.52586349  1
  O  O137  1  0.91921101  0.30126925  0.52708809  1
  O  O138  1  0.26727911  0.69672879  0.97004110  1
  O  O139  1  0.77538309  0.71317004  0.97221433  1
  O  O140  1  0.08061787  0.47878464  0.97195563  1
  O  O141  1  0.58423632  0.46731638  0.97848816  1
  O  O142  1  0.15412338  0.84085341  0.97265484  1
  O  O143  1  0.65269147  0.84785996  0.97274469  1
  O  O144  1  0.27146848  0.84406890  0.47488508  1
  O  O145  1  0.76956863  0.83890790  0.46952416  1
  O  O146  1  0.15278981  0.45709774  0.47265620  1
  O  O147  1  0.64693259  0.46987384  0.47710288  1
  O  O148  1  0.08556553  0.70334442  0.47903027  1
  O  O149  1  0.58039019  0.69475526  0.47130392  1
  O  O150  1  0.06781524  0.63915019  0.36055374  1
  O  O151  1  0.56415983  0.63862517  0.36147798  1
  O  O152  1  0.25247687  0.88026401  0.35708467  1
  O  O153  1  0.75776706  0.87925295  0.35983033  1
  O  O154  1  0.17719002  0.48001731  0.36206099  1
  O  O155  1  0.68279294  0.51714888  0.35924156  1
  O  O156  1  0.06777142  0.49271204  0.86173468  1
  O  O157  1  0.56691477  0.49439928  0.86106419  1
  O  O158  1  0.17614087  0.85347351  0.86197725  1
  O  O159  1  0.67791047  0.87202296  0.86277362  1
  O  O160  1  0.25682240  0.64665254  0.85986776  1
  O  O161  1  0.75588416  0.63009345  0.85664288  1
  O  O162  1  0.00779853  0.84032025  0.40959859  1
  O  O163  1  0.51480895  0.82555512  0.41335549  1
  O  O164  1  0.41532794  0.99379329  0.40690655  1
  O  O165  1  0.89969865  0.96676400  0.41124164  1
  O  O166  1  0.08537525  0.19320141  0.41242449  1
  O  O167  1  0.57883010  0.18336815  0.40968694  1
  O  O168  1  0.01858651  0.20889739  0.91474265  1
  O  O169  1  0.50973699  0.17669789  0.90924464  1
  O  O170  1  0.08594485  0.96220335  0.91003569  1
  O  O171  1  0.58503108  0.97626073  0.91253253  1
  O  O172  1  0.39823977  0.82919088  0.91167905  1
  O  O173  1  0.91861936  0.84902553  0.90767445  1
  O  O174  1  0.48582892  0.17664160  0.58714973  1
  O  O175  1  0.98308464  0.16793667  0.58741023  1
  O  O176  1  0.09390526  0.02675438  0.59194616  1
  O  O177  1  0.59421130  0.02732263  0.58459934  1
  O  O178  1  0.41316418  0.81834665  0.58728857  1
  O  O179  1  0.92106407  0.81441194  0.59162710  1
  O  O180  1  0.48402159  0.79862981  0.08761609  1
  O  O181  1  0.98596810  0.79586822  0.08687122  1
  O  O182  1  0.42003620  0.02557332  0.09155271  1
  O  O183  1  0.91373395  0.00923506  0.08657303  1
  O  O184  1  0.09463611  0.15877778  0.08431620  1
  O  O185  1  0.59422828  0.16170620  0.09219590  1
  O  O186  1  0.34729176  0.16057732  0.74501074  1
  O  O187  1  0.84811374  0.18821458  0.74199074  1
  O  O188  1  0.24167992  0.31497191  0.74805590  1
  O  O189  1  0.74297860  0.31318453  0.74513680  1
  O  O190  1  0.41045565  0.50784835  0.74154839  1
  O  O191  1  0.92648744  0.53688850  0.74458518  1
  O  O192  1  0.34856578  0.50947981  0.24237854  1
  O  O193  1  0.84810862  0.53477988  0.24503077  1
  O  O194  1  0.42474303  0.31527361  0.24322763  1
  O  O195  1  0.91015147  0.31259098  0.24136073  1
  O  O196  1  0.24343534  0.17285791  0.24548479  1
  O  O197  1  0.74147660  0.16573821  0.24736096  1
  O  O198  1  0.31697937  0.50777762  0.92187780  1
  O  O199  1  0.82522595  0.48467276  0.92554814  1
  O  O200  1  0.41885727  0.35799913  0.92447239  1
  O  O201  1  0.93667024  0.36300756  0.92033945  1
  O  O202  1  0.24592166  0.12191314  0.91973422  1
  O  O203  1  0.74471106  0.13312089  0.92000928  1
  O  O204  1  0.32715792  0.16737200  0.42506963  1
  O  O205  1  0.82190192  0.13218324  0.42324295  1
  O  O206  1  0.24440069  0.35283824  0.42072979  1
  O  O207  1  0.75286596  0.36036951  0.42105598  1
  O  O208  1  0.43605055  0.50422412  0.42176103  1
  O  O209  1  0.92131103  0.48666931  0.42495655  1
  O  O210  1  0.17578360  0.50771970  0.07073538  1
  O  O211  1  0.67492066  0.50536949  0.08010890  1
  O  O212  1  0.06740090  0.64493037  0.07464873  1
  O  O213  1  0.56261259  0.64246273  0.07881839  1
  O  O214  1  0.24184337  0.85380537  0.07400876  1
  O  O215  1  0.73831798  0.84849931  0.07083067  1
  O  O216  1  0.17331054  0.84230034  0.58170071  1
  O  O217  1  0.67503591  0.83880943  0.56910177  1
  O  O218  1  0.23810452  0.62749078  0.57189615  1
  O  O219  1  0.74258232  0.63165156  0.57781053  1
  O  O220  1  0.06240064  0.48202435  0.57846336  1
  O  O221  1  0.56532122  0.49305199  0.57835683  1
  O  O222  1  0.15582680  0.82735902  0.25160587  1
  O  O223  1  0.65945261  0.81964596  0.26189996  1
  O  O224  1  0.26035695  0.67929165  0.25993397  1
  O  O225  1  0.76766930  0.69588721  0.25623010  1
  O  O226  1  0.08727515  0.47058844  0.25818030  1
  O  O227  1  0.58388561  0.47475793  0.25694559  1
  O  O228  1  0.15852301  0.49554133  0.76195117  1
  O  O229  1  0.65554018  0.48216690  0.75225843  1
  O  O230  1  0.08525758  0.69948416  0.76064450  1
  O  O231  1  0.58701691  0.70298681  0.75918955  1
  O  O232  1  0.26534044  0.84059653  0.75981898  1
  O  O233  1  0.75911780  0.83996586  0.75931816  1
