# generated using pymatgen
data_Na15Ca2Ta10Si15(PO24)3
_symmetry_space_group_name_H-M   'P 1'
_cell_length_a   9.07147692
_cell_length_b   9.07830503
_cell_length_c   22.65915351
_cell_angle_alpha   90.11300352
_cell_angle_beta   89.94547949
_cell_angle_gamma   119.87772241
_symmetry_Int_Tables_number   1
_chemical_formula_structural   Na15Ca2Ta10Si15(PO24)3
_chemical_formula_sum   'Na15 Ca2 Ta10 Si15 P3 O72'
_cell_volume   1618.04292074
_cell_formula_units_Z   1
loop_
 _symmetry_equiv_pos_site_id
 _symmetry_equiv_pos_as_xyz
  1  'x, y, z'
loop_
 _atom_site_type_symbol
 _atom_site_label
 _atom_site_symmetry_multiplicity
 _atom_site_fract_x
 _atom_site_fract_y
 _atom_site_fract_z
 _atom_site_occupancy
  Na  Na0  1  0.63395161  0.01844642  0.24647723  1
  Na  Na1  1  0.38074029  0.36656835  0.24302560  1
  Na  Na2  1  0.98734942  0.61543867  0.24251121  1
  Na  Na3  1  0.63354568  0.61901256  0.74357717  1
  Na  Na4  1  0.98084141  0.36830152  0.74471276  1
  Na  Na5  1  0.38313283  0.01193396  0.74240807  1
  Na  Na6  1  0.02362129  0.68410045  0.58394305  1
  Na  Na7  1  0.65871485  0.97706759  0.58422179  1
  Na  Na8  1  0.02333300  0.34049650  0.08528777  1
  Na  Na9  1  0.00950544  0.01001450  0.49815103  1
  Na  Na10  1  0.99977252  0.98996193  0.99930843  1
  Na  Na11  1  0.67293468  0.33252279  0.83299545  1
  Na  Na12  1  0.66725594  0.32845015  0.33344974  1
  Na  Na13  1  0.34007030  0.67219025  0.16153606  1
  Na  Na14  1  0.33318747  0.65508869  0.66250630  1
  Ca  Ca15  1  0.66659926  0.33412531  0.68183245  1
  Ca  Ca16  1  0.66517609  0.33394939  0.18097585  1
  Ta  Ta17  1  0.00324443  0.00474625  0.35874993  1
  Ta  Ta18  1  0.99570863  0.99690279  0.85917907  1
  Ta  Ta19  1  0.99857564  0.99715877  0.64399042  1
  Ta  Ta20  1  0.00869874  0.00041203  0.14360407  1
  Ta  Ta21  1  0.66442521  0.33824558  0.97968509  1
  Ta  Ta22  1  0.66578068  0.33183305  0.47987891  1
  Ta  Ta23  1  0.33320290  0.66749585  0.01654786  1
  Ta  Ta24  1  0.33358999  0.66456007  0.51596609  1
  Ta  Ta25  1  0.32952416  0.66503266  0.31508951  1
  Ta  Ta26  1  0.33328564  0.67035177  0.81546960  1
  Si  Si27  1  0.28405679  0.99296702  0.25269144  1
  Si  Si28  1  0.00594276  0.28911619  0.25140851  1
  Si  Si29  1  0.00636756  0.71625805  0.75233811  1
  Si  Si30  1  0.70925159  0.99259901  0.75232574  1
  Si  Si31  1  0.96693758  0.33669689  0.58404941  1
  Si  Si32  1  0.37117322  0.03728007  0.58369479  1
  Si  Si33  1  0.65970309  0.62509763  0.58479372  1
  Si  Si34  1  0.96493869  0.63074199  0.08414557  1
  Si  Si35  1  0.37248450  0.33832864  0.08477900  1
  Si  Si36  1  0.62198658  0.66278391  0.91588481  1
  Si  Si37  1  0.03917856  0.37646549  0.91628176  1
  Si  Si38  1  0.33788720  0.96252302  0.91692414  1
  Si  Si39  1  0.62364375  0.96088468  0.41569251  1
  Si  Si40  1  0.33914306  0.37714985  0.41526891  1
  Si  Si41  1  0.03722562  0.66284656  0.41676229  1
  P  P42  1  0.71459318  0.72375873  0.25217928  1
  P  P43  1  0.27675128  0.28571946  0.75297363  1
  P  P44  1  0.66413851  0.03344445  0.08320698  1
  O  O45  1  0.17545290  0.00287744  0.30827955  1
  O  O46  1  0.82171445  0.81515096  0.30701470  1
  O  O47  1  0.99015801  0.16742538  0.30725038  1
  O  O48  1  0.18508738  0.17929888  0.80744625  1
  O  O49  1  -0.00010273  0.82825055  0.80761660  1
  O  O50  1  0.83183218  0.00917390  0.80775681  1
  O  O51  1  0.80462639  0.97201769  0.69196397  1
  O  O52  1  0.16693962  0.19602572  0.69643420  1
  O  O53  1  0.03083707  0.83251871  0.69181158  1
  O  O54  1  0.80225230  0.83422740  0.19599187  1
  O  O55  1  0.02616801  0.19447367  0.19115992  1
  O  O56  1  0.16263849  0.96925832  0.19326255  1
  O  O57  1  0.91649662  0.39024827  0.64474571  1
  O  O58  1  0.47579723  0.08465604  0.64401580  1
  O  O59  1  0.62416685  0.53790738  0.64752473  1
  O  O60  1  0.91681944  0.52621549  0.14457531  1
  O  O61  1  0.63006647  0.08886683  0.14256299  1
  O  O62  1  0.45962626  0.37276096  0.14760441  1
  O  O63  1  0.47737753  0.30951752  0.03016716  1
  O  O64  1  0.83280836  0.51959699  0.02976683  1
  O  O65  1  0.69552862  0.16217790  0.03267261  1
  O  O66  1  0.47629273  0.16780386  0.52901229  1
  O  O67  1  0.69802276  0.52506028  0.53112829  1
  O  O68  1  0.82879409  0.30063768  0.53024305  1
  O  O69  1  0.52449328  0.68935482  0.97107427  1
  O  O70  1  0.16153605  0.47205707  0.97273828  1
  O  O71  1  0.30962829  0.83469654  0.97096309  1
  O  O72  1  0.52905846  0.84172774  0.47262676  1
  O  O73  1  0.31191287  0.47666374  0.47010751  1
  O  O74  1  0.16006046  0.69159272  0.47291948  1
  O  O75  1  0.13646952  0.63841674  0.35809251  1
  O  O76  1  0.50295818  0.86267975  0.35705727  1
  O  O77  1  0.36161879  0.49450114  0.35619199  1
  O  O78  1  0.13595370  0.49792201  0.85760549  1
  O  O79  1  0.36284191  0.86593140  0.85724820  1
  O  O80  1  0.50449595  0.63780714  0.85661246  1
  O  O81  1  0.01768198  0.83096847  0.40925943  1
  O  O82  1  0.81130540  0.97795765  0.40916437  1
  O  O83  1  0.16818025  0.18876110  0.41003555  1
  O  O84  1  0.02350992  0.18976967  0.90928533  1
  O  O85  1  0.16988857  0.98244652  0.90948742  1
  O  O86  1  0.81167636  0.83126790  0.90998569  1
  O  O87  1  0.97299587  0.15783298  0.59013195  1
  O  O88  1  0.18008852  0.01790983  0.58921366  1
  O  O89  1  0.84078657  0.81703038  0.58881366  1
  O  O90  1  0.97247676  0.81608826  0.08945595  1
  O  O91  1  0.83345741  0.02568213  0.08748755  1
  O  O92  1  0.17620753  0.16314236  0.08809383  1
  O  O93  1  0.68531836  0.15556277  0.75327504  1
  O  O94  1  0.45280768  0.30578477  0.75052947  1
  O  O95  1  0.83963714  0.53292150  0.75428319  1
  O  O96  1  0.69446627  0.54781962  0.24990027  1
  O  O97  1  0.84261629  0.31309062  0.25280675  1
  O  O98  1  0.46819479  0.15844088  0.25271924  1
  O  O99  1  0.64102301  0.49382565  0.92474620  1
  O  O100  1  0.85156143  0.35617692  0.92552977  1
  O  O101  1  0.50828353  0.14664597  0.92568044  1
  O  O102  1  0.64146628  0.14785798  0.42370694  1
  O  O103  1  0.50743236  0.35964130  0.42463415  1
  O  O104  1  0.85273373  0.49230662  0.42464635  1
  O  O105  1  0.33410178  0.49475217  0.07120872  1
  O  O106  1  0.15601108  0.65993928  0.06934579  1
  O  O107  1  0.51313563  0.85349630  0.07005572  1
  O  O108  1  0.33682256  0.84350489  0.56968573  1
  O  O109  1  0.50909669  0.67044744  0.57085077  1
  O  O110  1  0.15476966  0.49874203  0.56899546  1
  O  O111  1  0.29571529  0.81581325  0.25535564  1
  O  O112  1  0.53556174  0.71113839  0.25557193  1
  O  O113  1  0.18589901  0.47601758  0.25555968  1
  O  O114  1  0.28786578  0.46372814  0.75556197  1
  O  O115  1  0.18319954  0.70266668  0.75559883  1
  O  O116  1  0.52302613  0.81225292  0.75561056  1
