# generated using pymatgen
data_Na4MgSi3Ge3(SO8)3
_symmetry_space_group_name_H-M   'P 1'
_cell_length_a   8.70561871
_cell_length_b   8.69978058
_cell_length_c   22.02485976
_cell_angle_alpha   89.26751680
_cell_angle_beta   91.42987903
_cell_angle_gamma   119.91611635
_symmetry_Int_Tables_number   1
_chemical_formula_structural   Na4MgSi3Ge3(SO8)3
_chemical_formula_sum   'Na12 Mg3 Si9 Ge9 S9 O72'
_cell_volume   1445.38289671
_cell_formula_units_Z   3
loop_
 _symmetry_equiv_pos_site_id
 _symmetry_equiv_pos_as_xyz
  1  'x, y, z'
loop_
 _atom_site_type_symbol
 _atom_site_label
 _atom_site_symmetry_multiplicity
 _atom_site_fract_x
 _atom_site_fract_y
 _atom_site_fract_z
 _atom_site_occupancy
  Na  Na0  1  0.63352675  0.00395536  0.24316650  1
  Na  Na1  1  0.37310435  0.35832335  0.25065517  1
  Na  Na2  1  0.99138684  0.63753985  0.24910797  1
  Na  Na3  1  0.99405763  0.36052614  0.75445933  1
  Na  Na4  1  0.37830214  0.00991945  0.75534062  1
  Na  Na5  1  0.70463407  0.67651567  0.40889400  1
  Na  Na6  1  0.00789430  0.01798037  0.49502570  1
  Na  Na7  1  0.00331592  0.00636407  0.00044407  1
  Na  Na8  1  0.65945005  0.33212606  0.83477194  1
  Na  Na9  1  0.65224500  0.32088971  0.32937965  1
  Na  Na10  1  0.34312334  0.67727949  0.16172910  1
  Na  Na11  1  0.34811260  0.66478861  0.66842720  1
  Mg  Mg12  1  0.00440698  0.00632494  0.35544729  1
  Mg  Mg13  1  0.66063190  0.32867536  0.68792692  1
  Mg  Mg14  1  0.65525701  0.32078280  0.18229784  1
  Si  Si15  1  0.28415287  0.99755585  0.25117497  1
  Si  Si16  1  0.71123095  0.70566542  0.25282925  1
  Si  Si17  1  0.29496732  0.29832048  0.75198237  1
  Si  Si18  1  0.70955756  0.98858985  0.75423170  1
  Si  Si19  1  0.66757744  0.03071573  0.08510860  1
  Si  Si20  1  0.05090665  0.39245438  0.91839450  1
  Si  Si21  1  0.32656257  0.95337012  0.91489851  1
  Si  Si22  1  0.62558817  0.96143373  0.41904251  1
  Si  Si23  1  0.32529078  0.37654313  0.41776665  1
  Ge  Ge24  1  0.02598742  0.04217378  0.85888126  1
  Ge  Ge25  1  0.98733302  0.00915995  0.65700285  1
  Ge  Ge26  1  0.97874541  0.97706076  0.14898431  1
  Ge  Ge27  1  0.67211270  0.30258106  0.97697144  1
  Ge  Ge28  1  0.64822918  0.31740777  0.47603032  1
  Ge  Ge29  1  0.33072590  0.67737658  0.01736571  1
  Ge  Ge30  1  0.34211070  0.66390513  0.51243729  1
  Ge  Ge31  1  0.36480110  0.68872649  0.31249932  1
  Ge  Ge32  1  0.34485471  0.66780187  0.81856700  1
  S  S33  1  0.00296926  0.29112354  0.25008392  1
  S  S34  1  0.99672949  0.71488070  0.74993688  1
  S  S35  1  0.96126294  0.33761748  0.58293922  1
  S  S36  1  0.36760787  0.03305911  0.58279097  1
  S  S37  1  0.66967496  0.62925520  0.58290406  1
  S  S38  1  0.95634544  0.62123990  0.08189886  1
  S  S39  1  0.37404496  0.33380046  0.08097618  1
  S  S40  1  0.62654086  0.66587120  0.91897710  1
  S  S41  1  0.04593022  0.66236904  0.41869522  1
  O  O42  1  0.20187204  0.04192793  0.30746357  1
  O  O43  1  0.82328570  0.78601580  0.31412358  1
  O  O44  1  0.96600318  0.18146035  0.30417962  1
  O  O45  1  0.20499914  0.15896393  0.80783211  1
  O  O46  1  0.96906120  0.79216119  0.80333815  1
  O  O47  1  0.84840016  0.02726120  0.81067928  1
  O  O48  1  0.78253150  0.94544837  0.69026171  1
  O  O49  1  0.15688486  0.21040470  0.69029546  1
  O  O50  1  0.03795034  0.83470596  0.69252070  1
  O  O51  1  0.78826025  0.83993557  0.19308666  1
  O  O52  1  0.04149140  0.21606994  0.19522269  1
  O  O53  1  0.15184694  0.95427891  0.18809648  1
  O  O54  1  0.88438539  0.36105185  0.63802696  1
  O  O55  1  0.47760408  0.11078039  0.63755080  1
  O  O56  1  0.64504968  0.51901095  0.63590538  1
  O  O57  1  0.88239783  0.52322763  0.13824423  1
  O  O58  1  0.63201415  0.10483121  0.14524699  1
  O  O59  1  0.47742204  0.36423586  0.13789790  1
  O  O60  1  0.46067120  0.30792391  0.02690170  1
  O  O61  1  0.84143841  0.53843504  0.02687491  1
  O  O62  1  0.70838920  0.16013770  0.02451013  1
  O  O63  1  0.45002865  0.14937476  0.52758253  1
  O  O64  1  0.69575541  0.55122828  0.52608664  1
  O  O65  1  0.84611798  0.30870083  0.52738348  1
  O  O66  1  0.54460306  0.69979718  0.97128663  1
  O  O67  1  0.18108631  0.47848170  0.97705498  1
  O  O68  1  0.29386472  0.83251184  0.97445893  1
  O  O69  1  0.53021443  0.83355789  0.47853267  1
  O  O70  1  0.29538858  0.46452843  0.47939995  1
  O  O71  1  0.15839730  0.69214064  0.47593888  1
  O  O72  1  0.11920985  0.62778173  0.36435068  1
  O  O73  1  0.50065405  0.88367177  0.35718169  1
  O  O74  1  0.37471872  0.51261254  0.35818806  1
  O  O75  1  0.13512372  0.50442318  0.85467479  1
  O  O76  1  0.36921349  0.87128653  0.85390340  1
  O  O77  1  0.51260715  0.62760618  0.86084044  1
  O  O78  1  0.02619244  0.81826688  0.41591872  1
  O  O79  1  0.81025539  0.96851766  0.41643833  1
  O  O80  1  0.16506033  0.18332997  0.41563770  1
  O  O81  1  0.02512951  0.19143460  0.91391434  1
  O  O82  1  0.14199067  0.96285004  0.90730206  1
  O  O83  1  0.80073195  0.82428790  0.91083322  1
  O  O84  1  0.97820897  0.17195982  0.58616914  1
  O  O85  1  0.18898590  0.01552183  0.58711343  1
  O  O86  1  0.83287294  0.81086853  0.58720983  1
  O  O87  1  0.97864955  0.80414249  0.08441936  1
  O  O88  1  0.85517834  0.01883662  0.08947268  1
  O  O89  1  0.19574752  0.17278272  0.08553696  1
  O  O90  1  0.69827445  0.16752516  0.74566414  1
  O  O91  1  0.48143921  0.31063964  0.74391404  1
  O  O92  1  0.84493718  0.53676092  0.73997791  1
  O  O93  1  0.68738033  0.51229871  0.24263891  1
  O  O94  1  0.85020588  0.31972847  0.24116383  1
  O  O95  1  0.48357432  0.15892218  0.24450806  1
  O  O96  1  0.63956805  0.50340472  0.92522836  1
  O  O97  1  0.85277906  0.37349770  0.92324169  1
  O  O98  1  0.50084852  0.15599130  0.92245676  1
  O  O99  1  0.64126188  0.15767088  0.42615908  1
  O  O100  1  0.52251184  0.38145053  0.42654202  1
  O  O101  1  0.86464229  0.49956222  0.42616793  1
  O  O102  1  0.35604419  0.49690129  0.07478898  1
  O  O103  1  0.13648817  0.63736407  0.07699137  1
  O  O104  1  0.48940310  0.83102176  0.07210558  1
  O  O105  1  0.35012849  0.85267193  0.57550801  1
  O  O106  1  0.50388751  0.64628446  0.57843973  1
  O  O107  1  0.14091761  0.50038421  0.57712138  1
  O  O108  1  0.29068248  0.80512745  0.25743159  1
  O  O109  1  0.50888094  0.68789512  0.25409804  1
  O  O110  1  0.16612873  0.47150021  0.25657972  1
  O  O111  1  0.29595784  0.48662051  0.75908395  1
  O  O112  1  0.16131724  0.70021644  0.75189595  1
  O  O113  1  0.50743870  0.81770621  0.75942717  1
