# generated using pymatgen
data_Na2Si2SnGeSO12
_symmetry_space_group_name_H-M   'P 1'
_cell_length_a   8.76572157
_cell_length_b   8.81769369
_cell_length_c   22.32951711
_cell_angle_alpha   89.57071056
_cell_angle_beta   90.71341906
_cell_angle_gamma   119.87474832
_symmetry_Int_Tables_number   1
_chemical_formula_structural   Na2Si2SnGeSO12
_chemical_formula_sum   'Na12 Si12 Sn6 Ge6 S6 O72'
_cell_volume   1496.46045151
_cell_formula_units_Z   6
loop_
 _symmetry_equiv_pos_site_id
 _symmetry_equiv_pos_as_xyz
  1  'x, y, z'
loop_
 _atom_site_type_symbol
 _atom_site_label
 _atom_site_symmetry_multiplicity
 _atom_site_fract_x
 _atom_site_fract_y
 _atom_site_fract_z
 _atom_site_occupancy
  Na  Na0  1  0.99421562  0.63258881  0.25393471  1
  Na  Na1  1  0.37024591  0.00241066  0.75505341  1
  Na  Na2  1  0.66100789  0.96632119  0.58730107  1
  Na  Na3  1  0.03879620  0.33642653  0.08594485  1
  Na  Na4  1  0.33375641  0.29848566  0.92071050  1
  Na  Na5  1  0.70649430  0.67114295  0.42047267  1
  Na  Na6  1  0.01286234  0.99289735  0.50099872  1
  Na  Na7  1  0.00131802  0.98336286  0.99799079  1
  Na  Na8  1  0.67920740  0.33014947  0.83580550  1
  Na  Na9  1  0.67391935  0.31738991  0.33196681  1
  Na  Na10  1  0.35013741  0.66311451  0.16468209  1
  Na  Na11  1  0.33883320  0.65093626  0.66815507  1
  Si  Si12  1  0.70243681  0.70509188  0.24774341  1
  Si  Si13  1  0.99065976  0.28883473  0.24535612  1
  Si  Si14  1  0.28734682  0.30246967  0.75411090  1
  Si  Si15  1  0.71027976  0.99403896  0.75431539  1
  Si  Si16  1  0.36688907  0.03842726  0.58307957  1
  Si  Si17  1  0.65800628  0.62435607  0.58057319  1
  Si  Si18  1  0.95036160  0.62101529  0.07918133  1
  Si  Si19  1  0.39237423  0.34328999  0.07922875  1
  Si  Si20  1  0.03836384  0.38388040  0.91628133  1
  Si  Si21  1  0.33027307  0.94746729  0.91668537  1
  Si  Si22  1  0.62124399  0.96153923  0.41739618  1
  Si  Si23  1  0.05130558  0.66874793  0.41755773  1
  Sn  Sn24  1  0.98602112  0.99376773  0.35301326  1
  Sn  Sn25  1  0.99734144  0.99839810  0.64966383  1
  Sn  Sn26  1  0.00229169  0.00021554  0.14344244  1
  Sn  Sn27  1  0.65149334  0.32740351  0.68812267  1
  Sn  Sn28  1  0.66827456  0.33384428  0.48062316  1
  Sn  Sn29  1  0.33131644  0.66296182  0.31269879  1
  Ge  Ge30  1  0.01781724  0.03323930  0.85590242  1
  Ge  Ge31  1  0.68565796  0.36660136  0.18374030  1
  Ge  Ge32  1  0.66550052  0.32659503  0.97947524  1
  Ge  Ge33  1  0.30437724  0.64949469  0.01898802  1
  Ge  Ge34  1  0.35025894  0.69896366  0.52039709  1
  Ge  Ge35  1  0.33652166  0.66786615  0.81703319  1
  S  S36  1  0.30054197  0.00968143  0.24955033  1
  S  S37  1  0.00019353  0.70652992  0.75387113  1
  S  S38  1  0.96773736  0.34228317  0.58442393  1
  S  S39  1  0.65612010  0.04244390  0.08187502  1
  S  S40  1  0.62543912  0.67148609  0.91759737  1
  S  S41  1  0.32757695  0.37382653  0.41860001  1
  O  O42  1  0.22150499  0.03609536  0.30406777  1
  O  O43  1  0.82516428  0.77008193  0.30916700  1
  O  O44  1  0.96515836  0.17609782  0.30631115  1
  O  O45  1  0.20973923  0.16926952  0.81248910  1
  O  O46  1  0.97230878  0.78881630  0.80575261  1
  O  O47  1  0.84094190  0.01891686  0.81101420  1
  O  O48  1  0.77647700  0.95774594  0.69054574  1
  O  O49  1  0.17154580  0.21510450  0.69396734  1
  O  O50  1  0.03441900  0.81176486  0.69742547  1
  O  O51  1  0.79672637  0.82706644  0.19042137  1
  O  O52  1  0.03398148  0.21536057  0.18504872  1
  O  O53  1  0.18540371  0.97160434  0.19574377  1
  O  O54  1  0.88731050  0.36901866  0.63837253  1
  O  O55  1  0.49258673  0.10521481  0.64367133  1
  O  O56  1  0.63182883  0.50888773  0.64072958  1
  O  O57  1  0.88242700  0.50376927  0.14152130  1
  O  O58  1  0.63434502  0.12226871  0.13611028  1
  O  O59  1  0.50909489  0.36244397  0.13989781  1
  O  O60  1  0.47174883  0.30575432  0.01867337  1
  O  O61  1  0.82462548  0.51607895  0.02295892  1
  O  O62  1  0.69189372  0.15426752  0.02729061  1
  O  O63  1  0.45921375  0.15861373  0.52535911  1
  O  O64  1  0.69992197  0.55140765  0.52004961  1
  O  O65  1  0.85431110  0.30421227  0.53013511  1
  O  O66  1  0.54490710  0.69832745  0.97104417  1
  O  O67  1  0.16509148  0.45301308  0.97692058  1
  O  O68  1  0.30267868  0.82322403  0.97538404  1
  O  O69  1  0.54320392  0.83685743  0.47759300  1
  O  O70  1  0.30484835  0.45591399  0.47143355  1
  O  O71  1  0.17218374  0.68338397  0.47611197  1
  O  O72  1  0.11773574  0.63243236  0.35433734  1
  O  O73  1  0.50674656  0.87069530  0.35801166  1
  O  O74  1  0.35933466  0.47742141  0.36247269  1
  O  O75  1  0.13893439  0.50921974  0.85961036  1
  O  O76  1  0.36472551  0.86659785  0.85590737  1
  O  O77  1  0.51100759  0.63462995  0.86276139  1
  O  O78  1  0.03882234  0.84940870  0.41480348  1
  O  O79  1  0.81384065  0.97162462  0.41663962  1
  O  O80  1  0.17258900  0.19726574  0.41294993  1
  O  O81  1  0.02696386  0.18909861  0.91124042  1
  O  O82  1  0.15209183  0.97297410  0.90874017  1
  O  O83  1  0.80207176  0.82485934  0.91110557  1
  O  O84  1  0.97762570  0.17913138  0.58859900  1
  O  O85  1  0.17483452  0.01885389  0.58905927  1
  O  O86  1  0.82193161  0.82656923  0.58671766  1
  O  O87  1  0.97306487  0.81478254  0.08375833  1
  O  O88  1  0.82193314  0.03116467  0.08399217  1
  O  O89  1  0.18898946  0.17612685  0.08445024  1
  O  O90  1  0.69351975  0.17301161  0.74971685  1
  O  O91  1  0.47973581  0.31147432  0.75115947  1
  O  O92  1  0.84500523  0.52970203  0.74705038  1
  O  O93  1  0.68933669  0.51178790  0.24168162  1
  O  O94  1  0.80857659  0.30265327  0.23762844  1
  O  O95  1  0.47474793  0.16322130  0.24242068  1
  O  O96  1  0.63691925  0.50738744  0.92081249  1
  O  O97  1  0.84109182  0.35731337  0.92492429  1
  O  O98  1  0.49985218  0.15095128  0.92471414  1
  O  O99  1  0.64098052  0.15302221  0.42093821  1
  O  O100  1  0.49038767  0.36041352  0.42080380  1
  O  O101  1  0.84865220  0.50444928  0.42143417  1
  O  O102  1  0.37094744  0.52205732  0.07279354  1
  O  O103  1  0.14635338  0.63375091  0.07529263  1
  O  O104  1  0.50257427  0.86632049  0.07559183  1
  O  O105  1  0.35369046  0.84506060  0.57760200  1
  O  O106  1  0.47468778  0.63605827  0.57327365  1
  O  O107  1  0.14228680  0.49515710  0.57745296  1
  O  O108  1  0.31107526  0.84698668  0.25344991  1
  O  O109  1  0.50934925  0.68358885  0.25277334  1
  O  O110  1  0.15450682  0.49143743  0.25098850  1
  O  O111  1  0.30659030  0.49409069  0.76326276  1
  O  O112  1  0.16346185  0.69392855  0.75807321  1
  O  O113  1  0.50791954  0.82685023  0.76224967  1
