# generated using pymatgen
data_BaMg(SbO3)2
_symmetry_space_group_name_H-M   'P 1'
_cell_length_a   5.82104944
_cell_length_b   5.82104900
_cell_length_c   5.47449430
_cell_angle_alpha   89.95869857
_cell_angle_beta   89.95869998
_cell_angle_gamma   119.98825186
_symmetry_Int_Tables_number   1
_chemical_formula_structural   BaMg(SbO3)2
_chemical_formula_sum   'Ba1 Mg1 Sb2 O6'
_cell_volume   160.66753555
_cell_formula_units_Z   1
loop_
 _symmetry_equiv_pos_site_id
 _symmetry_equiv_pos_as_xyz
  1  'x, y, z'
loop_
 _atom_site_type_symbol
 _atom_site_label
 _atom_site_symmetry_multiplicity
 _atom_site_fract_x
 _atom_site_fract_y
 _atom_site_fract_z
 _atom_site_occupancy
  Ba  Ba0  1  0.99927400  0.00072600  0.00000000  1
  Mg  Mg1  1  0.66568300  0.33431700  0.00000000  1
  Sb  Sb2  1  0.66635800  0.33364200  0.50000000  1
  Sb  Sb3  1  0.33269800  0.66730200  0.50000000  1
  O  O4  1  0.41561300  0.37122100  0.73065500  1
  O  O5  1  0.62830100  0.04489100  0.73063200  1
  O  O6  1  0.95514200  0.58445800  0.73046400  1
  O  O7  1  0.41554200  0.04485800  0.26953600  1
  O  O8  1  0.95510900  0.37169900  0.26936800  1
  O  O9  1  0.62877900  0.58438700  0.26934500  1
