# generated using pymatgen
data_Na4CaGe3(PO4)6
_symmetry_space_group_name_H-M   'P 1'
_cell_length_a   8.68298495
_cell_length_b   8.67884960
_cell_length_c   21.98652897
_cell_angle_alpha   90.08181634
_cell_angle_beta   89.98172774
_cell_angle_gamma   119.80811446
_symmetry_Int_Tables_number   1
_chemical_formula_structural   Na4CaGe3(PO4)6
_chemical_formula_sum   'Na12 Ca3 Ge9 P18 O72'
_cell_volume   1437.65447862
_cell_formula_units_Z   3
loop_
 _symmetry_equiv_pos_site_id
 _symmetry_equiv_pos_as_xyz
  1  'x, y, z'
loop_
 _atom_site_type_symbol
 _atom_site_label
 _atom_site_symmetry_multiplicity
 _atom_site_fract_x
 _atom_site_fract_y
 _atom_site_fract_z
 _atom_site_occupancy
  Na  Na0  1  0.65195839  0.01405268  0.24603305  1
  Na  Na1  1  0.36546038  0.35021681  0.24612034  1
  Na  Na2  1  0.98618521  0.63619516  0.24574718  1
  Na  Na3  1  0.98800565  0.36606880  0.74467171  1
  Na  Na4  1  0.38090177  0.00723141  0.74463478  1
  Na  Na5  1  0.70999461  0.67837449  0.41651209  1
  Na  Na6  1  0.01314840  0.01388230  0.50061556  1
  Na  Na7  1  0.99991284  0.00016477  -0.00083844  1
  Na  Na8  1  0.66460474  0.34773035  0.83542863  1
  Na  Na9  1  0.66513843  0.31822961  0.33339380  1
  Na  Na10  1  0.33326753  0.66642296  0.15783343  1
  Na  Na11  1  0.34992140  0.66343610  0.66128586  1
  Ca  Ca12  1  0.00857194  0.00926108  0.36029961  1
  Ca  Ca13  1  0.66536655  0.34156252  0.68207951  1
  Ca  Ca14  1  0.66731870  0.33480782  0.16727947  1
  Ge  Ge15  1  0.99895201  0.99832992  0.85771807  1
  Ge  Ge16  1  0.99672793  0.99736353  0.64447122  1
  Ge  Ge17  1  0.00197155  0.00154268  0.14308716  1
  Ge  Ge18  1  0.66729325  0.33321217  0.98366182  1
  Ge  Ge19  1  0.66590352  0.32809547  0.48486741  1
  Ge  Ge20  1  0.33382315  0.66689347  0.01331721  1
  Ge  Ge21  1  0.33080894  0.66742670  0.52087587  1
  Ge  Ge22  1  0.33150546  0.66721226  0.31641189  1
  Ge  Ge23  1  0.33762555  0.66509406  0.81599036  1
  P  P24  1  0.29045424  0.99132612  0.24825534  1
  P  P25  1  0.70155763  0.71069992  0.25176222  1
  P  P26  1  0.00805412  0.29816060  0.24866587  1
  P  P27  1  0.27413632  0.28545787  0.75492705  1
  P  P28  1  0.00959339  0.72405842  0.75495693  1
  P  P29  1  0.71256298  0.98104870  0.75381427  1
  P  P30  1  0.97071054  0.33375846  0.58453285  1
  P  P31  1  0.36315494  0.03007551  0.58471189  1
  P  P32  1  0.66640073  0.63896919  0.58118240  1
  P  P33  1  0.97641612  0.64097072  0.08047210  1
  P  P34  1  0.66428016  0.02356454  0.08070180  1
  P  P35  1  0.35918982  0.33546031  0.08052893  1
  P  P36  1  0.62311629  0.66314323  0.91646802  1
  P  P37  1  0.03965784  0.37666894  0.91564313  1
  P  P38  1  0.33770620  0.96073888  0.91560205  1
  P  P39  1  0.60326532  0.96053839  0.42049008  1
  P  P40  1  0.34978487  0.39039373  0.42193428  1
  P  P41  1  0.03798664  0.64320041  0.42068791  1
  O  O42  1  0.21848615  0.03034226  0.30473664  1
  O  O43  1  0.80114486  0.77703744  0.31126685  1
  O  O44  1  0.96519611  0.18544259  0.30472926  1
  O  O45  1  0.18529879  0.17228284  0.81242921  1
  O  O46  1  0.98947590  0.81206681  0.81321289  1
  O  O47  1  0.82785859  0.01249608  0.81113642  1
  O  O48  1  0.79747132  0.95784096  0.69440775  1
  O  O49  1  0.15632677  0.20287808  0.69674581  1
  O  O50  1  0.04219183  0.84046572  0.69697106  1
  O  O51  1  0.79768058  0.83889477  0.19574572  1
  O  O52  1  0.04440499  0.20927310  0.19090039  1
  O  O53  1  0.16638135  0.95745768  0.19053283  1
  O  O54  1  0.91426467  0.37072057  0.64500062  1
  O  O55  1  0.45740490  0.08475517  0.64502041  1
  O  O56  1  0.62332131  0.53623424  0.63890786  1
  O  O57  1  0.93062325  0.55518350  0.14237413  1
  O  O58  1  0.62529993  0.07114681  0.14256178  1
  O  O59  1  0.44452340  0.37504129  0.14263044  1
  O  O60  1  0.46814503  0.30247466  0.02995540  1
  O  O61  1  0.83500587  0.53267759  0.02988554  1
  O  O62  1  0.69842440  0.16475061  0.02973687  1
  O  O63  1  0.46499524  0.16595833  0.53202635  1
  O  O64  1  0.69979624  0.54539820  0.52453678  1
  O  O65  1  0.83560482  0.30120156  0.53164624  1
  O  O66  1  0.53484065  0.69838296  0.97072514  1
  O  O67  1  0.16631369  0.46821556  0.96889291  1
  O  O68  1  0.30382090  0.83483900  0.96889624  1
  O  O69  1  0.50392703  0.84128321  0.47355222  1
  O  O70  1  0.34244663  0.49506184  0.47594939  1
  O  O71  1  0.15282780  0.66213533  0.47505693  1
  O  O72  1  0.12238706  0.62652892  0.35836574  1
  O  O73  1  0.50084825  0.87909068  0.35778021  1
  O  O74  1  0.37688271  0.49994887  0.36015863  1
  O  O75  1  0.11971133  0.49130661  0.85624554  1
  O  O76  1  0.37178696  0.88006468  0.85600597  1
  O  O77  1  0.50385275  0.62581390  0.85856731  1
  O  O78  1  0.00644413  0.80004022  0.42116007  1
  O  O79  1  0.78503606  0.97675504  0.42048753  1
  O  O80  1  0.19088606  0.20829100  0.42381476  1
  O  O81  1  0.01796510  0.18708841  0.91108414  1
  O  O82  1  0.16885692  0.98143450  0.91137971  1
  O  O83  1  0.81144306  0.83130293  0.91106671  1
  O  O84  1  0.98158755  0.15896671  0.58782763  1
  O  O85  1  0.17775412  0.01975976  0.58859050  1
  O  O86  1  0.84246030  0.82268221  0.58652078  1
  O  O87  1  0.98572655  0.82545708  0.08371799  1
  O  O88  1  0.83840147  0.01206320  0.08412214  1
  O  O89  1  0.17496306  0.16118246  0.08325272  1
  O  O90  1  0.68815766  0.14382851  0.75134359  1
  O  O91  1  0.45566756  0.30268298  0.75255654  1
  O  O92  1  0.85398656  0.53721553  0.75308089  1
  O  O93  1  0.67008643  0.52356248  0.24185969  1
  O  O94  1  0.85569043  0.33467970  0.23970441  1
  O  O95  1  0.47867140  0.14430836  0.23994737  1
  O  O96  1  0.64239586  0.49518872  0.92479897  1
  O  O97  1  0.85327176  0.35931382  0.92432434  1
  O  O98  1  0.50559398  0.14718566  0.92411499  1
  O  O99  1  0.61310491  0.14373063  0.42563299  1
  O  O100  1  0.52681467  0.38220048  0.42441839  1
  O  O101  1  0.85319484  0.46755745  0.42420432  1
  O  O102  1  0.33580212  0.49688429  0.06543309  1
  O  O103  1  0.16090881  0.66447431  0.06511065  1
  O  O104  1  0.50250578  0.83984270  0.06572783  1
  O  O105  1  0.32959474  0.84008442  0.57213892  1
  O  O106  1  0.51156949  0.67747658  0.57076463  1
  O  O107  1  0.16046876  0.49115495  0.57250057  1
  O  O108  1  0.29169138  0.80983694  0.25442078  1
  O  O109  1  0.51639438  0.70591905  0.25563922  1
  O  O110  1  0.18907323  0.48040986  0.25569789  1
  O  O111  1  0.28486307  0.47216914  0.75940051  1
  O  O112  1  0.18729333  0.71184539  0.75844414  1
  O  O113  1  0.52423932  0.80965800  0.75824939  1
