# generated using pymatgen
data_Na4AlGaSi(PO6)2
_symmetry_space_group_name_H-M   'P 1'
_cell_length_a   8.82280506
_cell_length_b   8.81434812
_cell_length_c   21.46474877
_cell_angle_alpha   90.02106817
_cell_angle_beta   89.93473885
_cell_angle_gamma   119.99621738
_symmetry_Int_Tables_number   1
_chemical_formula_structural   Na4AlGaSi(PO6)2
_chemical_formula_sum   'Na24 Al6 Ga6 Si6 P12 O72'
_cell_volume   1445.67137834
_cell_formula_units_Z   6
loop_
 _symmetry_equiv_pos_site_id
 _symmetry_equiv_pos_as_xyz
  1  'x, y, z'
loop_
 _atom_site_type_symbol
 _atom_site_label
 _atom_site_symmetry_multiplicity
 _atom_site_fract_x
 _atom_site_fract_y
 _atom_site_fract_z
 _atom_site_occupancy
  Na  Na0  1  0.63715225  0.00068994  0.25135338  1
  Na  Na1  1  0.36130137  0.36513398  0.24829149  1
  Na  Na2  1  0.00045012  0.62829882  0.24942005  1
  Na  Na3  1  0.63422723  0.63642308  0.74904922  1
  Na  Na4  1  0.99769977  0.36344628  0.75209694  1
  Na  Na5  1  0.37322895  0.99994400  0.75068344  1
  Na  Na6  1  0.30119593  0.32798640  0.58219644  1
  Na  Na7  1  0.03627415  0.70342534  0.58155107  1
  Na  Na8  1  0.66550054  0.96767952  0.58700881  1
  Na  Na9  1  0.29370994  0.96031778  0.08083865  1
  Na  Na10  1  0.67150766  0.70134129  0.08167586  1
  Na  Na11  1  0.03499152  0.33477535  0.08655212  1
  Na  Na12  1  0.96990131  0.67066996  0.92042405  1
  Na  Na13  1  0.69657651  0.03461119  0.91356605  1
  Na  Na14  1  0.33371374  0.29645200  0.91721541  1
  Na  Na15  1  0.96338041  0.30164613  0.41332024  1
  Na  Na16  1  0.32998644  0.03221853  0.41978374  1
  Na  Na17  1  0.70378745  0.66574669  0.41669517  1
  Na  Na18  1  0.00274753  0.99833174  0.50022714  1
  Na  Na19  1  0.00253643  0.99707571  0.99987906  1
  Na  Na20  1  0.66436723  0.32773172  0.83427802  1
  Na  Na21  1  0.67295024  0.33547166  0.33337822  1
  Na  Na22  1  0.32706699  0.66249162  0.16597243  1
  Na  Na23  1  0.33834327  0.67395671  0.66721380  1
  Al  Al24  1  0.00224094  0.00135318  0.85287446  1
  Al  Al25  1  0.67440156  0.33447649  0.18446015  1
  Al  Al26  1  0.66618666  0.33491566  0.98109384  1
  Al  Al27  1  0.32580411  0.67031876  0.01813271  1
  Al  Al28  1  0.32952752  0.67285245  0.51841784  1
  Al  Al29  1  0.34062992  0.67712002  0.81604524  1
  Ga  Ga30  1  0.99894271  0.99759046  0.35083700  1
  Ga  Ga31  1  0.00163296  0.99888085  0.65052033  1
  Ga  Ga32  1  0.00109076  0.99760083  0.14784046  1
  Ga  Ga33  1  0.66570401  0.32297835  0.68495750  1
  Ga  Ga34  1  0.66446091  0.33253463  0.48270729  1
  Ga  Ga35  1  0.32039093  0.65767519  0.31592930  1
  Si  Si36  1  0.99703382  0.28859977  0.24913995  1
  Si  Si37  1  0.71047963  0.99702770  0.75184591  1
  Si  Si38  1  0.37227365  0.03738050  0.58317618  1
  Si  Si39  1  0.95645109  0.62089308  0.08230395  1
  Si  Si40  1  0.33361075  0.96071284  0.91677319  1
  Si  Si41  1  0.03824137  0.66616044  0.41730865  1
  P  P42  1  0.29686705  0.00440417  0.24893811  1
  P  P43  1  0.70577752  0.70427466  0.24928482  1
  P  P44  1  0.28932868  0.29434742  0.75210271  1
  P  P45  1  0.00206422  0.70961717  0.75181319  1
  P  P46  1  0.96249142  0.33629397  0.58259405  1
  P  P47  1  0.66383566  0.62367493  0.58324731  1
  P  P48  1  0.66368748  0.04484305  0.08188611  1
  P  P49  1  0.38323909  0.33678682  0.08233498  1
  P  P50  1  0.61881505  0.66604194  0.91739260  1
  P  P51  1  0.04815592  0.38027956  0.91678664  1
  P  P52  1  0.61955221  0.95203066  0.41716822  1
  P  P53  1  0.33474251  0.38075789  0.41788799  1
  O  O54  1  0.21838939  0.04005023  0.30788778  1
  O  O55  1  0.82316353  0.78074234  0.30755791  1
  O  O56  1  0.95819680  0.16529848  0.31117315  1
  O  O57  1  0.20167849  0.17206223  0.80822466  1
  O  O58  1  0.97234395  0.79920467  0.80850053  1
  O  O59  1  0.83817661  0.03034316  0.81116158  1
  O  O60  1  0.79178779  0.95909033  0.68882699  1
  O  O61  1  0.17984070  0.21891813  0.69194263  1
  O  O62  1  0.04248055  0.82228360  0.69208747  1
  O  O63  1  0.78676975  0.82085816  0.19128705  1
  O  O64  1  0.03808551  0.20310608  0.18831829  1
  O  O65  1  0.17741871  0.96226884  0.19151734  1
  O  O66  1  0.88622167  0.37805884  0.64119217  1
  O  O67  1  0.49619348  0.11998262  0.64475851  1
  O  O68  1  0.63144519  0.50879142  0.64216833  1
  O  O69  1  0.86744025  0.49942938  0.14374254  1
  O  O70  1  0.63029663  0.12631950  0.14076492  1
  O  O71  1  0.49560524  0.36287014  0.14119893  1
  O  O72  1  0.46850324  0.30657037  0.02450802  1
  O  O73  1  0.83210289  0.53276437  0.02141597  1
  O  O74  1  0.69296892  0.16130590  0.02433970  1
  O  O75  1  0.45523510  0.16422280  0.52242442  1
  O  O76  1  0.70065727  0.54397221  0.52537395  1
  O  O77  1  0.84497669  0.30054261  0.52516629  1
  O  O78  1  0.53161107  0.69567909  0.97512749  1
  O  O79  1  0.16481673  0.46304585  0.97479036  1
  O  O80  1  0.29415721  0.83439809  0.97732860  1
  O  O81  1  0.53122250  0.83582654  0.47465832  1
  O  O82  1  0.31123781  0.47378398  0.47498048  1
  O  O83  1  0.16451187  0.70070399  0.47700255  1
  O  O84  1  0.11500388  0.62450067  0.35429653  1
  O  O85  1  0.50942027  0.87090798  0.35751808  1
  O  O86  1  0.36914464  0.49133136  0.35799844  1
  O  O87  1  0.13498005  0.49701556  0.85896003  1
  O  O88  1  0.37231089  0.87356899  0.85607327  1
  O  O89  1  0.50270244  0.63294391  0.85919755  1
  O  O90  1  0.02201735  0.84457811  0.41197307  1
  O  O91  1  0.80400347  0.97138236  0.41462615  1
  O  O92  1  0.16668621  0.19821666  0.41485578  1
  O  O93  1  0.02612617  0.19381630  0.91155525  1
  O  O94  1  0.15745783  0.98110012  0.90960439  1
  O  O95  1  0.80422702  0.83187280  0.91194186  1
  O  O96  1  0.97976962  0.17053292  0.58836754  1
  O  O97  1  0.17625090  0.01656982  0.58901231  1
  O  O98  1  0.82718882  0.80914660  0.58724250  1
  O  O99  1  0.97900420  0.81939481  0.08713492  1
  O  O100  1  0.82997017  0.02712975  0.08598572  1
  O  O101  1  0.19758660  0.17219149  0.08531187  1
  O  O102  1  0.69375154  0.17591860  0.74835712  1
  O  O103  1  0.47579589  0.31734173  0.74779160  1
  O  O104  1  0.83270439  0.52749318  0.74633817  1
  O  O105  1  0.68070632  0.51721397  0.24254621  1
  O  O106  1  0.82082093  0.30716453  0.24379217  1
  O  O107  1  0.47887426  0.17196667  0.24097784  1
  O  O108  1  0.64085231  0.50161831  0.92179702  1
  O  O109  1  0.86270823  0.36062175  0.92186471  1
  O  O110  1  0.50909715  0.15738436  0.92370756  1
  O  O111  1  0.63918721  0.13692520  0.42128234  1
  O  O112  1  0.49704954  0.35727423  0.42114130  1
  O  O113  1  0.84234297  0.49140597  0.42280436  1
  O  O114  1  0.36617125  0.50402349  0.07692425  1
  O  O115  1  0.15175334  0.63884451  0.07732606  1
  O  O116  1  0.50086882  0.85747243  0.07654824  1
  O  O117  1  0.35611419  0.84390638  0.57735818  1
  O  O118  1  0.49703855  0.64007248  0.57654453  1
  O  O119  1  0.14922943  0.49802528  0.57577753  1
  O  O120  1  0.32374284  0.84352752  0.25446938  1
  O  O121  1  0.52334487  0.68872004  0.25557022  1
  O  O122  1  0.17360533  0.48441302  0.25253466  1
  O  O123  1  0.30622329  0.47747392  0.75969968  1
  O  O124  1  0.16223094  0.68237823  0.75864611  1
  O  O125  1  0.51414323  0.82183124  0.75664712  1
