# generated using pymatgen
data_MgV2(PO5)2
_symmetry_space_group_name_H-M   'P 1'
_cell_length_a   5.39245397
_cell_length_b   5.26609252
_cell_length_c   7.37608340
_cell_angle_alpha   109.77791041
_cell_angle_beta   110.86143032
_cell_angle_gamma   97.18087365
_symmetry_Int_Tables_number   1
_chemical_formula_structural   MgV2(PO5)2
_chemical_formula_sum   'Mg1 V2 P2 O10'
_cell_volume   176.85878202
_cell_formula_units_Z   1
loop_
 _symmetry_equiv_pos_site_id
 _symmetry_equiv_pos_as_xyz
  1  'x, y, z'
loop_
 _atom_site_type_symbol
 _atom_site_label
 _atom_site_symmetry_multiplicity
 _atom_site_fract_x
 _atom_site_fract_y
 _atom_site_fract_z
 _atom_site_occupancy
  Mg  Mg0  1  0.39701300  0.52731900  0.27390400  1
  V  V1  1  0.99176800  0.49644900  0.49860100  1
  V  V2  1  0.50715500  0.98747400  0.98646800  1
  P  P3  1  0.11809600  0.92540300  0.24942100  1
  P  P4  1  0.88663300  0.08532100  0.74969000  1
  O  O5  1  0.15923100  0.76357700  0.39492100  1
  O  O6  1  0.32448100  0.83371300  0.15214500  1
  O  O7  1  0.88101500  0.24213700  0.60763100  1
  O  O8  1  0.68177400  0.15698800  0.84761600  1
  O  O9  1  0.81549300  0.83314700  0.08909300  1
  O  O10  1  0.20976200  0.25288800  0.37194600  1
  O  O11  1  0.18187300  0.17336900  0.93420600  1
  O  O12  1  0.78410200  0.76287500  0.59782400  1
  O  O13  1  0.68429800  0.33573600  0.24322900  1
  O  O14  1  0.30230600  0.68610600  0.75330600  1
