# generated using pymatgen
data_Na4YTa3Si4(PO12)2
_symmetry_space_group_name_H-M   'P 1'
_cell_length_a   9.03741841
_cell_length_b   9.06109231
_cell_length_c   22.83704083
_cell_angle_alpha   90.06413108
_cell_angle_beta   89.97700196
_cell_angle_gamma   120.06484388
_symmetry_Int_Tables_number   1
_chemical_formula_structural   Na4YTa3Si4(PO12)2
_chemical_formula_sum   'Na12 Y3 Ta9 Si12 P6 O72'
_cell_volume   1618.49358126
_cell_formula_units_Z   3
loop_
 _symmetry_equiv_pos_site_id
 _symmetry_equiv_pos_as_xyz
  1  'x, y, z'
loop_
 _atom_site_type_symbol
 _atom_site_label
 _atom_site_symmetry_multiplicity
 _atom_site_fract_x
 _atom_site_fract_y
 _atom_site_fract_z
 _atom_site_occupancy
  Na  Na0  1  0.63242985  0.62585895  0.74652048  1
  Na  Na1  1  0.99508911  0.36982110  0.74709899  1
  Na  Na2  1  0.31630085  0.97684730  0.08409479  1
  Na  Na3  1  0.02419722  0.34293909  0.08389342  1
  Na  Na4  1  0.96332188  0.29376372  0.41371789  1
  Na  Na5  1  0.70568843  0.67784626  0.41647988  1
  Na  Na6  1  0.00565963  0.99404435  0.50203203  1
  Na  Na7  1  0.98931232  0.98903499  0.99612668  1
  Na  Na8  1  0.65045994  0.31607705  0.83436833  1
  Na  Na9  1  0.65523035  0.32188278  0.32546852  1
  Na  Na10  1  0.34653681  0.66472478  0.16497496  1
  Na  Na11  1  0.33417105  0.67162519  0.66600817  1
  Y  Y12  1  0.00706722  0.99937189  0.35405353  1
  Y  Y13  1  0.65794475  0.32511030  0.68546077  1
  Y  Y14  1  0.66788748  0.33635569  0.18246965  1
  Ta  Ta15  1  0.00345124  0.00592286  0.85802944  1
  Ta  Ta16  1  0.99535911  0.00216168  0.64500039  1
  Ta  Ta17  1  0.99600931  0.99679286  0.14629865  1
  Ta  Ta18  1  0.66680462  0.33446645  0.97788532  1
  Ta  Ta19  1  0.66972070  0.33151491  0.48302574  1
  Ta  Ta20  1  0.33677543  0.66717153  0.01568259  1
  Ta  Ta21  1  0.33531759  0.66963577  0.52197693  1
  Ta  Ta22  1  0.33103389  0.67231766  0.31083840  1
  Ta  Ta23  1  0.33608021  0.66956730  0.81468467  1
  Si  Si24  1  0.28463037  0.28842279  0.75200416  1
  Si  Si25  1  0.71065315  0.99447135  0.75239117  1
  Si  Si26  1  0.96482752  0.33339915  0.58538188  1
  Si  Si27  1  0.66940444  0.63075121  0.58453165  1
  Si  Si28  1  0.96012447  0.62699120  0.08115131  1
  Si  Si29  1  0.66428646  0.03737524  0.08153121  1
  Si  Si30  1  0.37445518  0.33791051  0.08236234  1
  Si  Si31  1  0.62458843  0.66318304  0.91495962  1
  Si  Si32  1  0.03954123  0.37773710  0.91552385  1
  Si  Si33  1  0.33588103  0.95883125  0.91658680  1
  Si  Si34  1  0.61254230  0.95953539  0.41704729  1
  Si  Si35  1  0.04290928  0.66050397  0.41826860  1
  P  P36  1  0.29301064  0.99371525  0.24905663  1
  P  P37  1  0.70126670  0.70869034  0.25226055  1
  P  P38  1  0.00769710  0.29837151  0.25175325  1
  P  P39  1  0.01112027  0.72543661  0.75138833  1
  P  P40  1  0.36847245  0.03780855  0.58176501  1
  P  P41  1  0.34391479  0.39121661  0.41760555  1
  O  O42  1  0.20896132  0.00924264  0.30421875  1
  O  O43  1  0.79492606  0.78760489  0.30966994  1
  O  O44  1  0.99150487  0.20329100  0.30874666  1
  O  O45  1  0.18313378  0.17108313  0.80862143  1
  O  O46  1  0.98995617  0.81366660  0.80574398  1
  O  O47  1  0.82957886  0.00605930  0.80789262  1
  O  O48  1  0.80545460  0.96728632  0.69321734  1
  O  O49  1  0.16460750  0.18923852  0.69367980  1
  O  O50  1  0.03019829  0.83102918  0.69513554  1
  O  O51  1  0.80609277  0.82906750  0.19892890  1
  O  O52  1  0.02439786  0.19807294  0.19725236  1
  O  O53  1  0.17971396  0.97449577  0.19380557  1
  O  O54  1  0.89735497  0.36994642  0.64483662  1
  O  O55  1  0.47400895  0.10166049  0.63658848  1
  O  O56  1  0.62880528  0.52645013  0.64417596  1
  O  O57  1  0.90246972  0.50521812  0.13684660  1
  O  O58  1  0.60729453  0.10005589  0.13779413  1
  O  O59  1  0.48059034  0.37933650  0.14089362  1
  O  O60  1  0.46569779  0.29374884  0.02748752  1
  O  O61  1  0.83132630  0.53153671  0.02553993  1
  O  O62  1  0.70696193  0.17180272  0.02671742  1
  O  O63  1  0.46595778  0.15847036  0.52847443  1
  O  O64  1  0.68939008  0.52399816  0.52712607  1
  O  O65  1  0.83284314  0.30442262  0.52813381  1
  O  O66  1  0.52557871  0.69037977  0.96997467  1
  O  O67  1  0.15875633  0.47054551  0.97250724  1
  O  O68  1  0.30872070  0.84062456  0.97380310  1
  O  O69  1  0.51623730  0.83377431  0.47174056  1
  O  O70  1  0.32364476  0.48115619  0.47150842  1
  O  O71  1  0.16105293  0.67273096  0.47303364  1
  O  O72  1  0.13601068  0.63174423  0.35921269  1
  O  O73  1  0.49572562  0.85865147  0.35814719  1
  O  O74  1  0.36851958  0.50153655  0.36193476  1
  O  O75  1  0.13584683  0.49599312  0.85721587  1
  O  O76  1  0.36019684  0.85843255  0.85974186  1
  O  O77  1  0.50367347  0.63745533  0.85637990  1
  O  O78  1  0.00692536  0.81662978  0.41885223  1
  O  O79  1  0.80362593  0.98645083  0.41587918  1
  O  O80  1  0.18087135  0.21602431  0.41549294  1
  O  O81  1  0.02112576  0.18807693  0.90973867  1
  O  O82  1  0.16509653  0.97548292  0.90894904  1
  O  O83  1  0.81342366  0.83186242  0.90870291  1
  O  O84  1  0.97872718  0.15874844  0.58947120  1
  O  O85  1  0.19199688  0.02374086  0.58702355  1
  O  O86  1  0.84684957  0.81668987  0.58909466  1
  O  O87  1  0.98182201  0.81912116  0.09321532  1
  O  O88  1  0.84189044  0.02748958  0.09343351  1
  O  O89  1  0.18063963  0.15981878  0.09278655  1
  O  O90  1  0.70541023  0.16817356  0.75135244  1
  O  O91  1  0.47755547  0.32560049  0.75225041  1
  O  O92  1  0.85148261  0.54710816  0.74845817  1
  O  O93  1  0.67782663  0.53230606  0.24701687  1
  O  O94  1  0.85607491  0.32473646  0.24687958  1
  O  O95  1  0.47303117  0.14249610  0.24601274  1
  O  O96  1  0.63693767  0.49156142  0.92403772  1
  O  O97  1  0.85199892  0.35930339  0.92324603  1
  O  O98  1  0.50632093  0.14524288  0.92428113  1
  O  O99  1  0.62931115  0.14842609  0.42412800  1
  O  O100  1  0.50777470  0.37698257  0.42370216  1
  O  O101  1  0.85211670  0.48205717  0.42458932  1
  O  O102  1  0.32920224  0.48990511  0.07044481  1
  O  O103  1  0.15638700  0.66495387  0.06925572  1
  O  O104  1  0.50347418  0.84571261  0.06919184  1
  O  O105  1  0.34306136  0.85707186  0.57018982  1
  O  O106  1  0.50799098  0.66134760  0.57086669  1
  O  O107  1  0.15462656  0.49504161  0.57112654  1
  O  O108  1  0.29750433  0.82050339  0.25416076  1
  O  O109  1  0.52288624  0.70040647  0.25447024  1
  O  O110  1  0.18003696  0.47558845  0.25505258  1
  O  O111  1  0.29009635  0.47568736  0.75573480  1
  O  O112  1  0.17147966  0.70261377  0.75624372  1
  O  O113  1  0.52275341  0.81742286  0.75618136  1
