# generated using pymatgen
data_MgVRhO4
_symmetry_space_group_name_H-M   'P 1'
_cell_length_a   3.05531906
_cell_length_b   5.27675273
_cell_length_c   5.27675273
_cell_angle_alpha   75.71865206
_cell_angle_beta   90.00000000
_cell_angle_gamma   90.00000000
_symmetry_Int_Tables_number   1
_chemical_formula_structural   MgVRhO4
_chemical_formula_sum   'Mg1 V1 Rh1 O4'
_cell_volume   82.44359039
_cell_formula_units_Z   1
loop_
 _symmetry_equiv_pos_site_id
 _symmetry_equiv_pos_as_xyz
  1  'x, y, z'
loop_
 _atom_site_type_symbol
 _atom_site_label
 _atom_site_symmetry_multiplicity
 _atom_site_fract_x
 _atom_site_fract_y
 _atom_site_fract_z
 _atom_site_occupancy
  Mg  Mg0  1  0.50000000  0.20546541  0.20546541  1
  V  V1  1  0.00000000  0.91201609  0.91201609  1
  Rh  Rh2  1  0.50000000  0.52461476  0.52461476  1
  O  O3  1  0.00000000  0.34831415  0.34831415  1
  O  O4  1  0.50000000  0.19143859  0.82559270  1
  O  O5  1  0.50000000  0.82559270  0.19143859  1
  O  O6  1  0.00000000  0.68700230  0.68700230  1
