# generated using pymatgen
data_Na30Ca16Nb8Si15(S7O48)3
_symmetry_space_group_name_H-M   'P 1'
_cell_length_a   18.59356633
_cell_length_b   9.27837195
_cell_length_c   23.32122347
_cell_angle_alpha   89.90840099
_cell_angle_beta   90.12922632
_cell_angle_gamma   119.93876368
_symmetry_Int_Tables_number   1
_chemical_formula_structural   Na30Ca16Nb8Si15(S7O48)3
_chemical_formula_sum   'Na30 Ca16 Nb8 Si15 S21 O144'
_cell_volume   3486.44583808
_cell_formula_units_Z   1
loop_
 _symmetry_equiv_pos_site_id
 _symmetry_equiv_pos_as_xyz
  1  'x, y, z'
loop_
 _atom_site_type_symbol
 _atom_site_label
 _atom_site_symmetry_multiplicity
 _atom_site_fract_x
 _atom_site_fract_y
 _atom_site_fract_z
 _atom_site_occupancy
  Na  Na0  1  0.33042648  0.03633941  0.24953631  1
  Na  Na1  1  0.82842006  0.03051962  0.24994099  1
  Na  Na2  1  0.18426647  0.33458573  0.24988915  1
  Na  Na3  1  0.68179165  0.33584086  0.24799907  1
  Na  Na4  1  0.98293231  0.62710399  0.25057802  1
  Na  Na5  1  0.48332657  0.61710111  0.23922906  1
  Na  Na6  1  0.32829342  0.62541295  0.75191727  1
  Na  Na7  1  0.83277376  0.62895643  0.75288564  1
  Na  Na8  1  0.98234120  0.34488928  0.74325702  1
  Na  Na9  1  0.48188928  0.34522896  0.74151508  1
  Na  Na10  1  0.18031610  0.03034724  0.75054110  1
  Na  Na11  1  0.68268271  0.03129857  0.75067009  1
  Na  Na12  1  0.01194569  0.66925486  0.59292164  1
  Na  Na13  1  0.51196467  0.66885204  0.59201878  1
  Na  Na14  1  0.51255205  0.35436028  0.08799959  1
  Na  Na15  1  0.47856292  0.66909314  0.91646618  1
  Na  Na16  1  0.47961627  0.28933276  0.41925894  1
  Na  Na17  1  0.97821187  0.28710315  0.42108006  1
  Na  Na18  1  0.99652530  0.00842586  0.50937872  1
  Na  Na19  1  0.49835377  0.00939983  0.50849181  1
  Na  Na20  1  0.00070788  0.00109813  0.99661020  1
  Na  Na21  1  0.49643133  0.98609466  0.00252738  1
  Na  Na22  1  0.32623003  0.31772245  0.82385121  1
  Na  Na23  1  0.83638977  0.33858721  0.82496622  1
  Na  Na24  1  0.32980538  0.33640572  0.32364774  1
  Na  Na25  1  0.82445308  0.33143827  0.32636414  1
  Na  Na26  1  0.16614229  0.66482231  0.15454056  1
  Na  Na27  1  0.66344941  0.68387874  0.15220506  1
  Na  Na28  1  0.16208300  0.64202481  0.65501900  1
  Na  Na29  1  0.66316246  0.64307023  0.65385478  1
  Ca  Ca30  1  0.00015139  0.99410443  0.35088774  1
  Ca  Ca31  1  0.50169447  0.99364307  0.35040355  1
  Ca  Ca32  1  0.00058932  0.00253418  0.85192812  1
  Ca  Ca33  1  0.50041131  0.00902407  0.85050465  1
  Ca  Ca34  1  0.33293664  0.32939202  0.67846770  1
  Ca  Ca35  1  0.83378636  0.32811926  0.67809665  1
  Ca  Ca36  1  0.33350653  0.33706557  0.17718401  1
  Ca  Ca37  1  0.83367258  0.33387421  0.17695965  1
  Ca  Ca38  1  0.33178651  0.34283159  0.98561226  1
  Ca  Ca39  1  0.83517876  0.33723967  0.97983954  1
  Ca  Ca40  1  0.33392281  0.32231712  0.48745141  1
  Ca  Ca41  1  0.83332492  0.32065464  0.48808616  1
  Ca  Ca42  1  0.16718019  0.66518086  0.01846189  1
  Ca  Ca43  1  0.67122752  0.67632239  0.01946805  1
  Ca  Ca44  1  0.17171052  0.66830081  0.52003387  1
  Ca  Ca45  1  0.67155458  0.66829173  0.51969501  1
  Nb  Nb46  1  0.99902084  0.01529891  0.65699913  1
  Nb  Nb47  1  0.49841893  0.01421946  0.65768704  1
  Nb  Nb48  1  0.99972215  0.99984658  0.15811460  1
  Nb  Nb49  1  0.49898406  0.98337080  0.15628025  1
  Nb  Nb50  1  0.16780447  0.66813318  0.30788496  1
  Nb  Nb51  1  0.66646788  0.66557235  0.30756851  1
  Nb  Nb52  1  0.16385249  0.66788565  0.80850004  1
  Nb  Nb53  1  0.66738301  0.66687232  0.80824721  1
  Si  Si54  1  0.14762511  0.99685490  0.25273148  1
  Si  Si55  1  0.64929178  -0.00056049  0.25406497  1
  Si  Si56  1  0.34933059  0.70155095  0.25322621  1
  Si  Si57  1  0.84928840  0.70200382  0.25190341  1
  Si  Si58  1  0.00195720  0.29982933  0.25606446  1
  Si  Si59  1  0.50103257  0.29322115  0.25358560  1
  Si  Si60  1  0.14805283  0.30037109  0.75532882  1
  Si  Si61  1  0.64890207  0.30011908  0.75475126  1
  Si  Si62  1  0.00050212  0.70944933  0.74961269  1
  Si  Si63  1  0.50140690  0.70846930  0.75434616  1
  Si  Si64  1  0.34727517  0.99552277  0.75368807  1
  Si  Si65  1  0.84941244  0.99728952  0.75417773  1
  Si  Si66  1  0.48871165  0.32781299  0.58378260  1
  Si  Si67  1  0.98908156  0.32797983  0.58350718  1
  Si  Si68  1  0.48809311  0.64746030  0.08418015  1
  S  S69  1  0.17139747  0.02605318  0.58612237  1
  S  S70  1  0.67063939  0.02473336  0.58672676  1
  S  S71  1  0.34289507  0.65285016  0.58694124  1
  S  S72  1  0.84239229  0.65219423  0.58671778  1
  S  S73  1  0.98730714  0.65694378  0.08766149  1
  S  S74  1  0.33996593  0.02798332  0.08763371  1
  S  S75  1  0.84418735  0.03147529  0.08758256  1
  S  S76  1  0.16968042  0.31626640  0.08857740  1
  S  S77  1  0.67322650  0.31786829  0.08613290  1
  S  S78  1  0.30990052  0.66071964  0.91347417  1
  S  S79  1  0.80881201  0.65987658  0.91365950  1
  S  S80  1  0.02162099  0.38314075  0.91396866  1
  S  S81  1  0.52205618  0.38354233  0.91563211  1
  S  S82  1  0.17038003  0.95690293  0.91431938  1
  S  S83  1  0.66917025  0.95713677  0.91295560  1
  S  S84  1  0.30986641  0.95917477  0.41192441  1
  S  S85  1  0.81012368  0.96012082  0.41191818  1
  S  S86  1  0.16941242  0.38371000  0.41223298  1
  S  S87  1  0.66968610  0.38303360  0.41250114  1
  S  S88  1  0.02268006  0.66019896  0.41406962  1
  S  S89  1  0.52292018  0.66057418  0.41433263  1
  O  O90  1  0.11238729  0.04703374  0.30570709  1
  O  O91  1  0.61713582  0.05283280  0.30785623  1
  O  O92  1  0.40796660  0.77519509  0.30682681  1
  O  O93  1  0.90969891  0.77387360  0.30502409  1
  O  O94  1  0.48702517  0.19577925  0.31236005  1
  O  O95  1  0.98231526  0.19804734  0.31413584  1
  O  O96  1  0.11512298  0.18096348  0.80866601  1
  O  O97  1  0.61520621  0.18146352  0.80843614  1
  O  O98  1  0.48596199  0.77680858  0.81288078  1
  O  O99  1  0.98125194  0.78901773  0.80280603  1
  O  O100  1  0.40866596  0.04483697  0.80611672  1
  O  O101  1  0.91058312  0.04793877  0.80665999  1
  O  O102  1  0.39932034  0.96567638  0.69760818  1
  O  O103  1  0.90057923  0.96646927  0.69762551  1
  O  O104  1  0.07990508  0.19986684  0.69973482  1
  O  O105  1  0.58007611  0.19940574  0.69977093  1
  O  O106  1  0.01939043  0.83272790  0.69113596  1
  O  O107  1  0.51811945  0.83851733  0.69827773  1
  O  O108  1  0.40046561  0.83362266  0.19718907  1
  O  O109  1  0.90140664  0.83836119  0.19645905  1
  O  O110  1  0.01705556  0.18956035  0.20249716  1
  O  O111  1  0.51836486  0.19851986  0.19760516  1
  O  O112  1  0.07951163  0.96192785  0.19692692  1
  O  O113  1  0.58045631  0.96152961  0.19953428  1
  O  O114  1  0.44362219  0.34860180  0.63989986  1
  O  O115  1  0.94340644  0.34675662  0.63945131  1
  O  O116  1  0.21524988  0.10158931  0.64010776  1
  O  O117  1  0.71480969  0.10092691  0.64046230  1
  O  O118  1  0.33156087  0.56068735  0.64081684  1
  O  O119  1  0.83140149  0.56063150  0.64058581  1
  O  O120  1  0.44524441  0.54202399  0.14179613  1
  O  O121  1  0.95078866  0.56676399  0.14185107  1
  O  O122  1  0.32932755  0.09678286  0.14188267  1
  O  O123  1  0.83570569  0.10412871  0.14182197  1
  O  O124  1  0.21510010  0.33185498  0.14239473  1
  O  O125  1  0.71643824  0.33125572  0.14103353  1
  O  O126  1  0.21116983  0.29692431  0.03810758  1
  O  O127  1  0.71813327  0.30313197  0.03690601  1
  O  O128  1  0.43668011  0.57390287  0.02435079  1
  O  O129  1  0.93555686  0.56912893  0.03764889  1
  O  O130  1  0.34825532  0.13552932  0.03834914  1
  O  O131  1  0.85107467  0.13407129  0.03758369  1
  O  O132  1  0.21505842  0.12879088  0.53557572  1
  O  O133  1  0.71330572  0.12736885  0.53591418  1
  O  O134  1  0.35016712  0.56196639  0.53714858  1
  O  O135  1  0.84936298  0.56010593  0.53700485  1
  O  O136  1  0.43933189  0.29626001  0.52250519  1
  O  O137  1  0.93983823  0.29665791  0.52204641  1
  O  O138  1  0.26615116  0.66076476  0.96516570  1
  O  O139  1  0.76529314  0.66115167  0.96518345  1
  O  O140  1  0.06632581  0.47077648  0.96579781  1
  O  O141  1  0.56515728  0.46524631  0.96893033  1
  O  O142  1  0.17059740  0.86724922  0.96573363  1
  O  O143  1  0.66707096  0.86397625  0.96391197  1
  O  O144  1  0.26635627  0.87103965  0.46316653  1
  O  O145  1  0.76650911  0.87289372  0.46323904  1
  O  O146  1  0.16744773  0.47291761  0.46295908  1
  O  O147  1  0.66856135  0.47350086  0.46310047  1
  O  O148  1  0.06616782  0.66334585  0.46686435  1
  O  O149  1  0.56608436  0.66390312  0.46726161  1
  O  O150  1  0.07526694  0.66082782  0.36234911  1
  O  O151  1  0.57589364  0.66114060  0.36292073  1
  O  O152  1  0.26084281  0.85736376  0.35904979  1
  O  O153  1  0.76262847  0.86011219  0.35878446  1
  O  O154  1  0.17147272  0.48664557  0.35889844  1
  O  O155  1  0.67171849  0.48505202  0.35892321  1
  O  O156  1  0.07225561  0.48558298  0.86136360  1
  O  O157  1  0.57408955  0.48855987  0.86429949  1
  O  O158  1  0.17002870  0.85397839  0.86116104  1
  O  O159  1  0.67193439  0.86180155  0.85967040  1
  O  O160  1  0.26282641  0.66455565  0.86046612  1
  O  O161  1  0.75800423  0.65954615  0.86074591  1
  O  O162  1  0.01166311  0.80510973  0.41190832  1
  O  O163  1  0.51163430  0.80517574  0.41205896  1
  O  O164  1  0.39448674  0.98176239  0.41188989  1
  O  O165  1  0.89506608  0.98295205  0.41261024  1
  O  O166  1  0.09094391  0.22218235  0.41082586  1
  O  O167  1  0.59133351  0.22164024  0.41170333  1
  O  O168  1  0.01386866  0.21800007  0.91302850  1
  O  O169  1  0.51048126  0.21558593  0.91380100  1
  O  O170  1  0.09518408  0.97026027  0.91329311  1
  O  O171  1  0.59108486  0.96305835  0.91212289  1
  O  O172  1  0.39523851  0.80760352  0.91471021  1
  O  O173  1  0.89154554  0.80911725  0.91254112  1
  O  O174  1  0.49588411  0.15185053  0.59662559  1
  O  O175  1  0.99624821  0.15156948  0.59547430  1
  O  O176  1  0.08578712  0.00636362  0.58754239  1
  O  O177  1  0.58456926  0.00346152  0.58890133  1
  O  O178  1  0.42533261  0.81468846  0.59017134  1
  O  O179  1  0.92449573  0.81459310  0.58917618  1
  O  O180  1  0.49612091  0.83907647  0.09679186  1
  O  O181  1  0.99234791  0.82602777  0.09105729  1
  O  O182  1  0.42202059  0.02842742  0.09057146  1
  O  O183  1  0.92408825  0.02317294  0.09121308  1
  O  O184  1  0.08460430  0.15979661  0.09254944  1
  O  O185  1  0.58693939  0.16539030  0.08825922  1
  O  O186  1  0.31942536  0.13065571  0.74187543  1
  O  O187  1  0.82041523  0.13037996  0.74191090  1
  O  O188  1  0.24140964  0.35050563  0.73969498  1
  O  O189  1  0.74215924  0.35181445  0.73925475  1
  O  O190  1  0.42822110  0.52046853  0.74303380  1
  O  O191  1  0.92895672  0.51845396  0.74166218  1
  O  O192  1  0.32169606  0.51080190  0.24175599  1
  O  O193  1  0.82400598  0.51315695  0.23862064  1
  O  O194  1  0.42738245  0.33408107  0.24309383  1
  O  O195  1  0.93199897  0.34550388  0.23966206  1
  O  O196  1  0.24132298  0.13369652  0.23893637  1
  O  O197  1  0.74304386  0.13627282  0.23861943  1
  O  O198  1  0.31635456  0.50667040  0.90928237  1
  O  O199  1  0.81266717  0.50417807  0.90923512  1
  O  O200  1  0.44174628  0.38277804  0.91070240  1
  O  O201  1  0.93998178  0.37462695  0.90965635  1
  O  O202  1  0.24754580  0.11973981  0.90951344  1
  O  O203  1  0.74409760  0.12348032  0.91100125  1
  O  O204  1  0.31485493  0.12415180  0.40663813  1
  O  O205  1  0.81602263  0.12633232  0.40688832  1
  O  O206  1  0.24394813  0.36783622  0.40905820  1
  O  O207  1  0.74425679  0.36653109  0.40929052  1
  O  O208  1  0.44279844  0.50073804  0.40887532  1
  O  O209  1  0.94257634  0.50039328  0.40853735  1
  O  O210  1  0.15671297  0.46136697  0.08377661  1
  O  O211  1  0.66015778  0.46354566  0.08135516  1
  O  O212  1  0.07319259  0.68503010  0.08292671  1
  O  O213  1  0.57977919  0.66510043  0.08185713  1
  O  O214  1  0.27069032  0.85465751  0.08142413  1
  O  O215  1  0.77385078  0.85880420  0.08302006  1
  O  O216  1  0.15951032  0.85506035  0.58150390  1
  O  O217  1  0.65901019  0.85420229  0.58185435  1
  O  O218  1  0.27518803  0.69127861  0.58079317  1
  O  O219  1  0.77443656  0.69003957  0.58052403  1
  O  O220  1  0.08128567  0.49319476  0.58116182  1
  O  O221  1  0.58064129  0.49368835  0.58147865  1
  O  O222  1  0.14361314  0.81123324  0.26059464  1
  O  O223  1  0.64645957  0.81480152  0.26094262  1
  O  O224  1  0.26048660  0.71212792  0.25893559  1
  O  O225  1  0.76043040  0.70949193  0.25871480  1
  O  O226  1  0.09435658  0.48011148  0.25974296  1
  O  O227  1  0.59188596  0.48265947  0.25991224  1
  O  O228  1  0.14464375  0.47895869  0.76129998  1
  O  O229  1  0.64462195  0.47780000  0.76126280  1
  O  O230  1  0.09203907  0.70661083  0.75964348  1
  O  O231  1  0.59295670  0.70460987  0.76068574  1
  O  O232  1  0.25924317  0.80849521  0.76028530  1
  O  O233  1  0.76108456  0.80871024  0.76008807  1
