# generated using pymatgen
data_Na8Y2Ti2Si5SO24
_symmetry_space_group_name_H-M   'P 1'
_cell_length_a   9.27121903
_cell_length_b   9.26502782
_cell_length_c   22.53962328
_cell_angle_alpha   90.27298539
_cell_angle_beta   89.46168765
_cell_angle_gamma   120.14358396
_symmetry_Int_Tables_number   1
_chemical_formula_structural   Na8Y2Ti2Si5SO24
_chemical_formula_sum   'Na24 Y6 Ti6 Si15 S3 O72'
_cell_volume   1674.21607306
_cell_formula_units_Z   3
loop_
 _symmetry_equiv_pos_site_id
 _symmetry_equiv_pos_as_xyz
  1  'x, y, z'
loop_
 _atom_site_type_symbol
 _atom_site_label
 _atom_site_symmetry_multiplicity
 _atom_site_fract_x
 _atom_site_fract_y
 _atom_site_fract_z
 _atom_site_occupancy
  Na  Na0  1  0.64776473  0.00881604  0.25208847  1
  Na  Na1  1  0.35190860  0.36163638  0.24983764  1
  Na  Na2  1  0.99957812  0.64157912  0.25025421  1
  Na  Na3  1  0.63219410  0.63129354  0.74656992  1
  Na  Na4  1  0.98926648  0.35710389  0.74742799  1
  Na  Na5  1  0.37164760  0.01274374  0.74761847  1
  Na  Na6  1  0.29415270  0.33323064  0.58876393  1
  Na  Na7  1  0.04088848  0.70773918  0.58355802  1
  Na  Na8  1  0.66718679  0.95654615  0.58390033  1
  Na  Na9  1  0.28487250  0.96573898  0.08213938  1
  Na  Na10  1  0.67203365  0.68886492  0.09044191  1
  Na  Na11  1  0.04674065  0.33734775  0.09005266  1
  Na  Na12  1  0.97883513  0.67010896  0.91530219  1
  Na  Na13  1  0.70756247  0.04617881  0.90474739  1
  Na  Na14  1  0.31909593  0.28304958  0.91726756  1
  Na  Na15  1  0.95416681  0.29589139  0.41088268  1
  Na  Na16  1  0.33072006  0.02258209  0.41635755  1
  Na  Na17  1  0.70919805  0.67495186  0.41869631  1
  Na  Na18  1  0.98910241  0.98695874  0.50400271  1
  Na  Na19  1  0.02549523  0.00980023  0.00006753  1
  Na  Na20  1  0.66853661  0.32433989  0.82687383  1
  Na  Na21  1  0.67219852  0.32901701  0.33384238  1
  Na  Na22  1  0.32363246  0.65180887  0.17115743  1
  Na  Na23  1  0.33776976  0.66615526  0.66658165  1
  Y  Y24  1  0.99623865  0.99667634  0.34569153  1
  Y  Y25  1  0.00635481  0.00430869  0.84299392  1
  Y  Y26  1  0.00435485  0.00045037  0.15683049  1
  Y  Y27  1  0.66708269  0.33201111  0.97912501  1
  Y  Y28  1  0.31991460  0.65705516  0.02021181  1
  Y  Y29  1  0.33547454  0.67323858  0.52200330  1
  Ti  Ti30  1  0.99934040  0.00018975  0.65028694  1
  Ti  Ti31  1  0.66531649  0.33323334  0.68362016  1
  Ti  Ti32  1  0.66729470  0.35245834  0.18843918  1
  Ti  Ti33  1  0.68009496  0.32953898  0.48705534  1
  Ti  Ti34  1  0.32905308  0.68640930  0.31416357  1
  Ti  Ti35  1  0.31236758  0.66914009  0.80714132  1
  Si  Si36  1  0.31518121  0.00781218  0.25000657  1
  Si  Si37  1  0.68266436  0.69318606  0.25095583  1
  Si  Si38  1  0.00034415  0.31651275  0.25033503  1
  Si  Si39  1  0.30217761  0.30302124  0.74708397  1
  Si  Si40  1  0.99137560  0.69834719  0.74757574  1
  Si  Si41  1  0.69744971  0.99870168  0.74826994  1
  Si  Si42  1  0.95160253  0.32131432  0.58716924  1
  Si  Si43  1  0.37682841  0.05391198  0.58511363  1
  Si  Si44  1  0.67720167  0.62158594  0.58462953  1
  Si  Si45  1  0.95861059  0.62961403  0.08460062  1
  Si  Si46  1  0.37350519  0.33247301  0.08493077  1
  Si  Si47  1  0.04045100  0.37099441  0.91246883  1
  Si  Si48  1  0.33284182  0.95826389  0.91404192  1
  Si  Si49  1  0.62877072  0.96838554  0.41786381  1
  Si  Si50  1  0.03110549  0.66143767  0.41866645  1
  S  S51  1  0.67048721  0.04133037  0.08540584  1
  S  S52  1  0.62416105  0.66811603  0.91364704  1
  S  S53  1  0.33823762  0.37398853  0.41620236  1
  O  O54  1  0.24231043  0.05663538  0.30763024  1
  O  O55  1  0.81160034  0.76571144  0.30601135  1
  O  O56  1  0.95502518  0.19178882  0.30693097  1
  O  O57  1  0.23956145  0.19160987  0.80727388  1
  O  O58  1  0.94887581  0.76101449  0.80894773  1
  O  O59  1  0.80709898  0.04157896  0.80831510  1
  O  O60  1  0.80572078  0.96922476  0.69386880  1
  O  O61  1  0.16456559  0.19600751  0.69323742  1
  O  O62  1  0.02880862  0.83543098  0.69355156  1
  O  O63  1  0.75420230  0.81253339  0.19269496  1
  O  O64  1  0.04611272  0.24063421  0.19229759  1
  O  O65  1  0.18931112  0.95190197  0.19395128  1
  O  O66  1  0.85202091  0.34521157  0.64238327  1
  O  O67  1  0.49517200  0.15127077  0.64176220  1
  O  O68  1  0.65781552  0.50487869  0.64168581  1
  O  O69  1  0.84598385  0.50677634  0.14077366  1
  O  O70  1  0.65449877  0.12935772  0.13758107  1
  O  O71  1  0.49410037  0.33754765  0.14049967  1
  O  O72  1  0.44915028  0.30610801  0.02286161  1
  O  O73  1  0.86120477  0.54648028  0.02310396  1
  O  O74  1  0.68789837  0.13366358  0.02949204  1
  O  O75  1  0.47579557  0.17024100  0.52536720  1
  O  O76  1  0.69938294  0.52476523  0.52487851  1
  O  O77  1  0.83545657  0.30004845  0.52643544  1
  O  O78  1  0.54885591  0.68450549  0.97016678  1
  O  O79  1  0.14443067  0.44641565  0.97361613  1
  O  O80  1  0.32159684  0.86204050  0.97574189  1
  O  O81  1  0.55595536  0.85455881  0.47694462  1
  O  O82  1  0.31500023  0.44753780  0.47131141  1
  O  O83  1  0.13958374  0.68776364  0.47778434  1
  O  O84  1  0.13782381  0.64550677  0.36085784  1
  O  O85  1  0.50119570  0.86180248  0.36154252  1
  O  O86  1  0.35246244  0.47568417  0.36371186  1
  O  O87  1  0.15434441  0.49659841  0.85582324  1
  O  O88  1  0.34223136  0.84554987  0.85632132  1
  O  O89  1  0.52247568  0.65418629  0.86163208  1
  O  O90  1  0.01239096  0.82727219  0.41351042  1
  O  O91  1  0.81770514  0.99957078  0.41146534  1
  O  O92  1  0.18894369  0.20276852  0.41291311  1
  O  O93  1  0.01207807  0.18230922  0.91108913  1
  O  O94  1  0.16310366  0.97090277  0.91285514  1
  O  O95  1  0.79364331  0.81724947  0.91154528  1
  O  O96  1  0.96195679  0.14925020  0.59040456  1
  O  O97  1  0.19147642  0.03849135  0.58966748  1
  O  O98  1  0.84658644  0.80791467  0.58958460  1
  O  O99  1  0.97310390  0.81280795  0.08741803  1
  O  O100  1  0.82129302  0.02462238  0.08789733  1
  O  O101  1  0.18446326  0.17192810  0.08836123  1
  O  O102  1  0.67214098  0.16026347  0.73860572  1
  O  O103  1  0.48969090  0.32873382  0.73749196  1
  O  O104  1  0.83619728  0.50896246  0.73842063  1
  O  O105  1  0.66116169  0.50504010  0.24145866  1
  O  O106  1  0.83493179  0.33653719  0.24055838  1
  O  O107  1  0.50432722  0.16296021  0.23856153  1
  O  O108  1  0.63761795  0.51409186  0.91501144  1
  O  O109  1  0.86286595  0.36816148  0.90963122  1
  O  O110  1  0.50351231  0.14054140  0.90899749  1
  O  O111  1  0.63292738  0.15023423  0.42184554  1
  O  O112  1  0.49320407  0.36220626  0.41881896  1
  O  O113  1  0.84604422  0.48641358  0.42119571  1
  O  O114  1  0.37519016  0.51028634  0.08915867  1
  O  O115  1  0.14205149  0.64393499  0.08995695  1
  O  O116  1  0.51935665  0.87257768  0.08353663  1
  O  O117  1  0.35901093  0.86901888  0.58531638  1
  O  O118  1  0.50814833  0.63481453  0.58378683  1
  O  O119  1  0.13668493  0.48531455  0.58470444  1
  O  O120  1  0.33152761  0.83855729  0.26011440  1
  O  O121  1  0.49620913  0.66481970  0.26436687  1
  O  O122  1  0.16741299  0.50124154  0.26122369  1
  O  O123  1  0.31384259  0.48646497  0.75259416  1
  O  O124  1  0.16724938  0.68891275  0.75237082  1
  O  O125  1  0.51388892  0.82506232  0.75361008  1
