# generated using pymatgen
data_MgMn5O9F
_symmetry_space_group_name_H-M   'P 1'
_cell_length_a   5.34430305
_cell_length_b   5.21463183
_cell_length_c   7.92102187
_cell_angle_alpha   108.73779773
_cell_angle_beta   75.50031999
_cell_angle_gamma   79.19745277
_symmetry_Int_Tables_number   1
_chemical_formula_structural   MgMn5O9F
_chemical_formula_sum   'Mg1 Mn5 O9 F1'
_cell_volume   193.55945140
_cell_formula_units_Z   1
loop_
 _symmetry_equiv_pos_site_id
 _symmetry_equiv_pos_as_xyz
  1  'x, y, z'
loop_
 _atom_site_type_symbol
 _atom_site_label
 _atom_site_symmetry_multiplicity
 _atom_site_fract_x
 _atom_site_fract_y
 _atom_site_fract_z
 _atom_site_occupancy
  Mg  Mg0  1  0.50573400  0.22631500  0.91562200  1
  Mn  Mn1  1  0.98753100  0.19401700  0.39825100  1
  Mn  Mn2  1  0.99989800  0.99932700  0.00515500  1
  Mn  Mn3  1  0.96644900  0.60442100  0.20815100  1
  Mn  Mn4  1  0.00369100  0.78763000  0.58835400  1
  Mn  Mn5  1  0.00202800  0.40794200  0.79456700  1
  O  O6  1  0.19046300  0.20951500  0.15203900  1
  O  O7  1  0.17795300  0.79237000  0.34400400  1
  O  O8  1  0.18244300  0.40355000  0.54647000  1
  O  O9  1  0.19759100  0.58994100  0.96193500  1
  O  O10  1  0.79328400  0.38130000  0.02818200  1
  O  O11  1  0.78618900  0.98443000  0.26313800  1
  O  O12  1  0.78082600  0.55861100  0.42837600  1
  O  O13  1  0.81056700  0.18556700  0.65193800  1
  O  O14  1  0.80443300  0.84642800  0.84640300  1
  F  F15  1  0.29556000  0.01637000  0.76414200  1
