# generated using pymatgen
data_Ba2LuMgSbO6
_symmetry_space_group_name_H-M   'P 1'
_cell_length_a   6.23925002
_cell_length_b   7.13472815
_cell_length_c   6.23828124
_cell_angle_alpha   64.07608508
_cell_angle_beta   60.00513618
_cell_angle_gamma   64.32282113
_symmetry_Int_Tables_number   1
_chemical_formula_structural   Ba2LuMgSbO6
_chemical_formula_sum   'Ba2 Lu1 Mg1 Sb1 O6'
_cell_volume   207.92320210
_cell_formula_units_Z   1
loop_
 _symmetry_equiv_pos_site_id
 _symmetry_equiv_pos_as_xyz
  1  'x, y, z'
loop_
 _atom_site_type_symbol
 _atom_site_label
 _atom_site_symmetry_multiplicity
 _atom_site_fract_x
 _atom_site_fract_y
 _atom_site_fract_z
 _atom_site_occupancy
  Ba  Ba0  1  0.22206088  0.32610870  0.22591521  1
  Ba  Ba1  1  0.81150746  0.55880953  0.81484151  1
  Lu  Lu2  1  0.47400590  0.57701814  0.47448798  1
  Mg  Mg3  1  0.61276488  0.14738037  0.61992738  1
  Sb  Sb4  1  0.02991505  0.91211637  0.02898429  1
  O  O5  1  0.71153639  0.30888553  0.26236010  1
  O  O6  1  0.71153639  0.30888553  0.71721797  1
  O  O7  1  0.78840223  0.72282959  0.24438409  1
  O  O8  1  0.24762259  0.73095141  0.77991514  1
  O  O9  1  0.24762259  0.73095141  0.24151086  1
  O  O10  1  0.25760864  0.31148042  0.71545547  1
