# generated using pymatgen
data_MgFe8(OF)8
_symmetry_space_group_name_H-M   'P 1'
_cell_length_a   9.78779676
_cell_length_b   9.82122021
_cell_length_c   3.14158100
_cell_angle_alpha   90.00000000
_cell_angle_beta   90.00000000
_cell_angle_gamma   94.93331193
_symmetry_Int_Tables_number   1
_chemical_formula_structural   MgFe8(OF)8
_chemical_formula_sum   'Mg1 Fe8 O8 F8'
_cell_volume   300.87548782
_cell_formula_units_Z   1
loop_
 _symmetry_equiv_pos_site_id
 _symmetry_equiv_pos_as_xyz
  1  'x, y, z'
loop_
 _atom_site_type_symbol
 _atom_site_label
 _atom_site_symmetry_multiplicity
 _atom_site_fract_x
 _atom_site_fract_y
 _atom_site_fract_z
 _atom_site_occupancy
  Mg  Mg0  1  0.47900100  0.73719200  0.00000000  1
  Fe  Fe1  1  0.00855100  0.01352100  0.00000000  1
  Fe  Fe2  1  0.01932900  0.47635900  0.00000000  1
  Fe  Fe3  1  0.22612700  0.25842000  0.50000000  1
  Fe  Fe4  1  0.11653900  0.73204300  0.50000000  1
  Fe  Fe5  1  0.54548600  0.45846600  0.00000000  1
  Fe  Fe6  1  0.48103000  0.03330700  0.00000000  1
  Fe  Fe7  1  0.76615100  0.26886400  0.50000000  1
  Fe  Fe8  1  0.77532600  0.70978000  0.50000000  1
  O  O9  1  0.10656600  0.40195300  0.50000000  1
  O  O10  1  0.07061600  0.91452600  0.50000000  1
  O  O11  1  0.14656300  0.15972800  0.00000000  1
  O  O12  1  0.16405500  0.64444200  0.00000000  1
  O  O13  1  0.61144300  0.36485900  0.50000000  1
  O  O14  1  0.66496600  0.64707000  0.00000000  1
  O  O15  1  0.86070200  0.34657700  0.00000000  1
  O  O16  1  0.93654400  0.61645400  0.50000000  1
  F  F17  1  0.34632600  0.35345500  0.00000000  1
  F  F18  1  0.34453500  0.87140800  0.00000000  1
  F  F19  1  0.38885600  0.12872100  0.50000000  1
  F  F20  1  0.43259400  0.61832400  0.50000000  1
  F  F21  1  0.56362100  0.87232800  0.50000000  1
  F  F22  1  0.66635200  0.13295400  0.00000000  1
  F  F23  1  0.84097500  0.85005000  0.00000000  1
  F  F24  1  0.89608000  0.09753000  0.50000000  1
