# generated using pymatgen
data_Na14Nb5In3(SiO4)12
_symmetry_space_group_name_H-M   'P 1'
_cell_length_a   18.36695404
_cell_length_b   9.17671255
_cell_length_c   22.42312424
_cell_angle_alpha   90.03699574
_cell_angle_beta   89.89664556
_cell_angle_gamma   119.98664973
_symmetry_Int_Tables_number   1
_chemical_formula_structural   Na14Nb5In3(SiO4)12
_chemical_formula_sum   'Na42 Nb15 In9 Si36 O144'
_cell_volume   3273.47256271
_cell_formula_units_Z   3
loop_
 _symmetry_equiv_pos_site_id
 _symmetry_equiv_pos_as_xyz
  1  'x, y, z'
loop_
 _atom_site_type_symbol
 _atom_site_label
 _atom_site_symmetry_multiplicity
 _atom_site_fract_x
 _atom_site_fract_y
 _atom_site_fract_z
 _atom_site_occupancy
  Na  Na0  1  0.31942251  0.01408086  0.24654811  1
  Na  Na1  1  0.81605168  0.00963182  0.24438150  1
  Na  Na2  1  0.18903036  0.36823564  0.24429012  1
  Na  Na3  1  0.68769548  0.36130642  0.24695710  1
  Na  Na4  1  0.99497099  0.62000826  0.24570467  1
  Na  Na5  1  0.49219610  0.62572537  0.24595277  1
  Na  Na6  1  0.31586375  0.62232488  0.74582362  1
  Na  Na7  1  0.81552183  0.62183228  0.74622855  1
  Na  Na8  1  0.99460247  0.36830399  0.74663388  1
  Na  Na9  1  0.49439800  0.36782154  0.74621291  1
  Na  Na10  1  0.19007935  0.01002430  0.74615327  1
  Na  Na11  1  0.68953832  0.00975248  0.74595792  1
  Na  Na12  1  0.15374862  0.34894477  0.57915392  1
  Na  Na13  1  0.65255051  0.34747900  0.57892266  1
  Na  Na14  1  0.02068832  0.69418764  0.57886061  1
  Na  Na15  1  0.52066202  0.69365945  0.57887629  1
  Na  Na16  1  0.32553062  0.95650779  0.57853866  1
  Na  Na17  1  0.82654358  0.95885382  0.58003118  1
  Na  Na18  1  0.15424999  0.95885738  0.07923264  1
  Na  Na19  1  0.65354549  0.95844242  0.07923303  1
  Na  Na20  1  0.32628767  0.69481328  0.07999568  1
  Na  Na21  1  0.82556665  0.69334219  0.07974413  1
  Na  Na22  1  0.02033328  0.34754348  0.07857217  1
  Na  Na23  1  0.52028515  0.34746957  0.07895898  1
  Na  Na24  1  0.34875236  0.02812002  0.91970945  1
  Na  Na25  1  0.84863282  0.02813572  0.91972185  1
  Na  Na26  1  0.48492876  0.29090063  0.41407505  1
  Na  Na27  1  0.65970674  0.02903041  0.41378494  1
  Na  Na28  1  0.35395185  0.68030377  0.41441314  1
  Na  Na29  1  0.84871678  0.67031670  0.41738338  1
  Na  Na30  1  0.00609035  0.01172762  0.49654772  1
  Na  Na31  1  0.49943816  0.99987751  0.49335129  1
  Na  Na32  1  0.00582585  0.99980840  0.99723544  1
  Na  Na33  1  0.50573765  0.00017992  0.99803847  1
  Na  Na34  1  0.33296639  0.34046155  0.83355967  1
  Na  Na35  1  0.83287415  0.34041476  0.83361087  1
  Na  Na36  1  0.33035210  0.32833847  0.32979328  1
  Na  Na37  1  0.83588299  0.33019619  0.33015806  1
  Na  Na38  1  0.16751601  0.66749569  0.15991798  1
  Na  Na39  1  0.66612861  0.66661121  0.15963553  1
  Na  Na40  1  0.16732302  0.66744350  0.66042419  1
  Na  Na41  1  0.66632677  0.66623692  0.66084711  1
  Nb  Nb42  1  0.00271155  0.00423238  0.35422101  1
  Nb  Nb43  1  0.00192038  0.00035306  0.85481471  1
  Nb  Nb44  1  0.50188927  0.00016085  0.85479998  1
  Nb  Nb45  1  -0.00006367  0.99963554  0.64490848  1
  Nb  Nb46  1  0.49980028  0.99984968  0.64416611  1
  Nb  Nb47  1  0.99979018  -0.00011386  0.14431857  1
  Nb  Nb48  1  0.49979666  0.00010889  0.14634496  1
  Nb  Nb49  1  0.33366997  0.33770255  0.97877588  1
  Nb  Nb50  1  0.83343642  0.33742021  0.97885146  1
  Nb  Nb51  1  0.33052975  0.32846181  0.47918903  1
  Nb  Nb52  1  0.83631981  0.33448306  0.47917729  1
  Nb  Nb53  1  0.16719342  0.66851584  0.31484866  1
  Nb  Nb54  1  0.66580248  0.66567410  0.31339516  1
  Nb  Nb55  1  0.16618294  0.66516250  0.81545196  1
  Nb  Nb56  1  0.66596106  0.66492685  0.81545938  1
  In  In57  1  0.49941881  0.99957374  0.34982948  1
  In  In58  1  0.33316925  0.33295485  0.68597998  1
  In  In59  1  0.83333900  0.33314431  0.68622908  1
  In  In60  1  0.33265109  0.33300023  0.18322973  1
  In  In61  1  0.83383629  0.33395042  0.18431902  1
  In  In62  1  0.16567955  0.66530454  0.01439440  1
  In  In63  1  0.66566203  0.66520481  0.01430126  1
  In  In64  1  0.16371141  0.66332748  0.51492069  1
  In  In65  1  0.66859827  0.66948686  0.51615250  1
  Si  Si66  1  0.14405218  0.99445014  0.24935891  1
  Si  Si67  1  0.64686071  0.99862617  0.25129618  1
  Si  Si68  1  0.35137413  0.70599269  0.25134564  1
  Si  Si69  1  0.85458144  0.71153278  0.25113149  1
  Si  Si70  1  0.00216789  0.29203378  0.25020249  1
  Si  Si71  1  0.50068784  0.29600357  0.25134347  1
  Si  Si72  1  0.14390523  0.29259309  0.74979878  1
  Si  Si73  1  0.64372845  0.29217110  0.74966057  1
  Si  Si74  1  0.00193690  0.71201741  0.75028609  1
  Si  Si75  1  0.50188981  0.71227355  0.75005504  1
  Si  Si76  1  0.35407895  0.99596744  0.75103311  1
  Si  Si77  1  0.85386373  0.99584900  0.75112380  1
  Si  Si78  1  0.47939528  0.33297891  0.58496381  1
  Si  Si79  1  0.97983796  0.33238868  0.58608513  1
  Si  Si80  1  0.18620808  0.03954026  0.58619696  1
  Si  Si81  1  0.68731124  0.04257507  0.58467781  1
  Si  Si82  1  0.33327861  0.62588558  0.58480714  1
  Si  Si83  1  0.83394811  0.62672888  0.58536819  1
  Si  Si84  1  0.48014751  0.62816578  0.08475847  1
  Si  Si85  1  0.97990464  0.62644736  0.08535255  1
  Si  Si86  1  0.33362329  0.04008486  0.08430556  1
  Si  Si87  1  0.83390665  0.04048911  0.08370633  1
  Si  Si88  1  0.18621332  0.33163984  0.08425867  1
  Si  Si89  1  0.68676027  0.33244845  0.08526310  1
  Si  Si90  1  0.31419753  0.66470095  0.91708408  1
  Si  Si91  1  0.81420492  0.66484834  0.91705890  1
  Si  Si92  1  0.01823481  0.37115352  0.91804651  1
  Si  Si93  1  0.51819988  0.37087409  0.91806589  1
  Si  Si94  1  0.16670143  0.96347414  0.91826457  1
  Si  Si95  1  0.66669139  0.96357689  0.91819318  1
  Si  Si96  1  0.31309667  0.96236619  0.41859937  1
  Si  Si97  1  0.81483147  0.96345534  0.41676804  1
  Si  Si98  1  0.16660369  0.37147455  0.41815557  1
  Si  Si99  1  0.66760236  0.37149277  0.41824297  1
  Si  Si100  1  0.01912305  0.66647530  0.41768490  1
  Si  Si101  1  0.51833145  0.66485803  0.41860153  1
  O  O102  1  0.09111024  0.01214539  0.30485510  1
  O  O103  1  0.60965548  0.03224991  0.31104679  1
  O  O104  1  0.40582452  0.77981944  0.31096818  1
  O  O105  1  0.91325257  0.81001779  0.30828035  1
  O  O106  1  0.48424845  0.18868502  0.31114668  1
  O  O107  1  0.99214874  0.16700046  0.30532065  1
  O  O108  1  0.09108348  0.16899154  0.80485108  1
  O  O109  1  0.59113806  0.16901628  0.80490023  1
  O  O110  1  0.49187936  0.81648101  0.80518905  1
  O  O111  1  0.99177904  0.81651773  0.80517984  1
  O  O112  1  0.41307396  0.01622128  0.80794533  1
  O  O113  1  0.91307773  0.01632749  0.80789837  1
  O  O114  1  0.40175961  0.96985182  0.69167651  1
  O  O115  1  0.90165307  0.97005830  0.69163722  1
  O  O116  1  0.08432654  0.19935922  0.69001777  1
  O  O117  1  0.58446567  0.19955045  0.68986766  1
  O  O118  1  0.01554681  0.83179912  0.69039753  1
  O  O119  1  0.51578516  0.83194037  0.69024603  1
  O  O120  1  0.40201724  0.83335093  0.19326135  1
  O  O121  1  0.90171771  0.83299843  0.19179603  1
  O  O122  1  0.01558042  0.19883418  0.19046090  1
  O  O123  1  0.51462566  0.19637694  0.19322287  1
  O  O124  1  0.08431201  0.96904753  0.18988247  1
  O  O125  1  0.58344705  0.97101068  0.19320757  1
  O  O126  1  0.44324211  0.36736737  0.64576698  1
  O  O127  1  0.94388999  0.36699403  0.64676245  1
  O  O128  1  0.23919629  0.11104237  0.64693613  1
  O  O129  1  0.74090691  0.11413461  0.64529336  1
  O  O130  1  0.31613472  0.51886708  0.64550602  1
  O  O131  1  0.81684943  0.51961639  0.64587643  1
  O  O132  1  0.44401979  0.52278192  0.14542556  1
  O  O133  1  0.94495150  0.52220796  0.14674163  1
  O  O134  1  0.31535924  0.11070135  0.14515083  1
  O  O135  1  0.81820201  0.11462853  0.14442729  1
  O  O136  1  0.23786274  0.36468063  0.14540566  1
  O  O137  1  0.73996063  0.37001418  0.14621689  1
  O  O138  1  0.23790570  0.30347882  0.02827727  1
  O  O139  1  0.73828163  0.30384842  0.02895711  1
  O  O140  1  0.41491787  0.52357879  0.02845425  1
  O  O141  1  0.91454875  0.52234706  0.02926416  1
  O  O142  1  0.34807854  0.16528901  0.02622354  1
  O  O143  1  0.84842456  0.16502489  0.02557720  1
  O  O144  1  0.23788779  0.17111237  0.52975152  1
  O  O145  1  0.73626809  0.16804499  0.52650978  1
  O  O146  1  0.34791277  0.52902541  0.52672844  1
  O  O147  1  0.84778469  0.52918328  0.52703666  1
  O  O148  1  0.41617718  0.30452724  0.52715896  1
  O  O149  1  0.91509120  0.30671569  0.52925196  1
  O  O150  1  0.28093454  0.71396597  0.97574502  1
  O  O151  1  0.78103952  0.71414317  0.97575992  1
  O  O152  1  0.07004868  0.43876082  0.97853379  1
  O  O153  1  0.57010445  0.43863666  0.97850094  1
  O  O154  1  0.14960412  0.86016100  0.97891552  1
  O  O155  1  0.64996466  0.86047582  0.97882364  1
  O  O156  1  0.27500795  0.84944666  0.47751337  1
  O  O157  1  0.78268042  0.85291031  0.47663841  1
  O  O158  1  0.14884539  0.43699378  0.47944628  1
  O  O159  1  0.65182146  0.44885173  0.47785621  1
  O  O160  1  0.06853415  0.70008499  0.47926096  1
  O  O161  1  0.57477817  0.70164459  0.47741600  1
  O  O162  1  0.06956977  0.64302606  0.35990270  1
  O  O163  1  0.56960168  0.63938897  0.36025161  1
  O  O164  1  0.25180153  0.86033112  0.35962899  1
  O  O165  1  0.75001216  0.86327191  0.35973559  1
  O  O166  1  0.18022645  0.50036397  0.36092928  1
  O  O167  1  0.68105103  0.49998654  0.36017212  1
  O  O168  1  0.06995180  0.49624792  0.85996067  1
  O  O169  1  0.56992060  0.49629232  0.86001060  1
  O  O170  1  0.17980392  0.85957885  0.86077499  1
  O  O171  1  0.68000942  0.85996603  0.86070338  1
  O  O172  1  0.25148838  0.64145468  0.85898299  1
  O  O173  1  0.75154619  0.64156874  0.85895568  1
  O  O174  1  0.00125571  0.82384845  0.40770105  1
  O  O175  1  0.50402583  0.82415495  0.41340358  1
  O  O176  1  0.40720621  0.99046170  0.41365572  1
  O  O177  1  0.90757173  0.98385394  0.40600997  1
  O  O178  1  0.08717625  0.18208611  0.40664981  1
  O  O179  1  0.58742025  0.18428121  0.41341556  1
  O  O180  1  0.00196912  0.17908128  0.90753719  1
  O  O181  1  0.50193588  0.17897595  0.90752902  1
  O  O182  1  0.08622303  0.99045857  0.90669416  1
  O  O183  1  0.58623769  0.99043790  0.90671571  1
  O  O184  1  0.40691907  0.83175218  0.90594606  1
  O  O185  1  0.90696247  0.83187704  0.90592910  1
  O  O186  1  0.48213976  0.15348593  0.58777154  1
  O  O187  1  0.98183467  0.15282427  0.58748470  1
  O  O188  1  0.09435118  0.03562064  0.58774772  1
  O  O189  1  0.59475043  0.03562711  0.58762939  1
  O  O190  1  0.42283934  0.81106193  0.58803994  1
  O  O191  1  0.92345586  0.81169561  0.58789433  1
  O  O192  1  0.48278206  0.81259778  0.08754021  1
  O  O193  1  0.98201650  0.81038791  0.08747326  1
  O  O194  1  0.42328791  0.03438399  0.08854451  1
  O  O195  1  0.92321046  0.03307054  0.08753532  1
  O  O196  1  0.09384240  0.15284954  0.08700174  1
  O  O197  1  0.59458654  0.15360478  0.08834828  1
  O  O198  1  0.34440822  0.16179474  0.75060396  1
  O  O199  1  0.84420376  0.16162427  0.75060711  1
  O  O200  1  0.23588158  0.31093574  0.75058995  1
  O  O201  1  0.73578848  0.31054353  0.75054194  1
  O  O202  1  0.41897001  0.52823468  0.75054076  1
  O  O203  1  0.91890269  0.52823326  0.75065439  1
  O  O204  1  0.33668721  0.51746220  0.24630291  1
  O  O205  1  0.84478174  0.52667924  0.25083100  1
  O  O206  1  0.42061523  0.32391970  0.24648145  1
  O  O207  1  0.91967226  0.31061769  0.25055479  1
  O  O208  1  0.23596170  0.15863268  0.25027940  1
  O  O209  1  0.74095164  0.15909571  0.24655643  1
  O  O210  1  0.32123026  0.49414148  0.92183821  1
  O  O211  1  0.82138991  0.49441447  0.92197333  1
  O  O212  1  0.42371243  0.35038513  0.92069991  1
  O  O213  1  0.92377444  0.35087500  0.92071052  1
  O  O214  1  0.25560825  0.14448685  0.92049159  1
  O  O215  1  0.75554988  0.14491087  0.92057218  1
  O  O216  1  0.31983809  0.14908860  0.42213014  1
  O  O217  1  0.81694298  0.14491702  0.42139261  1
  O  O218  1  0.25635931  0.36932435  0.42121127  1
  O  O219  1  0.75618529  0.36496104  0.42105305  1
  O  O220  1  0.42707761  0.48689442  0.42143009  1
  O  O221  1  0.92426316  0.49569069  0.42112813  1
  O  O222  1  0.17220653  0.49166382  0.07818276  1
  O  O223  1  0.67224816  0.49161422  0.07827151  1
  O  O224  1  0.07413847  0.65622684  0.07947783  1
  O  O225  1  0.57437332  0.65739429  0.07899925  1
  O  O226  1  0.25445874  0.85038690  0.07896889  1
  O  O227  1  0.75445813  0.85089640  0.07908032  1
  O  O228  1  0.17093484  0.85108778  0.58000318  1
  O  O229  1  0.67257211  0.85381586  0.57926048  1
  O  O230  1  0.25408434  0.65669056  0.57945796  1
  O  O231  1  0.75512177  0.65829774  0.58053524  1
  O  O232  1  0.07395199  0.49105107  0.58029209  1
  O  O233  1  0.57400724  0.49100902  0.57973576  1
  O  O234  1  0.14816899  0.81949316  0.25513689  1
  O  O235  1  0.65060316  0.82085283  0.25428128  1
  O  O236  1  0.25932196  0.70058021  0.25405505  1
  O  O237  1  0.76224571  0.70133401  0.25598124  1
  O  O238  1  0.08902797  0.47557575  0.25614435  1
  O  O239  1  0.59032508  0.48019686  0.25440320  1
  O  O240  1  0.14903251  0.47705925  0.75488626  1
  O  O241  1  0.64916268  0.47710384  0.75494789  1
  O  O242  1  0.08884789  0.70144868  0.75574968  1
  O  O243  1  0.58884889  0.70134177  0.75577021  1
  O  O244  1  0.26120891  0.82197082  0.75519160  1
  O  O245  1  0.76113187  0.82184537  0.75504243  1
