# generated using pymatgen
data_MgV3SnO8
_symmetry_space_group_name_H-M   'P 1'
_cell_length_a   6.62417118
_cell_length_b   6.62417239
_cell_length_c   6.92551573
_cell_angle_alpha   74.43148821
_cell_angle_beta   105.56851211
_cell_angle_gamma   145.28249825
_symmetry_Int_Tables_number   1
_chemical_formula_structural   MgV3SnO8
_chemical_formula_sum   'Mg1 V3 Sn1 O8'
_cell_volume   166.09066050
_cell_formula_units_Z   1
loop_
 _symmetry_equiv_pos_site_id
 _symmetry_equiv_pos_as_xyz
  1  'x, y, z'
loop_
 _atom_site_type_symbol
 _atom_site_label
 _atom_site_symmetry_multiplicity
 _atom_site_fract_x
 _atom_site_fract_y
 _atom_site_fract_z
 _atom_site_occupancy
  Mg  Mg0  1  0.82091400  0.17908600  0.98741400  1
  V  V1  1  0.39819600  0.60180400  0.32878100  1
  V  V2  1  0.60201000  0.39799000  0.69503900  1
  V  V3  1  0.29593400  0.70406600  0.68911800  1
  Sn  Sn4  1  0.68824200  0.31175800  0.28504100  1
  O  O5  1  0.13975100  0.86024900  0.68025400  1
  O  O6  1  0.23651900  0.76348100  0.36328800  1
  O  O7  1  0.35531200  0.64468800  0.98187300  1
  O  O8  1  0.43068500  0.56931500  0.63096000  1
  O  O9  1  0.55607700  0.44392300  0.38470300  1
  O  O10  1  0.65821100  0.34178900  0.98992100  1
  O  O11  1  0.76996600  0.23003400  0.67659700  1
  O  O12  1  0.85818000  0.14182000  0.28701100  1
