# generated using pymatgen
data_NaCa2Ti2PS5O24
_symmetry_space_group_name_H-M   'P 1'
_cell_length_a   8.92086966
_cell_length_b   8.94422589
_cell_length_c   23.26763667
_cell_angle_alpha   89.31683992
_cell_angle_beta   89.97358466
_cell_angle_gamma   120.04811755
_symmetry_Int_Tables_number   1
_chemical_formula_structural   NaCa2Ti2PS5O24
_chemical_formula_sum   'Na3 Ca6 Ti6 P3 S15 O72'
_cell_volume   1606.86436282
_cell_formula_units_Z   3
loop_
 _symmetry_equiv_pos_site_id
 _symmetry_equiv_pos_as_xyz
  1  'x, y, z'
loop_
 _atom_site_type_symbol
 _atom_site_label
 _atom_site_symmetry_multiplicity
 _atom_site_fract_x
 _atom_site_fract_y
 _atom_site_fract_z
 _atom_site_occupancy
  Na  Na0  1  0.66501962  0.33098844  0.82941290  1
  Na  Na1  1  0.66176020  0.33482128  0.33156067  1
  Na  Na2  1  0.33388884  0.66555155  0.16475604  1
  Ca  Ca3  1  0.99827475  0.00047268  0.85720534  1
  Ca  Ca4  1  0.66558149  0.33057742  0.68450946  1
  Ca  Ca5  1  0.66342200  0.33296796  0.19285922  1
  Ca  Ca6  1  0.66548941  0.33461171  0.48336663  1
  Ca  Ca7  1  0.33498541  0.66603391  0.02011070  1
  Ca  Ca8  1  0.33303038  0.66708798  0.51894527  1
  Ti  Ti9  1  0.00198006  0.99500183  0.35023748  1
  Ti  Ti10  1  0.99421951  0.99705243  0.64639434  1
  Ti  Ti11  1  0.99921711  0.98627842  0.14444493  1
  Ti  Ti12  1  0.67053374  0.32799009  0.97426569  1
  Ti  Ti13  1  0.34326344  0.67600564  0.31081639  1
  Ti  Ti14  1  0.31643752  0.65111397  0.80974168  1
  P  P15  1  0.27344946  0.98600618  0.25175415  1
  P  P16  1  0.71657046  0.72705714  0.25231421  1
  P  P17  1  0.03955480  0.38535436  0.91687950  1
  S  S18  1  0.01466651  0.28838118  0.25202612  1
  S  S19  1  0.28796929  0.29811394  0.75115702  1
  S  S20  1  0.00916838  0.71152864  0.75164109  1
  S  S21  1  0.69781262  0.98440952  0.75158132  1
  S  S22  1  0.96543781  0.32150387  0.58600510  1
  S  S23  1  0.35391567  0.03342908  0.58656065  1
  S  S24  1  0.67827327  0.64408049  0.58607596  1
  S  S25  1  0.95197796  0.62886004  0.08458045  1
  S  S26  1  0.68141653  0.05013297  0.08506368  1
  S  S27  1  0.36764146  0.31936417  0.08521024  1
  S  S28  1  0.61498598  0.64800946  0.91639819  1
  S  S29  1  0.34885785  0.96436167  0.91601109  1
  S  S30  1  0.63182877  0.95660483  0.40962199  1
  S  S31  1  0.32296364  0.37049359  0.40886067  1
  S  S32  1  0.04606307  0.67396603  0.40944750  1
  O  O33  1  0.17474372  0.00140324  0.30420693  1
  O  O34  1  0.82718204  0.82758062  0.30449691  1
  O  O35  1  0.99727238  0.18197369  0.30390392  1
  O  O36  1  0.21357950  0.19541422  0.80319492  1
  O  O37  1  0.98356122  0.78611993  0.80326119  1
  O  O38  1  0.80369332  0.01339634  0.80231850  1
  O  O39  1  0.78613322  0.96456045  0.69940748  1
  O  O40  1  0.18125325  0.21826589  0.69969475  1
  O  O41  1  0.03474500  0.82020979  0.69965782  1
  O  O42  1  0.80313424  0.83652060  0.19619005  1
  O  O43  1  0.03577909  0.20940032  0.19922291  1
  O  O44  1  0.16298163  0.96486490  0.19653429  1
  O  O45  1  0.88345032  0.34761562  0.63600569  1
  O  O46  1  0.46417367  0.11485781  0.63600475  1
  O  O47  1  0.65120212  0.53484933  0.63644272  1
  O  O48  1  0.87578539  0.52661480  0.13670927  1
  O  O49  1  0.65284327  0.12655367  0.13588668  1
  O  O50  1  0.47136694  0.34639222  0.13663212  1
  O  O51  1  0.45059163  0.29666350  0.03287500  1
  O  O52  1  0.84648906  0.54864000  0.03254932  1
  O  O53  1  0.70200236  0.15945150  0.03161093  1
  O  O54  1  0.42020812  0.14162315  0.53389098  1
  O  O55  1  0.71997124  0.57898021  0.53402463  1
  O  O56  1  0.85865886  0.28201815  0.53386467  1
  O  O57  1  0.54513473  0.67447753  0.96884247  1
  O  O58  1  0.13847466  0.46359593  0.97016520  1
  O  O59  1  0.32690590  0.87052933  0.96926654  1
  O  O60  1  0.56422966  0.86015153  0.46277519  1
  O  O61  1  0.29471261  0.43495176  0.46219810  1
  O  O62  1  0.13823684  0.70167052  0.46303834  1
  O  O63  1  0.14727722  0.65866056  0.36008837  1
  O  O64  1  0.51066582  0.85555466  0.35979561  1
  O  O65  1  0.34353753  0.49310828  0.35911514  1
  O  O66  1  0.13568117  0.51002334  0.86170016  1
  O  O67  1  0.38068568  0.88449715  0.86499537  1
  O  O68  1  0.50280565  0.61936458  0.86513651  1
  O  O69  1  0.02463071  0.82936104  0.39910998  1
  O  O70  1  0.80490117  0.97669671  0.39806296  1
  O  O71  1  0.16885586  0.19780245  0.39714791  1
  O  O72  1  0.99572489  0.20502176  0.90480692  1
  O  O73  1  0.20937965  0.00054761  0.90768205  1
  O  O74  1  0.79168177  0.78551654  0.90728159  1
  O  O75  1  0.97822154  0.15888196  0.59964891  1
  O  O76  1  0.17902255  0.02103088  0.60091807  1
  O  O77  1  0.84093294  0.81951634  0.59929691  1
  O  O78  1  0.96065005  0.80489492  0.09294190  1
  O  O79  1  0.84569294  0.04145668  0.09281895  1
  O  O80  1  0.19223136  0.15447040  0.09494494  1
  O  O81  1  0.66638902  0.13021367  0.74460616  1
  O  O82  1  0.46755246  0.33670294  0.74510839  1
  O  O83  1  0.86722455  0.53314137  0.74565786  1
  O  O84  1  0.69652246  0.54905444  0.25279241  1
  O  O85  1  0.86049565  0.30717891  0.25124342  1
  O  O86  1  0.45209329  0.14359513  0.25197965  1
  O  O87  1  0.62369204  0.47943635  0.92487392  1
  O  O88  1  0.85312220  0.37746532  0.92573137  1
  O  O89  1  0.51783446  0.14483407  0.92319778  1
  O  O90  1  0.64395883  0.12722374  0.40917335  1
  O  O91  1  0.48089075  0.35571870  0.40894933  1
  O  O92  1  0.87248231  0.51776142  0.40994655  1
  O  O93  1  0.33347732  0.46338997  0.07972624  1
  O  O94  1  0.13177797  0.66812231  0.07929645  1
  O  O95  1  0.53600192  0.87328393  0.07879754  1
  O  O96  1  0.32071597  0.85887650  0.57882676  1
  O  O97  1  0.53699932  0.67795590  0.57827088  1
  O  O98  1  0.14107846  0.46260378  0.57821117  1
  O  O99  1  0.28752413  0.81750044  0.25943756  1
  O  O100  1  0.53229983  0.71241987  0.25985690  1
  O  O101  1  0.17485002  0.46458372  0.25778409  1
  O  O102  1  0.29654955  0.47381407  0.75978682  1
  O  O103  1  0.17751812  0.70420312  0.75956581  1
  O  O104  1  0.52488484  0.82028849  0.76033243  1
