# generated using pymatgen
data_Na21Nb2Zn10P15(SO24)3
_symmetry_space_group_name_H-M   'P 1'
_cell_length_a   9.04641926
_cell_length_b   9.06614499
_cell_length_c   21.97204169
_cell_angle_alpha   89.63345396
_cell_angle_beta   89.77720693
_cell_angle_gamma   120.04571314
_symmetry_Int_Tables_number   1
_chemical_formula_structural   Na21Nb2Zn10P15(SO24)3
_chemical_formula_sum   'Na21 Nb2 Zn10 P15 S3 O72'
_cell_volume   1559.82802737
_cell_formula_units_Z   1
loop_
 _symmetry_equiv_pos_site_id
 _symmetry_equiv_pos_as_xyz
  1  'x, y, z'
loop_
 _atom_site_type_symbol
 _atom_site_label
 _atom_site_symmetry_multiplicity
 _atom_site_fract_x
 _atom_site_fract_y
 _atom_site_fract_z
 _atom_site_occupancy
  Na  Na0  1  0.36520240  0.35325436  0.24690025  1
  Na  Na1  1  0.98366374  0.35187133  0.74105419  1
  Na  Na2  1  0.36727989  0.01407792  0.74131900  1
  Na  Na3  1  0.29283677  0.32685049  0.58019264  1
  Na  Na4  1  0.04131771  0.70132026  0.58348862  1
  Na  Na5  1  0.66722295  0.97413744  0.58215971  1
  Na  Na6  1  0.29793905  0.97427564  0.08653555  1
  Na  Na7  1  0.66163451  0.69446991  0.08961054  1
  Na  Na8  1  0.04142412  0.33105650  0.08768993  1
  Na  Na9  1  0.96187093  0.66968321  0.91422994  1
  Na  Na10  1  0.70918516  0.03934440  0.91478493  1
  Na  Na11  1  0.32954236  0.28926695  0.91778906  1
  Na  Na12  1  0.96062810  0.29110450  0.41640409  1
  Na  Na13  1  0.33038376  0.04094365  0.41708459  1
  Na  Na14  1  0.70774779  0.66830625  0.41349717  1
  Na  Na15  1  0.00571999  0.00670571  0.49826870  1
  Na  Na16  1  0.00744354  0.00642776  0.99937807  1
  Na  Na17  1  0.66557939  0.34442362  0.82832918  1
  Na  Na18  1  0.67828196  0.33312093  0.32894882  1
  Na  Na19  1  0.33263673  0.67047403  0.16600232  1
  Na  Na20  1  0.33701505  0.66643907  0.65707653  1
  Nb  Nb21  1  0.33317156  0.66995371  0.31348859  1
  Nb  Nb22  1  0.33583136  0.66642947  0.81410484  1
  Zn  Zn23  1  0.99562544  0.99859809  0.34313532  1
  Zn  Zn24  1  0.99946221  0.99646993  0.84364528  1
  Zn  Zn25  1  0.00729298  0.00801276  0.65536586  1
  Zn  Zn26  1  0.00620282  0.00653120  0.16644093  1
  Zn  Zn27  1  0.66699066  0.33127229  0.68015427  1
  Zn  Zn28  1  0.66652048  0.33666166  0.18778467  1
  Zn  Zn29  1  0.65792691  0.33088778  0.98357588  1
  Zn  Zn30  1  0.66453326  0.32174078  0.48470266  1
  Zn  Zn31  1  0.33366671  0.65734711  0.01080032  1
  Zn  Zn32  1  0.32530385  0.66625502  0.51184684  1
  P  P33  1  0.29809571  0.00036935  0.25006208  1
  P  P34  1  0.70361848  0.70303773  0.25033380  1
  P  P35  1  0.99680307  0.29986202  0.25090216  1
  P  P36  1  0.30081144  0.29843755  0.75167682  1
  P  P37  1  0.99604322  0.70046161  0.75193567  1
  P  P38  1  0.70535249  0.99979263  0.75095116  1
  P  P39  1  0.96522577  0.33261401  0.58354934  1
  P  P40  1  0.36693237  0.03497596  0.58415529  1
  P  P41  1  0.36746471  0.33258325  0.08291684  1
  P  P42  1  0.63257940  0.67061234  0.91920034  1
  P  P43  1  0.03472677  0.36820605  0.91903474  1
  P  P44  1  0.33221878  0.95912253  0.91948492  1
  P  P45  1  0.62872380  0.95844445  0.41891272  1
  P  P46  1  0.33374889  0.37180242  0.41872011  1
  P  P47  1  0.03581600  0.66884773  0.41852596  1
  S  S48  1  0.66808631  0.62898563  0.58272940  1
  S  S49  1  0.96199749  0.62876362  0.08125998  1
  S  S50  1  0.66734331  0.03826052  0.08182665  1
  O  O51  1  0.21229444  0.02556198  0.30615033  1
  O  O52  1  0.80477668  0.78570635  0.30756402  1
  O  O53  1  0.97949719  0.19717124  0.30859398  1
  O  O54  1  0.21940836  0.19188170  0.80971110  1
  O  O55  1  0.97914188  0.78032721  0.81077116  1
  O  O56  1  0.81032931  0.02518806  0.80850861  1
  O  O57  1  0.77940079  0.96820080  0.69314980  1
  O  O58  1  0.18570706  0.23078418  0.69531253  1
  O  O59  1  0.03917239  0.81550948  0.69524898  1
  O  O60  1  0.77813996  0.80791070  0.19124193  1
  O  O61  1  0.04295072  0.23217831  0.19324472  1
  O  O62  1  0.19360121  0.96370260  0.19109539  1
  O  O63  1  0.88396880  0.36127847  0.64122407  1
  O  O64  1  0.47432496  0.11736706  0.64173400  1
  O  O65  1  0.64365136  0.52083963  0.63651401  1
  O  O66  1  0.87428047  0.51713186  0.13425718  1
  O  O67  1  0.64711017  0.12721320  0.13446323  1
  O  O68  1  0.48069286  0.35848498  0.13878510  1
  O  O69  1  0.44714358  0.30618372  0.02364401  1
  O  O70  1  0.86576623  0.55159720  0.02390780  1
  O  O71  1  0.69256313  0.13785922  0.02409061  1
  O  O72  1  0.44847481  0.14676688  0.52641377  1
  O  O73  1  0.69065801  0.55278501  0.52599958  1
  O  O74  1  0.85741872  0.30924635  0.52593166  1
  O  O75  1  0.55624807  0.69883612  0.97721369  1
  O  O76  1  0.14099703  0.44729595  0.97612795  1
  O  O77  1  0.30746497  0.85102929  0.97653781  1
  O  O78  1  0.54987856  0.85349555  0.47725902  1
  O  O79  1  0.30806702  0.45334243  0.47586126  1
  O  O80  1  0.13972969  0.69796715  0.47678907  1
  O  O81  1  0.14374881  0.65086104  0.36436935  1
  O  O82  1  0.50602109  0.85168303  0.36464051  1
  O  O83  1  0.34973262  0.48956452  0.36194208  1
  O  O84  1  0.13749853  0.48906147  0.86266529  1
  O  O85  1  0.34801977  0.85721831  0.86306785  1
  O  O86  1  0.50666039  0.65223567  0.86516545  1
  O  O87  1  0.01853547  0.82788300  0.40987728  1
  O  O88  1  0.80673717  0.97813272  0.41115134  1
  O  O89  1  0.17420476  0.19417663  0.41223804  1
  O  O90  1  0.01747771  0.19171543  0.91170511  1
  O  O91  1  0.17341714  0.97837833  0.91284437  1
  O  O92  1  0.80970555  0.82912483  0.91065316  1
  O  O93  1  0.97922619  0.16789690  0.58759987  1
  O  O94  1  0.18443187  0.01315562  0.58819179  1
  O  O95  1  0.82312625  0.80169625  0.58735861  1
  O  O96  1  0.97670805  0.79945620  0.08572982  1
  O  O97  1  0.81986283  0.01673905  0.08638517  1
  O  O98  1  0.18611784  0.17051685  0.08749849  1
  O  O99  1  0.67445901  0.15260929  0.74748160  1
  O  O100  1  0.47801263  0.31877123  0.74466527  1
  O  O101  1  0.85048865  0.51641716  0.74700680  1
  O  O102  1  0.66457112  0.51718760  0.24730563  1
  O  O103  1  0.84560728  0.32813398  0.24416380  1
  O  O104  1  0.47672152  0.15908457  0.24552173  1
  O  O105  1  0.63790896  0.50315512  0.91675884  1
  O  O106  1  0.86101715  0.36243948  0.91789451  1
  O  O107  1  0.50002880  0.13292256  0.91666771  1
  O  O108  1  0.63389290  0.13124418  0.41591320  1
  O  O109  1  0.50149091  0.36588276  0.41702111  1
  O  O110  1  0.86297282  0.50097043  0.41695414  1
  O  O111  1  0.34999157  0.49659190  0.07986901  1
  O  O112  1  0.13768652  0.65073664  0.07932891  1
  O  O113  1  0.50926204  0.86615044  0.07961806  1
  O  O114  1  0.35315989  0.85652825  0.58037334  1
  O  O115  1  0.51327430  0.64827096  0.58005027  1
  O  O116  1  0.14820633  0.49274790  0.58007609  1
  O  O117  1  0.31755588  0.83649179  0.25865612  1
  O  O118  1  0.51639559  0.68395727  0.25666478  1
  O  O119  1  0.16933658  0.48245332  0.25796764  1
  O  O120  1  0.31520723  0.48090950  0.76025502  1
  O  O121  1  0.16876705  0.68587779  0.75860915  1
  O  O122  1  0.51782265  0.83583422  0.75878008  1
