# generated using pymatgen
data_CaSiGe3S5O24
_symmetry_space_group_name_H-M   'P 1'
_cell_length_a   8.66464802
_cell_length_b   8.63052244
_cell_length_c   22.37238489
_cell_angle_alpha   90.19641500
_cell_angle_beta   90.23999563
_cell_angle_gamma   120.06662180
_symmetry_Int_Tables_number   1
_chemical_formula_structural   CaSiGe3S5O24
_chemical_formula_sum   'Ca3 Si3 Ge9 S15 O72'
_cell_volume   1447.85915068
_cell_formula_units_Z   3
loop_
 _symmetry_equiv_pos_site_id
 _symmetry_equiv_pos_as_xyz
  1  'x, y, z'
loop_
 _atom_site_type_symbol
 _atom_site_label
 _atom_site_symmetry_multiplicity
 _atom_site_fract_x
 _atom_site_fract_y
 _atom_site_fract_z
 _atom_site_occupancy
  Ca  Ca0  1  0.99904515  0.99783857  0.36209776  1
  Ca  Ca1  1  0.66578859  0.33479874  0.68994574  1
  Ca  Ca2  1  0.66527029  0.33168060  0.18243225  1
  Si  Si3  1  0.66861094  0.63511701  0.58199945  1
  Si  Si4  1  0.04631033  0.37939116  0.91598200  1
  Si  Si5  1  0.33149756  0.95248411  0.91620930  1
  Ge  Ge6  1  0.01176111  0.01079966  0.86058869  1
  Ge  Ge7  1  0.98787335  0.98751084  0.64894157  1
  Ge  Ge8  1  0.00174728  0.00140689  0.14503238  1
  Ge  Ge9  1  0.66884986  0.32512964  0.97073264  1
  Ge  Ge10  1  0.67095855  0.34341949  0.48630340  1
  Ge  Ge11  1  0.32040671  0.66221246  0.01285678  1
  Ge  Ge12  1  0.33726596  0.66664711  0.52281767  1
  Ge  Ge13  1  0.33443129  0.66727772  0.31169010  1
  Ge  Ge14  1  0.32313735  0.67148760  0.81814385  1
  S  S15  1  0.28705730  0.98866379  0.25101372  1
  S  S16  1  0.70069232  0.71291710  0.25063606  1
  S  S17  1  0.01159577  0.29817831  0.25103783  1
  S  S18  1  0.27491190  0.28870645  0.75229427  1
  S  S19  1  0.01325451  0.72649682  0.75406208  1
  S  S20  1  0.71003604  0.98392082  0.75498685  1
  S  S21  1  0.96598670  0.33352136  0.58116451  1
  S  S22  1  0.36745407  0.03577926  0.58104202  1
  S  S23  1  0.96840299  0.63365361  0.08103122  1
  S  S24  1  0.66318425  0.02584087  0.08055408  1
  S  S25  1  0.36659031  0.33870171  0.08018729  1
  S  S26  1  0.62155825  0.66637285  0.91650850  1
  S  S27  1  0.60812613  0.95999639  0.42027533  1
  S  S28  1  0.34843162  0.39183161  0.41925359  1
  S  S29  1  0.04582765  0.64975753  0.42007402  1
  O  O30  1  0.20734382  0.01500499  0.30375789  1
  O  O31  1  0.80631074  0.79297065  0.30385023  1
  O  O32  1  0.98684305  0.19266373  0.30373246  1
  O  O33  1  0.18740347  0.17031348  0.80467272  1
  O  O34  1  0.98109302  0.81403459  0.80608615  1
  O  O35  1  0.82903920  0.01295907  0.80724393  1
  O  O36  1  0.78823452  0.95383685  0.69699245  1
  O  O37  1  0.16125820  0.20837583  0.69435126  1
  O  O38  1  0.04841686  0.83787266  0.69675281  1
  O  O39  1  0.78006194  0.82843629  0.19470842  1
  O  O40  1  0.04748077  0.21871963  0.19448081  1
  O  O41  1  0.17098518  0.95147258  0.19439715  1
  O  O42  1  0.89767441  0.37453799  0.63376796  1
  O  O43  1  0.47903169  0.09919906  0.63364572  1
  O  O44  1  0.61571064  0.51357829  0.64006749  1
  O  O45  1  0.90109317  0.53132165  0.13526706  1
  O  O46  1  0.62591801  0.09180101  0.13503200  1
  O  O47  1  0.46780846  0.37281125  0.13518400  1
  O  O48  1  0.44767822  0.29845384  0.02751578  1
  O  O49  1  0.84767213  0.55327345  0.02766500  1
  O  O50  1  0.70464345  0.14900890  0.02820195  1
  O  O51  1  0.44999230  0.15334777  0.52553971  1
  O  O52  1  0.71237353  0.54358829  0.52189509  1
  O  O53  1  0.84355946  0.28888869  0.52564984  1
  O  O54  1  0.54643852  0.70539112  0.97080800  1
  O  O55  1  0.17374266  0.45920778  0.97530892  1
  O  O56  1  0.29771844  0.83131695  0.97583470  1
  O  O57  1  0.52043518  0.84132634  0.47225559  1
  O  O58  1  0.31435266  0.47861135  0.47143720  1
  O  O59  1  0.16433561  0.68281385  0.47337041  1
  O  O60  1  0.12472588  0.61974928  0.36337172  1
  O  O61  1  0.49824313  0.88194538  0.36317217  1
  O  O62  1  0.38113633  0.50271640  0.36277485  1
  O  O63  1  0.13185402  0.50488373  0.85639894  1
  O  O64  1  0.38462236  0.87479936  0.85707982  1
  O  O65  1  0.50569317  0.62412946  0.86194823  1
  O  O66  1  0.02753735  0.80621227  0.41722913  1
  O  O67  1  0.78162502  0.97694817  0.41655604  1
  O  O68  1  0.19158815  0.21756617  0.41603163  1
  O  O69  1  0.01415384  0.17950301  0.90560496  1
  O  O70  1  0.15398522  0.96704028  0.90528686  1
  O  O71  1  0.79994594  0.82550951  0.90775191  1
  O  O72  1  0.98941365  0.17470379  0.58814554  1
  O  O73  1  0.19011513  0.02228283  0.58832906  1
  O  O74  1  0.85091935  0.83428363  0.59236721  1
  O  O75  1  0.98378930  0.81794246  0.08874052  1
  O  O76  1  0.83294650  0.01393708  0.08890343  1
  O  O77  1  0.18246492  0.16953717  0.08798391  1
  O  O78  1  0.69422952  0.14187103  0.74930667  1
  O  O79  1  0.44643179  0.30081981  0.74825201  1
  O  O80  1  0.85834973  0.55099367  0.74920594  1
  O  O81  1  0.67315993  0.53489558  0.24281568  1
  O  O82  1  0.86178927  0.32569653  0.24286468  1
  O  O83  1  0.46433815  0.13881165  0.24314170  1
  O  O84  1  0.63905299  0.50437839  0.92623635  1
  O  O85  1  0.85511208  0.36776224  0.92857919  1
  O  O86  1  0.50138609  0.15262461  0.92827853  1
  O  O87  1  0.62275435  0.14095513  0.42783220  1
  O  O88  1  0.51219350  0.37508986  0.42553448  1
  O  O89  1  0.86796666  0.48098687  0.42550828  1
  O  O90  1  0.35055077  0.50215162  0.07093668  1
  O  O91  1  0.14934019  0.65470947  0.07261872  1
  O  O92  1  0.50649728  0.84334481  0.06948454  1
  O  O93  1  0.34026660  0.85232517  0.56853165  1
  O  O94  1  0.49465871  0.65647884  0.56821792  1
  O  O95  1  0.14243079  0.49664366  0.56859828  1
  O  O96  1  0.29807920  0.81688435  0.25681037  1
  O  O97  1  0.51817578  0.70154046  0.25672642  1
  O  O98  1  0.18285916  0.48134358  0.25690449  1
  O  O99  1  0.29084706  0.46904690  0.75863553  1
  O  O100  1  0.18155381  0.71575532  0.75805690  1
  O  O101  1  0.53250394  0.81452248  0.75987923  1
