# generated using pymatgen
data_AsXeF7
_symmetry_space_group_name_H-M   'P 1'
_cell_length_a   6.16086160
_cell_length_b   6.24798950
_cell_length_c   15.83705504
_cell_angle_alpha   79.88926183
_cell_angle_beta   90.00000000
_cell_angle_gamma   90.00000000
_symmetry_Int_Tables_number   1
_chemical_formula_structural   AsXeF7
_chemical_formula_sum   'As4 Xe4 F28'
_cell_volume   600.14858503
_cell_formula_units_Z   4
loop_
 _symmetry_equiv_pos_site_id
 _symmetry_equiv_pos_as_xyz
  1  'x, y, z'
loop_
 _atom_site_type_symbol
 _atom_site_label
 _atom_site_symmetry_multiplicity
 _atom_site_fract_x
 _atom_site_fract_y
 _atom_site_fract_z
 _atom_site_occupancy
  As  As0  1  0.72035855  0.14448093  0.61092620  1
  As  As1  1  0.22035855  0.85551907  0.88907380  1
  As  As2  1  0.27964145  0.85551907  0.38907380  1
  As  As3  1  0.77964145  0.14448093  0.11092620  1
  Xe  Xe4  1  0.78671398  0.36426955  0.37721979  1
  Xe  Xe5  1  0.28671398  0.63573045  0.12278021  1
  Xe  Xe6  1  0.21328602  0.63573045  0.62278021  1
  Xe  Xe7  1  0.71328602  0.36426955  0.87721979  1
  F  F8  1  0.89375459  0.55021058  0.27151786  1
  F  F9  1  0.39375459  0.44978942  0.22848214  1
  F  F10  1  0.10624541  0.44978942  0.72848214  1
  F  F11  1  0.60624541  0.55021058  0.77151786  1
  F  F12  1  0.65877238  0.15008740  0.49312590  1
  F  F13  1  0.15877238  0.84991260  0.00687410  1
  F  F14  1  0.34122762  0.84991260  0.50687410  1
  F  F15  1  0.84122762  0.15008740  0.99312590  1
  F  F16  1  0.78619011  0.86532623  0.11998935  1
  F  F17  1  0.28619011  0.13467377  0.38001065  1
  F  F18  1  0.21380989  0.13467377  0.88001065  1
  F  F19  1  0.71380989  0.86532623  0.61998935  1
  F  F20  1  0.05727234  0.14967942  0.12429503  1
  F  F21  1  0.55727234  0.85032058  0.37570497  1
  F  F22  1  0.94272766  0.85032058  0.87570497  1
  F  F23  1  0.44272766  0.14967942  0.62429503  1
  F  F24  1  0.72647900  0.13617849  0.21754910  1
  F  F25  1  0.22647900  0.86382151  0.28245090  1
  F  F26  1  0.27352100  0.86382151  0.78245090  1
  F  F27  1  0.77352100  0.13617849  0.71754910  1
  F  F28  1  0.77769530  0.42647522  0.08611463  1
  F  F29  1  0.27769530  0.57352478  0.41388537  1
  F  F30  1  0.22230470  0.57352478  0.91388537  1
  F  F31  1  0.72230470  0.42647522  0.58611463  1
  F  F32  1  0.50805504  0.14502078  0.08241147  1
  F  F33  1  0.00805504  0.85497922  0.41758853  1
  F  F34  1  0.49194496  0.85497922  0.91758853  1
  F  F35  1  0.99194496  0.14502078  0.58241147  1
