# generated using pymatgen
data_Mg2Nb2SiS5O24
_symmetry_space_group_name_H-M   'P 1'
_cell_length_a   8.80128302
_cell_length_b   8.79163639
_cell_length_c   22.61919839
_cell_angle_alpha   90.01460831
_cell_angle_beta   89.94839464
_cell_angle_gamma   120.03451613
_symmetry_Int_Tables_number   1
_chemical_formula_structural   Mg2Nb2SiS5O24
_chemical_formula_sum   'Mg6 Nb6 Si3 S15 O72'
_cell_volume   1515.20781993
_cell_formula_units_Z   3
loop_
 _symmetry_equiv_pos_site_id
 _symmetry_equiv_pos_as_xyz
  1  'x, y, z'
loop_
 _atom_site_type_symbol
 _atom_site_label
 _atom_site_symmetry_multiplicity
 _atom_site_fract_x
 _atom_site_fract_y
 _atom_site_fract_z
 _atom_site_occupancy
  Mg  Mg0  1  0.99798063  0.00034384  0.35559295  1
  Mg  Mg1  1  0.00002571  0.00122746  0.85256839  1
  Mg  Mg2  1  0.99829998  0.00433168  0.64424833  1
  Mg  Mg3  1  0.67374486  0.33584663  0.68771812  1
  Mg  Mg4  1  0.66464802  0.33495141  0.18740869  1
  Mg  Mg5  1  0.33185074  0.66350407  0.02125993  1
  Nb  Nb6  1  0.00407453  0.00602264  0.14112855  1
  Nb  Nb7  1  0.65476418  0.33053452  0.97755851  1
  Nb  Nb8  1  0.67571758  0.32443976  0.47934259  1
  Nb  Nb9  1  0.34099715  0.66953902  0.52671253  1
  Nb  Nb10  1  0.34222865  0.67624952  0.31070236  1
  Nb  Nb11  1  0.32980944  0.66380949  0.80663282  1
  Si  Si12  1  0.95628259  0.32438634  0.58988533  1
  Si  Si13  1  0.38601877  0.35067894  0.08704921  1
  Si  Si14  1  0.63265134  0.95641541  0.41753244  1
  S  S15  1  0.28944514  0.00535424  0.25106986  1
  S  S16  1  0.71638930  0.70848385  0.25094308  1
  S  S17  1  0.99513552  0.28705865  0.25089036  1
  S  S18  1  0.29102326  0.28074176  0.74999332  1
  S  S19  1  0.99095397  0.71173930  0.75005251  1
  S  S20  1  0.71765000  0.00735707  0.75042512  1
  S  S21  1  0.37572643  0.04806214  0.58519758  1
  S  S22  1  0.67326441  0.62134605  0.58491195  1
  S  S23  1  0.95652849  0.61771684  0.08443431  1
  S  S24  1  0.66041214  0.04333100  0.08432337  1
  S  S25  1  0.62448427  0.67420138  0.91693313  1
  S  S26  1  0.04644052  0.37570303  0.91732953  1
  S  S27  1  0.32710772  0.94958761  0.91725129  1
  S  S28  1  0.33141501  0.37683453  0.41681615  1
  S  S29  1  0.04731379  0.67100860  0.41663543  1
  O  O30  1  0.20546526  0.02597794  0.30332827  1
  O  O31  1  0.82039067  0.79294557  0.30307834  1
  O  O32  1  0.97241517  0.17919026  0.30225777  1
  O  O33  1  0.21109458  0.18290772  0.80427470  1
  O  O34  1  0.97563262  0.79390082  0.80420274  1
  O  O35  1  0.81767840  0.02698965  0.80424739  1
  O  O36  1  0.78175794  0.95970442  0.69846892  1
  O  O37  1  0.17997361  0.21539242  0.69807127  1
  O  O38  1  0.03686605  0.82217030  0.69766574  1
  O  O39  1  0.78998912  0.82319693  0.19723388  1
  O  O40  1  0.02963853  0.20336004  0.19619564  1
  O  O41  1  0.17308469  0.96799612  0.19720026  1
  O  O42  1  0.86950672  0.37753743  0.64019900  1
  O  O43  1  0.48813569  0.12140389  0.63622439  1
  O  O44  1  0.62828325  0.50899750  0.63633294  1
  O  O45  1  0.87754501  0.51279732  0.13681555  1
  O  O46  1  0.64184452  0.12592057  0.13695665  1
  O  O47  1  0.49748040  0.35724485  0.14143616  1
  O  O48  1  0.47476229  0.30073691  0.02619023  1
  O  O49  1  0.84035647  0.53908349  0.03029414  1
  O  O50  1  0.70269638  0.16050912  0.02997673  1
  O  O51  1  0.46033606  0.15682405  0.52974525  1
  O  O52  1  0.68949877  0.53624051  0.52945237  1
  O  O53  1  0.83344715  0.30893422  0.52639372  1
  O  O54  1  0.54280890  0.69674192  0.96920358  1
  O  O55  1  0.15339827  0.45988003  0.96888376  1
  O  O56  1  0.30670208  0.84723760  0.97001365  1
  O  O57  1  0.51926643  0.83070346  0.47230067  1
  O  O58  1  0.30300122  0.46157656  0.46938002  1
  O  O59  1  0.15597625  0.69289615  0.46910689  1
  O  O60  1  0.12606411  0.63217444  0.36281380  1
  O  O61  1  0.49213485  0.85747042  0.35952523  1
  O  O62  1  0.36105692  0.49438627  0.36297084  1
  O  O63  1  0.12912424  0.49298506  0.86309704  1
  O  O64  1  0.36469635  0.87208042  0.86368120  1
  O  O65  1  0.50850024  0.63386979  0.86348463  1
  O  O66  1  0.03089508  0.82412546  0.40728246  1
  O  O67  1  0.81540182  0.97715328  0.40635179  1
  O  O68  1  0.17999988  0.20601956  0.40714693  1
  O  O69  1  0.02279248  0.20234008  0.90645219  1
  O  O70  1  0.18176818  0.97969328  0.90732879  1
  O  O71  1  0.79972209  0.82027905  0.90664895  1
  O  O72  1  0.98014732  0.15967409  0.58979211  1
  O  O73  1  0.20074931  0.02135068  0.59010680  1
  O  O74  1  0.82289592  0.79580780  0.59052641  1
  O  O75  1  0.96755398  0.79694444  0.09286346  1
  O  O76  1  0.82530726  0.02656898  0.09220762  1
  O  O77  1  0.18707747  0.15878592  0.09486987  1
  O  O78  1  0.68138550  0.14963488  0.74309293  1
  O  O79  1  0.46907692  0.31582655  0.74201188  1
  O  O80  1  0.84593577  0.53454480  0.74396632  1
  O  O81  1  0.68963750  0.53430077  0.24213109  1
  O  O82  1  0.84610746  0.30993960  0.23948325  1
  O  O83  1  0.46492996  0.14936578  0.24195717  1
  O  O84  1  0.64214931  0.50831476  0.92505892  1
  O  O85  1  0.86852456  0.36131239  0.92509372  1
  O  O86  1  0.49646339  0.13029585  0.92454308  1
  O  O87  1  0.62946338  0.14277243  0.42564894  1
  O  O88  1  0.49347650  0.36853343  0.42447582  1
  O  O89  1  0.86933047  0.51121604  0.42408017  1
  O  O90  1  0.34757000  0.49985974  0.07133749  1
  O  O91  1  0.13094931  0.64957633  0.07305712  1
  O  O92  1  0.51319363  0.87132623  0.07304675  1
  O  O93  1  0.36023822  0.86939875  0.57375660  1
  O  O94  1  0.50907732  0.63896917  0.57388900  1
  O  O95  1  0.14522512  0.50355722  0.56839223  1
  O  O96  1  0.29953266  0.83570322  0.25771648  1
  O  O97  1  0.53230575  0.69088328  0.25892691  1
  O  O98  1  0.15870651  0.46432709  0.25812283  1
  O  O99  1  0.31002387  0.46968004  0.76147969  1
  O  O100  1  0.16057901  0.69145376  0.76143530  1
  O  O101  1  0.52881377  0.83769433  0.76246782  1
