# generated using pymatgen
data_MgNb2In2O8
_symmetry_space_group_name_H-M   'P 1'
_cell_length_a   5.55322451
_cell_length_b   5.32777282
_cell_length_c   6.27313200
_cell_angle_alpha   90.00000000
_cell_angle_beta   90.00000000
_cell_angle_gamma   91.70279248
_symmetry_Int_Tables_number   1
_chemical_formula_structural   MgNb2In2O8
_chemical_formula_sum   'Mg1 Nb2 In2 O8'
_cell_volume   185.51692410
_cell_formula_units_Z   1
loop_
 _symmetry_equiv_pos_site_id
 _symmetry_equiv_pos_as_xyz
  1  'x, y, z'
loop_
 _atom_site_type_symbol
 _atom_site_label
 _atom_site_symmetry_multiplicity
 _atom_site_fract_x
 _atom_site_fract_y
 _atom_site_fract_z
 _atom_site_occupancy
  Mg  Mg0  1  0.00000000  0.75000000  0.62585800  1
  Nb  Nb1  1  0.00000000  0.75000000  0.16918300  1
  Nb  Nb2  1  0.00000000  0.25000000  0.84829300  1
  In  In3  1  0.50000000  0.75000000  0.68923500  1
  In  In4  1  0.50000000  0.25000000  0.30791800  1
  O  O5  1  0.22369300  0.44440000  0.66314500  1
  O  O6  1  0.77630700  0.05560000  0.66314500  1
  O  O7  1  0.77166200  0.64627700  0.37960800  1
  O  O8  1  0.22833800  0.85372300  0.37960800  1
  O  O9  1  0.16094900  0.43831000  0.09484700  1
  O  O10  1  0.83905100  0.06169000  0.09484700  1
  O  O11  1  0.78801800  0.56863100  0.85986500  1
  O  O12  1  0.21198200  0.93136900  0.85986500  1
