# generated using pymatgen
data_MgCu2(WO4)2
_symmetry_space_group_name_H-M   'P 1'
_cell_length_a   5.79141590
_cell_length_b   5.12532254
_cell_length_c   6.37133424
_cell_angle_alpha   90.00139027
_cell_angle_beta   89.99715741
_cell_angle_gamma   109.17369543
_symmetry_Int_Tables_number   1
_chemical_formula_structural   MgCu2(WO4)2
_chemical_formula_sum   'Mg1 Cu2 W2 O8'
_cell_volume   178.62853535
_cell_formula_units_Z   1
loop_
 _symmetry_equiv_pos_site_id
 _symmetry_equiv_pos_as_xyz
  1  'x, y, z'
loop_
 _atom_site_type_symbol
 _atom_site_label
 _atom_site_symmetry_multiplicity
 _atom_site_fract_x
 _atom_site_fract_y
 _atom_site_fract_z
 _atom_site_occupancy
  Mg  Mg0  1  0.99993915  0.24994174  0.61293812  1
  Cu  Cu1  1  0.49999666  0.25011813  0.65423583  1
  Cu  Cu2  1  0.49996079  0.74996168  0.35596562  1
  W  W3  1  0.99996242  0.24996894  0.14282612  1
  W  W4  1  0.00008784  0.75002190  0.86575132  1
  O  O5  1  0.79055109  0.04232404  0.35179594  1
  O  O6  1  0.20935917  0.45761486  0.35179481  1
  O  O7  1  0.19942632  0.98487904  0.65936422  1
  O  O8  1  0.80064001  0.51518165  0.65938600  1
  O  O9  1  0.81127134  0.00629391  0.89103290  1
  O  O10  1  0.18880483  0.49371938  0.89104203  1
  O  O11  1  0.18555575  0.00110665  0.09444618  1
  O  O12  1  0.81444363  0.49886808  0.09441990  1
