# generated using pymatgen
data_Na3Mg(NiO2)5
_symmetry_space_group_name_H-M   'P 1'
_cell_length_a   8.81402482
_cell_length_b   5.13194218
_cell_length_c   6.74273940
_cell_angle_alpha   63.64157959
_cell_angle_beta   108.56284505
_cell_angle_gamma   80.64599807
_symmetry_Int_Tables_number   1
_chemical_formula_structural   Na3Mg(NiO2)5
_chemical_formula_sum   'Na3 Mg1 Ni5 O10'
_cell_volume   241.92287726
_cell_formula_units_Z   1
loop_
 _symmetry_equiv_pos_site_id
 _symmetry_equiv_pos_as_xyz
  1  'x, y, z'
loop_
 _atom_site_type_symbol
 _atom_site_label
 _atom_site_symmetry_multiplicity
 _atom_site_fract_x
 _atom_site_fract_y
 _atom_site_fract_z
 _atom_site_occupancy
  Na  Na0  1  0.12449576  0.43530984  0.71620634  1
  Na  Na1  1  0.78404593  0.75104909  0.27640461  1
  Na  Na2  1  0.49514132  0.74875978  0.87433689  1
  Mg  Mg3  1  0.29282740  0.60905562  0.22866846  1
  Ni  Ni4  1  0.96953513  0.95357834  0.99488776  1
  Ni  Ni5  1  0.12186275  0.27600746  0.23404046  1
  Ni  Ni6  1  0.46244342  0.91845758  0.35933543  1
  Ni  Ni7  1  0.63836701  0.25658248  0.57438031  1
  Ni  Ni8  1  0.79041337  0.59897418  0.78249357  1
  O  O9  1  0.22641151  0.03686023  0.13914904  1
  O  O10  1  0.36451658  0.16189623  0.45754426  1
  O  O11  1  0.06742018  0.58087035  0.31356487  1
  O  O12  1  0.52331053  0.64045613  0.25473582  1
  O  O13  1  0.09575129  0.67818060  0.93090887  1
  O  O14  1  0.90782924  0.23453440  0.10168206  1
  O  O15  1  0.56162981  0.51038149  0.68373833  1
  O  O16  1  0.67915438  0.97499650  0.46348943  1
  O  O17  1  0.87037562  0.33154754  0.68341236  1
  O  O18  1  0.73928275  0.88028014  0.88310412  1
