# generated using pymatgen
data_Na3LaNbSi2PO12
_symmetry_space_group_name_H-M   'P 1'
_cell_length_a   9.45859705
_cell_length_b   9.45859670
_cell_length_c   22.55401777
_cell_angle_alpha   91.12375957
_cell_angle_beta   88.87624038
_cell_angle_gamma   120.01883325
_symmetry_Int_Tables_number   1
_chemical_formula_structural   Na3LaNbSi2PO12
_chemical_formula_sum   'Na18 La6 Nb6 Si12 P6 O72'
_cell_volume   1746.68327707
_cell_formula_units_Z   6
loop_
 _symmetry_equiv_pos_site_id
 _symmetry_equiv_pos_as_xyz
  1  'x, y, z'
loop_
 _atom_site_type_symbol
 _atom_site_label
 _atom_site_symmetry_multiplicity
 _atom_site_fract_x
 _atom_site_fract_y
 _atom_site_fract_z
 _atom_site_occupancy
  Na  Na0  1  0.98779290  0.98683645  0.50005483  1
  Na  Na1  1  0.01316355  0.01220710  0.00005483  1
  Na  Na2  1  0.65445990  0.32016945  0.83338783  1
  Na  Na3  1  0.67983055  0.34554010  0.33338783  1
  Na  Na4  1  0.32112590  0.65350345  0.16672183  1
  Na  Na5  1  0.34649655  0.67887410  0.66672183  1
  Na  Na6  1  0.66724761  0.01442926  0.24839489  1
  Na  Na7  1  0.97756615  0.63008323  0.24366815  1
  Na  Na8  1  0.98557074  0.33275239  0.74839489  1
  Na  Na9  1  0.36991677  0.02243385  0.74366815  1
  Na  Na10  1  0.33391461  0.34776226  0.58172789  1
  Na  Na11  1  0.64423315  0.96341623  0.57700115  1
  Na  Na12  1  0.65223774  0.66608539  0.08172789  1
  Na  Na13  1  0.03658377  0.35576685  0.07700115  1
  Na  Na14  1  0.00058061  0.68109626  0.91506189  1
  Na  Na15  1  0.31089915  0.29675023  0.91033515  1
  Na  Na16  1  0.31890374  0.99941939  0.41506189  1
  Na  Na17  1  0.70324977  0.68910085  0.41033515  1
  La  La18  1  0.00348028  0.01735753  0.34821619  1
  La  La19  1  0.98264247  0.99651972  0.84821619  1
  La  La20  1  0.67014728  0.35069053  0.68154919  1
  La  La21  1  0.64930947  0.32985272  0.18154919  1
  La  La22  1  0.33681328  0.68402453  0.01488319  1
  La  La23  1  0.31597547  0.66318672  0.51488319  1
  Nb  Nb24  1  0.99577648  0.98778220  0.64927162  1
  Nb  Nb25  1  0.01221780  0.00422352  0.14927162  1
  Nb  Nb26  1  0.66244348  0.32111520  0.98260462  1
  Nb  Nb27  1  0.67888480  0.33755652  0.48260462  1
  Nb  Nb28  1  0.32910948  0.65444920  0.31593862  1
  Nb  Nb29  1  0.34555080  0.67089052  0.81593862  1
  Si  Si30  1  0.69058582  0.71108894  0.25266949  1
  Si  Si31  1  0.01197013  0.30974695  0.24766733  1
  Si  Si32  1  0.28891106  0.30941418  0.75266949  1
  Si  Si33  1  0.69025305  0.98802987  0.74766733  1
  Si  Si34  1  0.35725282  0.04442194  0.58600249  1
  Si  Si35  1  0.67863713  0.64307995  0.58100033  1
  Si  Si36  1  0.95557806  0.64274718  0.08600249  1
  Si  Si37  1  0.35692005  0.32136287  0.08100033  1
  Si  Si38  1  0.02391882  0.37775594  0.91933649  1
  Si  Si39  1  0.34530313  0.97641395  0.91433433  1
  Si  Si40  1  0.62224406  0.97608118  0.41933649  1
  Si  Si41  1  0.02358605  0.65469687  0.41433433  1
  P  P42  1  0.28695792  0.96596346  0.25179113  1
  P  P43  1  0.03403654  0.71304208  0.75179113  1
  P  P44  1  0.95362492  0.29929646  0.58512413  1
  P  P45  1  0.70070354  0.04637508  0.08512413  1
  P  P46  1  0.62029092  0.63263046  0.91845813  1
  P  P47  1  0.36736954  0.37970908  0.41845813  1
  O  O48  1  0.22904885  0.98716946  0.31279949  1
  O  O49  1  0.77911039  0.78973071  0.31396908  1
  O  O50  1  0.95338246  0.19216751  0.30343477  1
  O  O51  1  0.21026929  0.22088961  0.81396908  1
  O  O52  1  0.01283054  0.77095115  0.81279949  1
  O  O53  1  0.80783249  0.04661754  0.80343477  1
  O  O54  1  0.80060354  0.96676760  0.69015183  1
  O  O55  1  0.15259207  0.18734162  0.69743447  1
  O  O56  1  0.02859404  0.83267130  0.70241169  1
  O  O57  1  0.81265838  0.84740793  0.19743447  1
  O  O58  1  0.03323240  0.19939646  0.19015183  1
  O  O59  1  0.16732870  0.97140596  0.20241169  1
  O  O60  1  0.89571585  0.32050246  0.64613249  1
  O  O61  1  0.44577739  0.12306371  0.64730208  1
  O  O62  1  0.62004946  0.52550051  0.63676777  1
  O  O63  1  0.87693629  0.55422261  0.14730208  1
  O  O64  1  0.67949754  0.10428415  0.14613249  1
  O  O65  1  0.47449949  0.37995054  0.13676777  1
  O  O66  1  0.46727054  0.30010060  0.02348483  1
  O  O67  1  0.81925907  0.52067462  0.03076747  1
  O  O68  1  0.69526104  0.16600430  0.03574469  1
  O  O69  1  0.47932538  0.18074093  0.53076747  1
  O  O70  1  0.69989940  0.53272946  0.52348483  1
  O  O71  1  0.83399570  0.30473896  0.53574469  1
  O  O72  1  0.56238185  0.65383646  0.97946649  1
  O  O73  1  0.11244339  0.45639771  0.98063608  1
  O  O74  1  0.28671546  0.85883451  0.97010177  1
  O  O75  1  0.54360229  0.88755661  0.48063608  1
  O  O76  1  0.34616354  0.43761815  0.47946649  1
  O  O77  1  0.14116549  0.71328454  0.47010177  1
  O  O78  1  0.13393654  0.63343460  0.35681883  1
  O  O79  1  0.48592507  0.85400862  0.36410147  1
  O  O80  1  0.36192704  0.49933830  0.36907869  1
  O  O81  1  0.14599138  0.51407493  0.86410147  1
  O  O82  1  0.36656540  0.86606346  0.85681883  1
  O  O83  1  0.50066170  0.63807296  0.86907869  1
  O  O84  1  0.97741104  0.79564589  0.40663142  1
  O  O85  1  0.80172939  0.99700627  0.41490642  1
  O  O86  1  0.23728440  0.20079851  0.40886360  1
  O  O87  1  0.00299373  0.19827061  0.91490642  1
  O  O88  1  0.20435411  0.02258896  0.90663142  1
  O  O89  1  0.79920149  0.76271560  0.90886360  1
  O  O90  1  0.93590958  0.12566774  0.58022165  1
  O  O91  1  0.18009347  0.04686453  0.58720539  1
  O  O92  1  0.85991820  0.81193556  0.59023655  1
  O  O93  1  0.95313547  0.81990653  0.08720539  1
  O  O94  1  0.87433226  0.06409042  0.08022165  1
  O  O95  1  0.18806444  0.14008180  0.09023655  1
  O  O96  1  0.64407804  0.12897889  0.73996442  1
  O  O97  1  0.46839639  0.33033927  0.74823942  1
  O  O98  1  0.90395140  0.53413151  0.74219660  1
  O  O99  1  0.66966073  0.53160361  0.24823942  1
  O  O100  1  0.87102111  0.35592196  0.23996442  1
  O  O101  1  0.46586849  0.09604860  0.24219660  1
  O  O102  1  0.60257658  0.45900074  0.91355465  1
  O  O103  1  0.84676047  0.38019753  0.92053839  1
  O  O104  1  0.52658520  0.14526856  0.92356955  1
  O  O105  1  0.61980247  0.15323953  0.42053839  1
  O  O106  1  0.54099926  0.39742342  0.41355465  1
  O  O107  1  0.85473144  0.47341480  0.42356955  1
  O  O108  1  0.31074404  0.46231289  0.07329842  1
  O  O109  1  0.13506239  0.66367327  0.08157342  1
  O  O110  1  0.57061740  0.86746551  0.07553060  1
  O  O111  1  0.33632673  0.86493761  0.58157342  1
  O  O112  1  0.53768711  0.68925596  0.57329842  1
  O  O113  1  0.13253449  0.42938260  0.57553060  1
  O  O114  1  0.26924258  0.79233474  0.24688865  1
  O  O115  1  0.51342647  0.71353153  0.25387239  1
  O  O116  1  0.19325120  0.47860256  0.25690355  1
  O  O117  1  0.28646847  0.48657353  0.75387239  1
  O  O118  1  0.20766526  0.73075742  0.74688865  1
  O  O119  1  0.52139744  0.80674880  0.75690355  1
