# generated using pymatgen
data_Na3Zr4SiP5O24
_symmetry_space_group_name_H-M   'P 1'
_cell_length_a   9.02448642
_cell_length_b   8.99122798
_cell_length_c   23.37840288
_cell_angle_alpha   90.01050630
_cell_angle_beta   90.02232729
_cell_angle_gamma   119.86428067
_symmetry_Int_Tables_number   1
_chemical_formula_structural   Na3Zr4SiP5O24
_chemical_formula_sum   'Na9 Zr12 Si3 P15 O72'
_cell_volume   1645.05044083
_cell_formula_units_Z   3
loop_
 _symmetry_equiv_pos_site_id
 _symmetry_equiv_pos_as_xyz
  1  'x, y, z'
loop_
 _atom_site_type_symbol
 _atom_site_label
 _atom_site_symmetry_multiplicity
 _atom_site_fract_x
 _atom_site_fract_y
 _atom_site_fract_z
 _atom_site_occupancy
  Na  Na0  1  0.36648776  0.00052678  0.74974807  1
  Na  Na1  1  0.66535270  0.96904393  0.58422875  1
  Na  Na2  1  0.66827410  0.69709463  0.08289479  1
  Na  Na3  1  0.00709992  0.00048561  0.49974628  1
  Na  Na4  1  0.00504915  0.00309343  0.99937772  1
  Na  Na5  1  0.67183821  0.33681750  0.83383164  1
  Na  Na6  1  0.66667056  0.33330744  0.33332067  1
  Na  Na7  1  0.32660512  0.66601324  0.16712301  1
  Na  Na8  1  0.33037907  0.66032297  0.66663610  1
  Zr  Zr9  1  0.00012255  0.00031714  0.35292280  1
  Zr  Zr10  1  0.99427842  0.00045505  0.85327640  1
  Zr  Zr11  1  0.00367116  0.99944425  0.64804675  1
  Zr  Zr12  1  0.00691167  0.00265654  0.14800612  1
  Zr  Zr13  1  0.67010943  0.33259694  0.68536476  1
  Zr  Zr14  1  0.67256285  0.33582310  0.18650372  1
  Zr  Zr15  1  0.66968763  0.33649530  0.98051965  1
  Zr  Zr16  1  0.66057877  0.33115177  0.47998582  1
  Zr  Zr17  1  0.32333236  0.66588564  0.01862977  1
  Zr  Zr18  1  0.32709221  0.66487983  0.51856050  1
  Zr  Zr19  1  0.33319561  0.66636045  0.31376522  1
  Zr  Zr20  1  0.33752634  0.66436131  0.81464544  1
  Si  Si21  1  0.70928330  0.99952473  0.74936711  1
  Si  Si22  1  0.37232796  0.04211501  0.58321390  1
  Si  Si23  1  0.95952473  0.62419583  0.08360273  1
  P  P24  1  0.29154510  0.00051145  0.25067661  1
  P  P25  1  0.70924498  0.71013579  0.24993423  1
  P  P26  1  0.00040938  0.29043432  0.25043565  1
  P  P27  1  0.28946136  0.29111082  0.75038808  1
  P  P28  1  0.99841833  0.70831974  0.75101423  1
  P  P29  1  0.95806454  0.33510961  0.58271778  1
  P  P30  1  0.66625179  0.62299408  0.58296137  1
  P  P31  1  0.66674251  0.04359476  0.08337596  1
  P  P32  1  0.37677530  0.33208862  0.08316111  1
  P  P33  1  0.62427835  0.66638890  0.91779126  1
  P  P34  1  0.04223391  0.37568394  0.91633294  1
  P  P35  1  0.33323158  0.95902234  0.91590363  1
  P  P36  1  0.62414978  0.95665406  0.41669940  1
  P  P37  1  0.33280552  0.37623191  0.41623132  1
  P  P38  1  0.04191713  0.66624866  0.41598636  1
  O  O39  1  0.20393333  0.02663409  0.30343583  1
  O  O40  1  0.82294287  0.79621508  0.30284423  1
  O  O41  1  0.97338766  0.17748631  0.30357153  1
  O  O42  1  0.20882846  0.17445019  0.80317927  1
  O  O43  1  0.97390604  0.79551504  0.80394129  1
  O  O44  1  0.82904384  0.02964762  0.80533404  1
  O  O45  1  0.79235170  0.96917684  0.69157067  1
  O  O46  1  0.17927497  0.20729418  0.69669940  1
  O  O47  1  0.03454314  0.82403299  0.69743554  1
  O  O48  1  0.79043650  0.81893911  0.19524962  1
  O  O49  1  0.02798386  0.20699298  0.19679281  1
  O  O50  1  0.17875782  0.97195000  0.19703129  1
  O  O51  1  0.87604426  0.36398530  0.63664224  1
  O  O52  1  0.49400099  0.12523619  0.64032863  1
  O  O53  1  0.63878986  0.51316310  0.63670314  1
  O  O54  1  0.86668687  0.50473444  0.13934563  1
  O  O55  1  0.63634281  0.12522199  0.13679339  1
  O  O56  1  0.49089407  0.36492178  0.13645884  1
  O  O57  1  0.45929373  0.30354688  0.02950930  1
  O  O58  1  0.83387871  0.53705053  0.02818763  1
  O  O59  1  0.69417957  0.15469385  0.02986884  1
  O  O60  1  0.46809743  0.16214309  0.52776605  1
  O  O61  1  0.69611202  0.54037434  0.52971812  1
  O  O62  1  0.84234409  0.30207277  0.53005658  1
  O  O63  1  0.54330648  0.69426752  0.97196722  1
  O  O64  1  0.15462494  0.46030137  0.96974976  1
  O  O65  1  0.30661633  0.84513139  0.96905456  1
  O  O66  1  0.54293735  0.84778023  0.47136752  1
  O  O67  1  0.30530002  0.45961949  0.46988571  1
  O  O68  1  0.15457879  0.69465599  0.46964233  1
  O  O69  1  0.12943597  0.64006149  0.36323052  1
  O  O70  1  0.51040387  0.87044869  0.36382865  1
  O  O71  1  0.35995247  0.48916813  0.36310012  1
  O  O72  1  0.12679589  0.48796231  0.86325454  1
  O  O73  1  0.35992959  0.87471752  0.86172911  1
  O  O74  1  0.51175127  0.63945291  0.86429363  1
  O  O75  1  0.02448052  0.82842347  0.40903247  1
  O  O76  1  0.80363275  0.97558260  0.40910827  1
  O  O77  1  0.17282836  0.19631965  0.40895235  1
  O  O78  1  0.02594290  0.19663876  0.91034987  1
  O  O79  1  0.17227664  0.97614010  0.90961068  1
  O  O80  1  0.80363338  0.82584517  0.90997135  1
  O  O81  1  0.96934686  0.16918350  0.58995488  1
  O  O82  1  0.18397671  0.02100664  0.58956502  1
  O  O83  1  0.82331031  0.80662667  0.58946614  1
  O  O84  1  0.96878759  0.81092861  0.09076424  1
  O  O85  1  0.82468462  0.01876761  0.09074345  1
  O  O86  1  0.19657719  0.17504216  0.09048462  1
  O  O87  1  0.68117806  0.16674500  0.74422546  1
  O  O88  1  0.46753822  0.30590429  0.74304131  1
  O  O89  1  0.83958286  0.53091875  0.74339093  1
  O  O90  1  0.68879019  0.52928576  0.24326605  1
  O  O91  1  0.83889742  0.30795538  0.24387314  1
  O  O92  1  0.46946794  0.16019793  0.24300215  1
  O  O93  1  0.64115499  0.50364730  0.92294255  1
  O  O94  1  0.86282727  0.35595598  0.92369887  1
  O  O95  1  0.49441706  0.13671083  0.92352690  1
  O  O96  1  0.64458762  0.13742187  0.42339407  1
  O  O97  1  0.49434282  0.35866225  0.42275528  1
  O  O98  1  0.86402788  0.50655238  0.42363403  1
  O  O99  1  0.36567752  0.49870270  0.07580114  1
  O  O100  1  0.14850239  0.64518734  0.07685383  1
  O  O101  1  0.51110601  0.85903387  0.07595905  1
  O  O102  1  0.36506820  0.85586392  0.57596173  1
  O  O103  1  0.50844788  0.64810602  0.57573542  1
  O  O104  1  0.13767078  0.49285587  0.57620211  1
  O  O105  1  0.30885032  0.83824187  0.25761518  1
  O  O106  1  0.52968366  0.69105469  0.25754819  1
  O  O107  1  0.16047216  0.47029777  0.25769575  1
  O  O108  1  0.30821835  0.47011231  0.75715911  1
  O  O109  1  0.16344072  0.69552779  0.75762080  1
  O  O110  1  0.51402715  0.83467604  0.75726437  1
