# generated using pymatgen
data_Na3Ca2Ge2P3(SO8)3
_symmetry_space_group_name_H-M   'P 1'
_cell_length_a   8.77457793
_cell_length_b   8.73347925
_cell_length_c   22.86838126
_cell_angle_alpha   90.22719019
_cell_angle_beta   89.59788056
_cell_angle_gamma   120.12034277
_symmetry_Int_Tables_number   1
_chemical_formula_structural   Na3Ca2Ge2P3(SO8)3
_chemical_formula_sum   'Na9 Ca6 Ge6 P9 S9 O72'
_cell_volume   1515.79651400
_cell_formula_units_Z   3
loop_
 _symmetry_equiv_pos_site_id
 _symmetry_equiv_pos_as_xyz
  1  'x, y, z'
loop_
 _atom_site_type_symbol
 _atom_site_label
 _atom_site_symmetry_multiplicity
 _atom_site_fract_x
 _atom_site_fract_y
 _atom_site_fract_z
 _atom_site_occupancy
  Na  Na0  1  0.66150311  0.68771110  0.08598578  1
  Na  Na1  1  0.33099010  0.29486882  0.91528774  1
  Na  Na2  1  0.33104454  0.03642424  0.41503895  1
  Na  Na3  1  0.99335690  0.00168368  0.50443045  1
  Na  Na4  1  0.00678526  0.99678699  0.00388572  1
  Na  Na5  1  0.68159436  0.33497346  0.82832507  1
  Na  Na6  1  0.68092540  0.34561414  0.32786089  1
  Na  Na7  1  0.31591215  0.65865889  0.16763822  1
  Na  Na8  1  0.33411138  0.67408757  0.66705280  1
  Ca  Ca9  1  0.99741588  0.00266454  0.34148821  1
  Ca  Ca10  1  0.99305338  0.99095531  0.84081444  1
  Ca  Ca11  1  0.67516576  0.33943714  0.98453382  1
  Ca  Ca12  1  0.66825587  0.33578325  0.48446985  1
  Ca  Ca13  1  0.31731464  0.66326784  0.02662691  1
  Ca  Ca14  1  0.33255409  0.66979079  0.52760405  1
  Ge  Ge15  1  0.00856332  0.00084788  0.65875402  1
  Ge  Ge16  1  0.01445979  0.00366315  0.15860139  1
  Ge  Ge17  1  0.65907397  0.32561301  0.68585256  1
  Ge  Ge18  1  0.66628137  0.33806818  0.18566767  1
  Ge  Ge19  1  0.33261177  0.66247066  0.30550218  1
  Ge  Ge20  1  0.33241684  0.67017664  0.80516933  1
  P  P21  1  0.31126206  0.00383114  0.25017050  1
  P  P22  1  0.69622194  0.69492856  0.24784342  1
  P  P23  1  0.99343387  0.30092524  0.24734850  1
  P  P24  1  0.30731787  0.30516850  0.75004296  1
  P  P25  1  0.99404905  0.68900990  0.74709612  1
  P  P26  1  0.69998466  0.00302951  0.74728791  1
  P  P27  1  0.35942702  0.04614584  0.59061157  1
  P  P28  1  0.95502278  0.63860028  0.09380335  1
  P  P29  1  0.36404204  0.31520166  0.08976629  1
  S  S30  1  0.95222425  0.31395098  0.59226692  1
  S  S31  1  0.68545010  0.63901397  0.59252330  1
  S  S32  1  0.68456588  0.04771503  0.09109017  1
  S  S33  1  0.61707370  0.66762630  0.91322879  1
  S  S34  1  0.04731208  0.38296664  0.90935922  1
  S  S35  1  0.33591430  0.95361332  0.91039013  1
  S  S36  1  0.61720231  0.95009905  0.41159021  1
  S  S37  1  0.33580873  0.38386183  0.41148462  1
  S  S38  1  0.04839697  0.66306308  0.41045367  1
  O  O39  1  0.25633852  0.04523429  0.30792117  1
  O  O40  1  0.79848473  0.75726702  0.30287833  1
  O  O41  1  0.95230833  0.20281732  0.30360852  1
  O  O42  1  0.25193853  0.20999799  0.80781674  1
  O  O43  1  0.94943283  0.74366249  0.80344105  1
  O  O44  1  0.79819583  0.04587304  0.80336430  1
  O  O45  1  0.79416984  0.96341012  0.69548371  1
  O  O46  1  0.17183956  0.20817566  0.69972236  1
  O  O47  1  0.03599076  0.82358873  0.69568523  1
  O  O48  1  0.78595763  0.82245528  0.19408968  1
  O  O49  1  0.03398604  0.20710554  0.19534913  1
  O  O50  1  0.17541737  0.96370274  0.19979008  1
  O  O51  1  0.85924403  0.34345910  0.64162021  1
  O  O52  1  0.49422742  0.15610653  0.63931937  1
  O  O53  1  0.66265561  0.52043974  0.64206284  1
  O  O54  1  0.85280678  0.50832328  0.14378418  1
  O  O55  1  0.65717420  0.13672084  0.14137195  1
  O  O56  1  0.49923360  0.34224335  0.13803201  1
  O  O57  1  0.41933625  0.28271529  0.02950034  1
  O  O58  1  0.85163271  0.57982714  0.03675500  1
  O  O59  1  0.70824784  0.13892436  0.03579124  1
  O  O60  1  0.41832326  0.13456254  0.53075170  1
  O  O61  1  0.71296695  0.57390141  0.53676744  1
  O  O62  1  0.86153237  0.28922706  0.53665648  1
  O  O63  1  0.53476962  0.67465074  0.96862955  1
  O  O64  1  0.14619816  0.46604131  0.96249609  1
  O  O65  1  0.32520549  0.85805301  0.96307766  1
  O  O66  1  0.53161277  0.85578554  0.46526340  1
  O  O67  1  0.32509114  0.46910452  0.46442101  1
  O  O68  1  0.14743888  0.67890914  0.46337956  1
  O  O69  1  0.13925834  0.64763751  0.35540770  1
  O  O70  1  0.50560600  0.85957586  0.35756235  1
  O  O71  1  0.34940806  0.48646697  0.35606430  1
  O  O72  1  0.13927478  0.49078338  0.85486464  1
  O  O73  1  0.34910175  0.86329912  0.85483616  1
  O  O74  1  0.50316963  0.64776659  0.86036059  1
  O  O75  1  0.03731203  0.82544000  0.40768413  1
  O  O76  1  0.79175981  0.96952425  0.40880133  1
  O  O77  1  0.17936534  0.20445257  0.40978114  1
  O  O78  1  0.03607229  0.20965956  0.90655201  1
  O  O79  1  0.17899188  0.97463869  0.90865497  1
  O  O80  1  0.79154222  0.82406075  0.91017252  1
  O  O81  1  0.96135516  0.14809300  0.60063997  1
  O  O82  1  0.17715800  0.03805745  0.60198095  1
  O  O83  1  0.84888260  0.81727857  0.60024323  1
  O  O84  1  0.96444953  0.82295727  0.10403420  1
  O  O85  1  0.84564020  0.03010005  0.09808432  1
  O  O86  1  0.17916499  0.14879607  0.10202261  1
  O  O87  1  0.66948922  0.16020917  0.73403661  1
  O  O88  1  0.49305050  0.33317237  0.73571869  1
  O  O89  1  0.83660232  0.50218499  0.73255142  1
  O  O90  1  0.66434945  0.50538640  0.23625386  1
  O  O91  1  0.83585032  0.32808290  0.23377934  1
  O  O92  1  0.49545644  0.16144007  0.23471614  1
  O  O93  1  0.62670047  0.50248881  0.91164221  1
  O  O94  1  0.87255447  0.36610825  0.91030837  1
  O  O95  1  0.49474576  0.13206591  0.90975294  1
  O  O96  1  0.62727223  0.12531872  0.41173413  1
  O  O97  1  0.49466101  0.36478047  0.41073300  1
  O  O98  1  0.87274487  0.50452124  0.41123281  1
  O  O99  1  0.35648953  0.48642368  0.09122360  1
  O  O100  1  0.13781895  0.66381536  0.09334740  1
  O  O101  1  0.53030057  0.86582266  0.08970176  1
  O  O102  1  0.33634555  0.86248829  0.59345579  1
  O  O103  1  0.52902281  0.65851761  0.59201194  1
  O  O104  1  0.13074814  0.46796851  0.59174286  1
  O  O105  1  0.32606668  0.83157801  0.25432236  1
  O  O106  1  0.50766279  0.67682297  0.25324329  1
  O  O107  1  0.16614062  0.48971360  0.25245693  1
  O  O108  1  0.32508293  0.49389512  0.75407303  1
  O  O109  1  0.16638306  0.67431537  0.75242122  1
  O  O110  1  0.51042514  0.83167566  0.75268212  1
