# generated using pymatgen
data_Na7MgSc3(PO4)6
_symmetry_space_group_name_H-M   'P 1'
_cell_length_a   9.06216501
_cell_length_b   9.04144605
_cell_length_c   22.50602017
_cell_angle_alpha   89.99238929
_cell_angle_beta   90.00993467
_cell_angle_gamma   120.05865454
_symmetry_Int_Tables_number   1
_chemical_formula_structural   Na7MgSc3(PO4)6
_chemical_formula_sum   'Na21 Mg3 Sc9 P18 O72'
_cell_volume   1596.03422286
_cell_formula_units_Z   3
loop_
 _symmetry_equiv_pos_site_id
 _symmetry_equiv_pos_as_xyz
  1  'x, y, z'
loop_
 _atom_site_type_symbol
 _atom_site_label
 _atom_site_symmetry_multiplicity
 _atom_site_fract_x
 _atom_site_fract_y
 _atom_site_fract_z
 _atom_site_occupancy
  Na  Na0  1  0.63744834  0.00554529  0.24748696  1
  Na  Na1  1  0.36760872  0.36211348  0.24749518  1
  Na  Na2  1  0.99416098  0.63166150  0.24696670  1
  Na  Na3  1  0.63580126  0.63090876  0.74811638  1
  Na  Na4  1  0.99535987  0.36419412  0.74861122  1
  Na  Na5  1  0.36937970  0.00475697  0.74833344  1
  Na  Na6  1  0.02961181  0.69731478  0.58399431  1
  Na  Na7  1  0.66541437  0.96915123  0.58385082  1
  Na  Na8  1  0.30389682  0.96966978  0.08407125  1
  Na  Na9  1  0.66805514  0.69678707  0.08424247  1
  Na  Na10  1  0.69756844  0.03259584  0.91849069  1
  Na  Na11  1  0.33302264  0.30162833  0.91819975  1
  Na  Na12  1  0.96887972  0.29742383  0.41461661  1
  Na  Na13  1  0.32853755  0.03136561  0.41487295  1
  Na  Na14  1  0.70304099  0.67154521  0.41461229  1
  Na  Na15  1  0.00705471  0.00758252  0.49963219  1
  Na  Na16  1  0.99997467  0.99983379  0.00165604  1
  Na  Na17  1  0.67379962  0.34109331  0.83383945  1
  Na  Na18  1  0.66680238  0.33335298  0.32960574  1
  Na  Na19  1  0.32561958  0.65854533  0.16452496  1
  Na  Na20  1  0.33284024  0.65872767  0.66489650  1
  Mg  Mg21  1  0.00024736  0.00023224  0.34774866  1
  Mg  Mg22  1  0.66531318  0.33356938  0.68176181  1
  Mg  Mg23  1  0.66858092  0.33378915  0.18164174  1
  Sc  Sc24  1  0.99949342  0.99312045  0.85126540  1
  Sc  Sc25  1  0.00662646  0.00702139  0.64813771  1
  Sc  Sc26  1  0.00057528  0.00747263  0.14904913  1
  Sc  Sc27  1  0.67489458  0.33996894  0.98454221  1
  Sc  Sc28  1  0.66453416  0.33286348  0.48525034  1
  Sc  Sc29  1  0.32503815  0.66006054  0.01870038  1
  Sc  Sc30  1  0.33287782  0.65973002  0.51820532  1
  Sc  Sc31  1  0.33329646  0.66664143  0.31553733  1
  Sc  Sc32  1  0.33135799  0.66604627  0.81790579  1
  P  P33  1  0.29460168  0.00214725  0.25104934  1
  P  P34  1  0.70738739  0.70526128  0.25119331  1
  P  P35  1  0.99773438  0.29267566  0.25214066  1
  P  P36  1  0.29583101  0.29425684  0.75068979  1
  P  P37  1  0.99834205  0.70406817  0.74874424  1
  P  P38  1  0.70609794  0.00151480  0.74973993  1
  P  P39  1  0.95965555  0.33383177  0.58462965  1
  P  P40  1  0.37275732  0.03949862  0.58442942  1
  P  P41  1  0.66563731  0.62664388  0.58515660  1
  P  P42  1  0.96037901  0.62654907  0.08598966  1
  P  P43  1  0.66694016  0.04021275  0.08399672  1
  P  P44  1  0.37482557  0.33365821  0.08412864  1
  P  P45  1  0.62733703  0.66611700  0.91697787  1
  P  P46  1  0.03723132  0.37157776  0.91565029  1
  P  P47  1  0.33287990  0.96155734  0.91720617  1
  P  P48  1  0.62984160  0.96151109  0.41692880  1
  P  P49  1  0.33156882  0.36990784  0.41592842  1
  P  P50  1  0.03864806  0.66837671  0.41702650  1
  O  O51  1  0.21347141  0.03031288  0.30648982  1
  O  O52  1  0.81681501  0.78687541  0.30660561  1
  O  O53  1  0.96877405  0.18436740  0.30802521  1
  O  O54  1  0.21322820  0.18299111  0.80666714  1
  O  O55  1  0.96975846  0.79243709  0.80263703  1
  O  O56  1  0.81860318  0.02944931  0.80528502  1
  O  O57  1  0.78820243  0.96882311  0.69455853  1
  O  O58  1  0.17644311  0.20842520  0.69722234  1
  O  O59  1  0.03195642  0.81785584  0.69320055  1
  O  O60  1  0.78810314  0.81946256  0.19529057  1
  O  O61  1  0.03227089  0.20863640  0.19790944  1
  O  O62  1  0.18070743  0.96880531  0.19515571  1
  O  O63  1  0.87912938  0.36441438  0.63972811  1
  O  O64  1  0.48462707  0.11975170  0.63927220  1
  O  O65  1  0.64113824  0.51996936  0.64036980  1
  O  O66  1  0.88146394  0.52174126  0.14180695  1
  O  O67  1  0.63514873  0.11969313  0.13905945  1
  O  O68  1  0.48533223  0.36455197  0.13948354  1
  O  O69  1  0.45580361  0.30373457  0.02746446  1
  O  O70  1  0.84486572  0.54272510  0.03097351  1
  O  O71  1  0.69164948  0.14716732  0.02711257  1
  O  O72  1  0.45517296  0.14692969  0.52746958  1
  O  O73  1  0.69637728  0.54591424  0.52845499  1
  O  O74  1  0.84823864  0.30361475  0.52793963  1
  O  O75  1  0.54367300  0.69682959  0.97195461  1
  O  O76  1  0.15670088  0.45828822  0.96878957  1
  O  O77  1  0.30831759  0.85149154  0.97232909  1
  O  O78  1  0.54406113  0.84827282  0.47217950  1
  O  O79  1  0.30299005  0.45899092  0.46952315  1
  O  O80  1  0.15178144  0.69603363  0.47228452  1
  O  O81  1  0.12137023  0.63550564  0.36172551  1
  O  O82  1  0.51440875  0.87854395  0.36160291  1
  O  O83  1  0.36548904  0.48429258  0.36019214  1
  O  O84  1  0.11921025  0.47871954  0.85871799  1
  O  O85  1  0.36241419  0.87876019  0.86103191  1
  O  O86  1  0.51517128  0.63715496  0.86069082  1
  O  O87  1  0.02055661  0.82855953  0.41137452  1
  O  O88  1  0.80774698  0.97956298  0.41144694  1
  O  O89  1  0.17177953  0.19133004  0.41105517  1
  O  O90  1  0.02131333  0.19176858  0.91044969  1
  O  O91  1  0.17666513  0.98708047  0.91112966  1
  O  O92  1  0.80268586  0.83159247  0.91043457  1
  O  O93  1  0.97094810  0.16804985  0.58897253  1
  O  O94  1  0.18955170  0.01281634  0.58856677  1
  O  O95  1  0.83006174  0.80848582  0.58873854  1
  O  O96  1  0.97888409  0.80909214  0.08911919  1
  O  O97  1  0.82316890  0.01242375  0.08852834  1
  O  O98  1  0.19717831  0.16814534  0.08886181  1
  O  O99  1  0.68727849  0.16186165  0.74434165  1
  O  O100  1  0.47420904  0.31263193  0.74447051  1
  O  O101  1  0.83842979  0.52469814  0.74421588  1
  O  O102  1  0.68520972  0.52414450  0.24477726  1
  O  O103  1  0.83872795  0.31356206  0.24471629  1
  O  O104  1  0.47551576  0.16143477  0.24452372  1
  O  O105  1  0.63798363  0.50117636  0.92210782  1
  O  O106  1  0.85595036  0.34607180  0.92153363  1
  O  O107  1  0.49657487  0.14159030  0.92153839  1
  O  O108  1  0.64577548  0.14148701  0.42232938  1
  O  O109  1  0.49537963  0.35474474  0.42243958  1
  O  O110  1  0.85882377  0.50425183  0.42254919  1
  O  O111  1  0.36133048  0.49793548  0.07690223  1
  O  O112  1  0.14376344  0.65465186  0.07800218  1
  O  O113  1  0.50384177  0.85800516  0.07742220  1
  O  O114  1  0.35430475  0.85804128  0.57765127  1
  O  O115  1  0.51060474  0.65501547  0.57800923  1
  O  O116  1  0.13661196  0.49793964  0.57730706  1
  O  O117  1  0.31174789  0.83758984  0.25592752  1
  O  O118  1  0.52601188  0.68826954  0.25595248  1
  O  O119  1  0.16200240  0.47449422  0.25617438  1
  O  O120  1  0.31299512  0.47504556  0.75555111  1
  O  O121  1  0.16210045  0.68831344  0.75535630  1
  O  O122  1  0.52564110  0.83759107  0.75551884  1
