# generated using pymatgen
data_MgNi4(OF2)4
_symmetry_space_group_name_H-M   'P 1'
_cell_length_a   7.33035071
_cell_length_b   4.01961359
_cell_length_c   8.24759844
_cell_angle_alpha   91.37248877
_cell_angle_beta   114.61246385
_cell_angle_gamma   89.95772906
_symmetry_Int_Tables_number   1
_chemical_formula_structural   MgNi4(OF2)4
_chemical_formula_sum   'Mg1 Ni4 O4 F8'
_cell_volume   220.86298039
_cell_formula_units_Z   1
loop_
 _symmetry_equiv_pos_site_id
 _symmetry_equiv_pos_as_xyz
  1  'x, y, z'
loop_
 _atom_site_type_symbol
 _atom_site_label
 _atom_site_symmetry_multiplicity
 _atom_site_fract_x
 _atom_site_fract_y
 _atom_site_fract_z
 _atom_site_occupancy
  Mg  Mg0  1  0.35669600  0.73546200  0.94987100  1
  Ni  Ni1  1  0.32618500  0.20665800  0.65040000  1
  Ni  Ni2  1  0.32259400  0.27886200  0.20239700  1
  Ni  Ni3  1  0.71111200  0.71831500  0.82351200  1
  Ni  Ni4  1  0.70317100  0.78203600  0.34770100  1
  O  O5  1  0.01030600  0.62423600  0.93938800  1
  O  O6  1  0.99098000  0.87444200  0.44305700  1
  O  O7  1  0.03412700  0.12545900  0.56378200  1
  O  O8  1  0.03131200  0.38017400  0.05479900  1
  F  F9  1  0.32309000  0.23322500  0.93447200  1
  F  F10  1  0.29594200  0.30395000  0.41802900  1
  F  F11  1  0.36285700  0.71418400  0.71692700  1
  F  F12  1  0.37216700  0.77708400  0.19326200  1
  F  F13  1  0.62919400  0.22419300  0.79633200  1
  F  F14  1  0.62692600  0.27556100  0.30361000  1
  F  F15  1  0.68680900  0.75150500  0.57943100  1
  F  F16  1  0.64986600  0.74465300  0.05624400  1
