# generated using pymatgen
data_Na3CaTa5Si3(PO6)6
_symmetry_space_group_name_H-M   'P 1'
_cell_length_a   8.86079758
_cell_length_b   8.86079728
_cell_length_c   22.98228535
_cell_angle_alpha   90.00000000
_cell_angle_beta   90.00000000
_cell_angle_gamma   120.00000111
_symmetry_Int_Tables_number   1
_chemical_formula_structural   Na3CaTa5Si3(PO6)6
_chemical_formula_sum   'Na6 Ca2 Ta10 Si6 P12 O72'
_cell_volume   1562.67784816
_cell_formula_units_Z   2
loop_
 _symmetry_equiv_pos_site_id
 _symmetry_equiv_pos_as_xyz
  1  'x, y, z'
loop_
 _atom_site_type_symbol
 _atom_site_label
 _atom_site_symmetry_multiplicity
 _atom_site_fract_x
 _atom_site_fract_y
 _atom_site_fract_z
 _atom_site_occupancy
  Na  Na0  1  -0.00000000  0.00000000  0.49923008  1
  Na  Na1  1  -0.00000000  0.00000000  0.99923008  1
  Na  Na2  1  0.66666700  0.33333300  0.82848708  1
  Na  Na3  1  0.66666700  0.33333300  0.32848708  1
  Na  Na4  1  0.33333300  0.66666700  0.16659296  1
  Na  Na5  1  0.33333300  0.66666700  0.66659296  1
  Ca  Ca6  1  0.66666700  0.33333300  0.68678835  1
  Ca  Ca7  1  0.66666700  0.33333300  0.18678835  1
  Ta  Ta8  1  -0.00000000  0.00000000  0.35701990  1
  Ta  Ta9  1  -0.00000000  0.00000000  0.85701990  1
  Ta  Ta10  1  -0.00000000  0.00000000  0.64612070  1
  Ta  Ta11  1  -0.00000000  0.00000000  0.14612070  1
  Ta  Ta12  1  0.66666700  0.33333300  0.97800519  1
  Ta  Ta13  1  0.66666700  0.33333300  0.47800519  1
  Ta  Ta14  1  0.33333300  0.66666700  0.01750898  1
  Ta  Ta15  1  0.33333300  0.66666700  0.51750898  1
  Ta  Ta16  1  0.33333300  0.66666700  0.31326504  1
  Ta  Ta17  1  0.33333300  0.66666700  0.81326504  1
  Si  Si18  1  0.61955738  0.66523765  0.91611745  1
  Si  Si19  1  0.04567927  0.38044262  0.91611745  1
  Si  Si20  1  0.33476235  0.95432073  0.91611745  1
  Si  Si21  1  0.61955738  0.95432073  0.41611745  1
  Si  Si22  1  0.33476235  0.38044262  0.41611745  1
  Si  Si23  1  0.04567927  0.66523765  0.41611745  1
  P  P24  1  0.28263631  0.99492350  0.25184044  1
  P  P25  1  0.71228719  0.71736369  0.25184044  1
  P  P26  1  0.00507650  0.28771281  0.25184044  1
  P  P27  1  0.28263631  0.28771281  0.75184044  1
  P  P28  1  0.00507650  0.71736369  0.75184044  1
  P  P29  1  0.71228719  0.99492350  0.75184044  1
  P  P30  1  0.96087844  0.33494589  0.58308739  1
  P  P31  1  0.37406845  0.03912156  0.58308739  1
  P  P32  1  0.66505411  0.62593155  0.58308739  1
  P  P33  1  0.96087844  0.62593155  0.08308739  1
  P  P34  1  0.66505411  0.03912156  0.08308739  1
  P  P35  1  0.37406845  0.33494589  0.08308739  1
  O  O36  1  0.18335055  0.00915403  0.30503287  1
  O  O37  1  0.82580348  0.81664945  0.30503287  1
  O  O38  1  0.99084597  0.17419652  0.30503287  1
  O  O39  1  0.18335055  0.17419652  0.80503287  1
  O  O40  1  0.99084597  0.81664945  0.80503287  1
  O  O41  1  0.82580348  0.00915403  0.80503287  1
  O  O42  1  0.80416795  0.97174241  0.69580382  1
  O  O43  1  0.16757446  0.19583205  0.69580382  1
  O  O44  1  0.02825759  0.83242554  0.69580382  1
  O  O45  1  0.80416795  0.83242554  0.19580382  1
  O  O46  1  0.02825759  0.19583205  0.19580382  1
  O  O47  1  0.16757446  0.97174241  0.19580382  1
  O  O48  1  0.89673644  0.37202730  0.63768854  1
  O  O49  1  0.47529187  0.10326356  0.63768854  1
  O  O50  1  0.62797270  0.52470813  0.63768854  1
  O  O51  1  0.89673644  0.52470813  0.13768854  1
  O  O52  1  0.62797270  0.10326356  0.13768854  1
  O  O53  1  0.47529187  0.37202730  0.13768854  1
  O  O54  1  0.46226724  0.30403805  0.02868671  1
  O  O55  1  0.84177181  0.53773276  0.02868671  1
  O  O56  1  0.69596195  0.15822819  0.02868671  1
  O  O57  1  0.46226724  0.15822819  0.52868671  1
  O  O58  1  0.69596195  0.53773276  0.52868671  1
  O  O59  1  0.84177181  0.30403805  0.52868671  1
  O  O60  1  0.53045917  0.69755313  0.97281922  1
  O  O61  1  0.16709295  0.46954083  0.97281922  1
  O  O62  1  0.30244687  0.83290705  0.97281922  1
  O  O63  1  0.53045917  0.83290705  0.47281922  1
  O  O64  1  0.30244687  0.46954083  0.47281922  1
  O  O65  1  0.16709295  0.69755313  0.47281922  1
  O  O66  1  0.13667136  0.63393151  0.35890373  1
  O  O67  1  0.49725914  0.86332864  0.35890373  1
  O  O68  1  0.36606849  0.50274086  0.35890373  1
  O  O69  1  0.13667136  0.50274086  0.85890373  1
  O  O70  1  0.36606849  0.86332864  0.85890373  1
  O  O71  1  0.49725914  0.63393151  0.85890373  1
  O  O72  1  0.02330729  0.83520958  0.40743417  1
  O  O73  1  0.81190230  0.97669271  0.40743417  1
  O  O74  1  0.16479042  0.18809770  0.40743417  1
  O  O75  1  0.02330729  0.18809770  0.90743417  1
  O  O76  1  0.16479042  0.97669271  0.90743417  1
  O  O77  1  0.81190230  0.83520958  0.90743417  1
  O  O78  1  0.97956327  0.16628250  0.58976196  1
  O  O79  1  0.18671923  0.02043673  0.58976196  1
  O  O80  1  0.83371750  0.81328077  0.58976196  1
  O  O81  1  0.97956327  0.81328077  0.08976196  1
  O  O82  1  0.83371750  0.02043673  0.08976196  1
  O  O83  1  0.18671923  0.16628250  0.08976196  1
  O  O84  1  0.69449455  0.15404326  0.75041546  1
  O  O85  1  0.45954971  0.30550545  0.75041546  1
  O  O86  1  0.84595674  0.54045029  0.75041546  1
  O  O87  1  0.69449455  0.54045029  0.25041546  1
  O  O88  1  0.84595674  0.30550545  0.25041546  1
  O  O89  1  0.45954971  0.15404326  0.25041546  1
  O  O90  1  0.64094590  0.49478699  0.92716433  1
  O  O91  1  0.85384208  0.35905410  0.92716433  1
  O  O92  1  0.50521301  0.14615792  0.92716433  1
  O  O93  1  0.64094590  0.14615792  0.42716433  1
  O  O94  1  0.50521301  0.35905410  0.42716433  1
  O  O95  1  0.85384208  0.49478699  0.42716433  1
  O  O96  1  0.34375764  0.49112828  0.07105949  1
  O  O97  1  0.14736964  0.65624236  0.07105949  1
  O  O98  1  0.50887172  0.85263036  0.07105949  1
  O  O99  1  0.34375764  0.85263036  0.57105949  1
  O  O100  1  0.50887172  0.65624236  0.57105949  1
  O  O101  1  0.14736964  0.49112828  0.57105949  1
  O  O102  1  0.29167742  0.82365969  0.25651165  1
  O  O103  1  0.53198127  0.70832258  0.25651165  1
  O  O104  1  0.17634031  0.46801873  0.25651165  1
  O  O105  1  0.29167742  0.46801873  0.75651165  1
  O  O106  1  0.17634031  0.70832258  0.75651165  1
  O  O107  1  0.53198127  0.82365969  0.75651165  1
