# generated using pymatgen
data_MgV4O8
_symmetry_space_group_name_H-M   'P 1'
_cell_length_a   3.01781677
_cell_length_b   6.52190186
_cell_length_c   7.62634052
_cell_angle_alpha   90.02035015
_cell_angle_beta   78.51376240
_cell_angle_gamma   76.57873160
_symmetry_Int_Tables_number   1
_chemical_formula_structural   MgV4O8
_chemical_formula_sum   'Mg1 V4 O8'
_cell_volume   142.90668207
_cell_formula_units_Z   1
loop_
 _symmetry_equiv_pos_site_id
 _symmetry_equiv_pos_as_xyz
  1  'x, y, z'
loop_
 _atom_site_type_symbol
 _atom_site_label
 _atom_site_symmetry_multiplicity
 _atom_site_fract_x
 _atom_site_fract_y
 _atom_site_fract_z
 _atom_site_occupancy
  Mg  Mg0  1  0.50219500  0.00065400  0.99739800  1
  V  V1  1  0.63545500  0.19734500  0.53144700  1
  V  V2  1  0.19092200  0.44384600  0.17643000  1
  V  V3  1  0.80837500  0.55589000  0.82423100  1
  V  V4  1  0.36463000  0.80223800  0.46900100  1
  O  O5  1  0.85354700  0.69140400  0.60130900  1
  O  O6  1  0.44301300  0.38024400  0.73146300  1
  O  O7  1  0.55645000  0.61946200  0.26898200  1
  O  O8  1  0.14639900  0.30817500  0.39917200  1
  O  O9  1  0.15875800  0.03908900  0.64227900  1
  O  O10  1  0.84840100  0.25993500  0.04291800  1
  O  O11  1  0.84061600  0.96064600  0.35909300  1
  O  O12  1  0.15124200  0.74107200  0.95627900  1
