# generated using pymatgen
data_Nb(SeCl)2
_symmetry_space_group_name_H-M   'P 1'
_cell_length_a   6.41200851
_cell_length_b   6.58658562
_cell_length_c   7.63272863
_cell_angle_alpha   66.42093295
_cell_angle_beta   69.27792087
_cell_angle_gamma   60.93752584
_symmetry_Int_Tables_number   1
_chemical_formula_structural   Nb(SeCl)2
_chemical_formula_sum   'Nb2 Se4 Cl4'
_cell_volume   253.07065098
_cell_formula_units_Z   2
loop_
 _symmetry_equiv_pos_site_id
 _symmetry_equiv_pos_as_xyz
  1  'x, y, z'
loop_
 _atom_site_type_symbol
 _atom_site_label
 _atom_site_symmetry_multiplicity
 _atom_site_fract_x
 _atom_site_fract_y
 _atom_site_fract_z
 _atom_site_occupancy
  Nb  Nb0  1  0.87171492  0.25729411  0.00003304  1
  Nb  Nb1  1  0.12828508  0.74270589  -0.00003304  1
  Se  Se2  1  0.92598140  0.88897452  0.31994081  1
  Se  Se3  1  0.07401860  0.11102548  0.68005919  1
  Se  Se4  1  0.73074947  0.04773805  0.86103423  1
  Se  Se5  1  0.26925053  0.95226195  0.13896577  1
  Cl  Cl6  1  0.84789437  0.50810495  0.20782276  1
  Cl  Cl7  1  0.15210563  0.49189505  0.79217724  1
  Cl  Cl8  1  0.42863205  0.34887100  0.20862704  1
  Cl  Cl9  1  0.57136795  0.65112900  0.79137296  1
