# generated using pymatgen
data_Na4YAlSi(PO6)2
_symmetry_space_group_name_H-M   'P 1'
_cell_length_a   9.10577653
_cell_length_b   9.11450357
_cell_length_c   22.22990837
_cell_angle_alpha   90.04102490
_cell_angle_beta   89.66886885
_cell_angle_gamma   120.12957141
_symmetry_Int_Tables_number   1
_chemical_formula_structural   Na4YAlSi(PO6)2
_chemical_formula_sum   'Na24 Y6 Al6 Si6 P12 O72'
_cell_volume   1595.66292651
_cell_formula_units_Z   6
loop_
 _symmetry_equiv_pos_site_id
 _symmetry_equiv_pos_as_xyz
  1  'x, y, z'
loop_
 _atom_site_type_symbol
 _atom_site_label
 _atom_site_symmetry_multiplicity
 _atom_site_fract_x
 _atom_site_fract_y
 _atom_site_fract_z
 _atom_site_occupancy
  Na  Na0  1  0.63192822  0.99985847  0.25682844  1
  Na  Na1  1  0.36641121  0.36893423  0.25215845  1
  Na  Na2  1  0.00258217  0.62312968  0.25235497  1
  Na  Na3  1  0.63818783  0.63678000  0.74105896  1
  Na  Na4  1  0.99000337  0.35820037  0.74657261  1
  Na  Na5  1  0.38120882  0.01115877  0.74362397  1
  Na  Na6  1  0.29541900  0.32973570  0.58220469  1
  Na  Na7  1  0.04454475  0.71381779  0.58184040  1
  Na  Na8  1  0.66455653  0.96256539  0.58927891  1
  Na  Na9  1  0.29908062  0.97425626  0.08516144  1
  Na  Na10  1  0.68038310  0.69648320  0.08621301  1
  Na  Na11  1  0.02524813  0.33393968  0.09397642  1
  Na  Na12  1  0.97859971  0.67687577  0.92242923  1
  Na  Na13  1  0.68941144  0.03089698  0.90992197  1
  Na  Na14  1  0.33315881  0.29968995  0.91650244  1
  Na  Na15  1  0.96674356  0.30133609  0.41029231  1
  Na  Na16  1  0.32902205  0.02788182  0.41921709  1
  Na  Na17  1  0.69885052  0.66719830  0.41512026  1
  Na  Na18  1  0.00455589  0.99502566  0.49864113  1
  Na  Na19  1  0.00482041  0.99357286  0.00286553  1
  Na  Na20  1  0.66245573  0.32073510  0.83077406  1
  Na  Na21  1  0.67385347  0.33364969  0.34055777  1
  Na  Na22  1  0.32510367  0.66328732  0.17160819  1
  Na  Na23  1  0.33744569  0.67553883  0.66271327  1
  Y  Y24  1  0.99920663  0.99964509  0.84094050  1
  Y  Y25  1  0.67035247  0.33200756  0.19099657  1
  Y  Y26  1  0.67046502  0.33702413  0.99062682  1
  Y  Y27  1  0.33050207  0.67115350  0.01745212  1
  Y  Y28  1  0.32918999  0.67147595  0.51468348  1
  Y  Y29  1  0.33826253  0.67557595  0.81038179  1
  Al  Al30  1  0.99673887  0.99450972  0.35093037  1
  Al  Al31  1  0.00604978  0.99963639  0.64628480  1
  Al  Al32  1  0.00237036  0.00343857  0.15454407  1
  Al  Al33  1  0.66476423  0.32696452  0.68053238  1
  Al  Al34  1  0.67069283  0.33899468  0.48499745  1
  Al  Al35  1  0.31548167  0.65208548  0.31813811  1
  Si  Si36  1  0.01371594  0.28772066  0.25538275  1
  Si  Si37  1  0.71150041  0.01434289  0.74038042  1
  Si  Si38  1  0.37730316  0.05640936  0.58309231  1
  Si  Si39  1  0.97581875  0.65662547  0.08947486  1
  Si  Si40  1  0.33450325  0.98116644  0.91538658  1
  Si  Si41  1  0.02574746  0.66618633  0.41497279  1
  P  P42  1  0.27442563  0.98559635  0.25478660  1
  P  P43  1  0.70850652  0.72355549  0.25402756  1
  P  P44  1  0.30580276  0.29431402  0.74073347  1
  P  P45  1  0.98651189  0.69346305  0.74038042  1
  P  P46  1  0.94400855  0.32416262  0.58306858  1
  P  P47  1  0.67619616  0.61852952  0.58426387  1
  P  P48  1  0.68125694  0.02642748  0.08873270  1
  P  P49  1  0.34840934  0.32093426  0.08938152  1
  P  P50  1  0.63901505  0.66442467  0.91544295  1
  P  P51  1  0.02772338  0.36005040  0.91514151  1
  P  P52  1  0.63247443  0.96265684  0.41246900  1
  P  P53  1  0.33088465  0.36507503  0.41361477  1
  O  O54  1  0.18417203  0.00424462  0.31036066  1
  O  O55  1  0.82000553  0.80870016  0.30927393  1
  O  O56  1  0.99115295  0.16786471  0.31291484  1
  O  O57  1  0.24177543  0.19988620  0.80151215  1
  O  O58  1  0.95836747  0.75859555  0.80115947  1
  O  O59  1  0.80439610  0.04559460  0.80585863  1
  O  O60  1  0.82566712  0.98720088  0.68836759  1
  O  O61  1  0.18144859  0.18936563  0.68979192  1
  O  O62  1  0.01704803  0.82224857  0.68945737  1
  O  O63  1  0.79632670  0.82815644  0.19635510  1
  O  O64  1  0.03435761  0.19878811  0.19422188  1
  O  O65  1  0.17246952  0.96812082  0.19681881  1
  O  O66  1  0.85973465  0.35126800  0.63884214  1
  O  O67  1  0.49526548  0.14860569  0.64163370  1
  O  O68  1  0.65665390  0.50912912  0.63966665  1
  O  O69  1  0.88034613  0.52333458  0.14442990  1
  O  O70  1  0.64023913  0.10951808  0.14173975  1
  O  O71  1  0.46603027  0.34817606  0.14283029  1
  O  O72  1  0.42717441  0.29516631  0.03090824  1
  O  O73  1  0.86644727  0.58179353  0.02735642  1
  O  O74  1  0.70625685  0.13068206  0.03056157  1
  O  O75  1  0.47113617  0.17214330  0.52230277  1
  O  O76  1  0.69697501  0.53395564  0.52621178  1
  O  O77  1  0.83712402  0.30539225  0.52567855  1
  O  O78  1  0.55227721  0.67635493  0.97336284  1
  O  O79  1  0.13164339  0.44497327  0.97215003  1
  O  O80  1  0.31477411  0.87268464  0.97634889  1
  O  O81  1  0.56686963  0.85671765  0.47126998  1
  O  O82  1  0.29329100  0.43406237  0.47186097  1
  O  O83  1  0.14428328  0.72066586  0.47575866  1
  O  O84  1  0.12648823  0.62649578  0.36051245  1
  O  O85  1  0.50441959  0.86414051  0.36029643  1
  O  O86  1  0.35983526  0.49168621  0.36078308  1
  O  O87  1  0.11857604  0.46286540  0.85791405  1
  O  O88  1  0.35333205  0.88805921  0.85522171  1
  O  O89  1  0.53118261  0.64588691  0.85927115  1
  O  O90  1  0.99955956  0.83208017  0.40458292  1
  O  O91  1  0.81375890  0.98754182  0.40445382  1
  O  O92  1  0.17540381  0.18229639  0.40630627  1
  O  O93  1  0.00447214  0.18094349  0.91341586  1
  O  O94  1  0.16450465  0.99736344  0.91349585  1
  O  O95  1  0.81392021  0.82762225  0.91238696  1
  O  O96  1  0.96435367  0.16309414  0.58635725  1
  O  O97  1  0.18038618  0.02897445  0.58907190  1
  O  O98  1  0.83684618  0.80155573  0.58791306  1
  O  O99  1  0.98731087  0.84067931  0.09918917  1
  O  O100  1  0.84724907  0.02306717  0.09725943  1
  O  O101  1  0.17386464  0.15818674  0.09579775  1
  O  O102  1  0.68692328  0.18141462  0.73518233  1
  O  O103  1  0.48917070  0.32472907  0.73482709  1
  O  O104  1  0.82657678  0.51553823  0.73322684  1
  O  O105  1  0.68224670  0.53967777  0.25207511  1
  O  O106  1  0.84194002  0.30828692  0.25579368  1
  O  O107  1  0.45501050  0.14703891  0.25333522  1
  O  O108  1  0.66023321  0.50709377  0.91668224  1
  O  O109  1  0.85361423  0.35044688  0.91796657  1
  O  O110  1  0.50596178  0.16724596  0.91781190  1
  O  O111  1  0.64478492  0.13961103  0.41889823  1
  O  O112  1  0.49800891  0.35663753  0.41848216  1
  O  O113  1  0.83882445  0.48962668  0.42597835  1
  O  O114  1  0.32754642  0.47861678  0.08586571  1
  O  O115  1  0.16522160  0.67764790  0.08812653  1
  O  O116  1  0.53079483  0.84307941  0.08463750  1
  O  O117  1  0.35737838  0.86479984  0.58254868  1
  O  O118  1  0.51397225  0.63541707  0.58181736  1
  O  O119  1  0.12656341  0.48287453  0.58033489  1
  O  O120  1  0.29834133  0.82605683  0.25877901  1
  O  O121  1  0.52765436  0.70506540  0.25877932  1
  O  O122  1  0.18428254  0.48314622  0.25969281  1
  O  O123  1  0.31438927  0.46900301  0.74149309  1
  O  O124  1  0.14616711  0.67292159  0.74178208  1
  O  O125  1  0.52376498  0.83939496  0.73949204  1
