# generated using pymatgen
data_Na6Mg(BiO4)2
_symmetry_space_group_name_H-M   'P 1'
_cell_length_a   6.24807071
_cell_length_b   6.06138135
_cell_length_c   6.94813160
_cell_angle_alpha   91.76360308
_cell_angle_beta   91.88596754
_cell_angle_gamma   112.20393657
_symmetry_Int_Tables_number   1
_chemical_formula_structural   Na6Mg(BiO4)2
_chemical_formula_sum   'Na6 Mg1 Bi2 O8'
_cell_volume   243.22840619
_cell_formula_units_Z   1
loop_
 _symmetry_equiv_pos_site_id
 _symmetry_equiv_pos_as_xyz
  1  'x, y, z'
loop_
 _atom_site_type_symbol
 _atom_site_label
 _atom_site_symmetry_multiplicity
 _atom_site_fract_x
 _atom_site_fract_y
 _atom_site_fract_z
 _atom_site_occupancy
  Na  Na0  1  0.75740226  0.03370353  0.37839465  1
  Na  Na1  1  0.24554350  0.48601121  0.42427404  1
  Na  Na2  1  0.63151085  0.55390016  0.18962230  1
  Na  Na3  1  0.34953377  0.47616067  0.80786595  1
  Na  Na4  1  0.25955515  0.97641551  0.62126067  1
  Na  Na5  1  0.79133672  0.51788751  0.59677389  1
  Mg  Mg6  1  0.05321527  0.53735674  0.06521417  1
  Bi  Bi7  1  0.76143699  0.99705145  0.84373078  1
  Bi  Bi8  1  0.26536809  0.02238768  0.13765148  1
  O  O9  1  0.98749523  0.26198598  0.66456881  1
  O  O10  1  0.56182381  0.75743756  0.60729966  1
  O  O11  1  0.01727780  0.73337335  0.30261712  1
  O  O12  1  0.46719712  0.22273769  0.37705866  1
  O  O13  1  0.50718677  0.23204224  0.93656063  1
  O  O14  1  0.01651896  0.78791344  0.89087070  1
  O  O15  1  0.04279132  0.22562867  0.14277397  1
  O  O16  1  0.39939039  0.74050664  0.09679551  1
