# generated using pymatgen
data_Na7Ca3ZrP5SO24
_symmetry_space_group_name_H-M   'P 1'
_cell_length_a   9.39974176
_cell_length_b   9.41243191
_cell_length_c   22.72387999
_cell_angle_alpha   90.05069653
_cell_angle_beta   89.96839665
_cell_angle_gamma   120.10746512
_symmetry_Int_Tables_number   1
_chemical_formula_structural   Na7Ca3ZrP5SO24
_chemical_formula_sum   'Na21 Ca9 Zr3 P15 S3 O72'
_cell_volume   1739.23955012
_cell_formula_units_Z   3
loop_
 _symmetry_equiv_pos_site_id
 _symmetry_equiv_pos_as_xyz
  1  'x, y, z'
loop_
 _atom_site_type_symbol
 _atom_site_label
 _atom_site_symmetry_multiplicity
 _atom_site_fract_x
 _atom_site_fract_y
 _atom_site_fract_z
 _atom_site_occupancy
  Na  Na0  1  0.62062880  0.99725691  0.25072901  1
  Na  Na1  1  0.36620440  0.35253761  0.25351686  1
  Na  Na2  1  0.01382355  0.64843329  0.25024617  1
  Na  Na3  1  0.65463944  0.64438280  0.74805481  1
  Na  Na4  1  0.98864991  0.34945772  0.74787245  1
  Na  Na5  1  0.29648718  0.34539144  0.58624302  1
  Na  Na6  1  0.02522160  0.69231140  0.58891355  1
  Na  Na7  1  0.67509612  0.95642000  0.58571963  1
  Na  Na8  1  0.29517999  0.96031146  0.07798961  1
  Na  Na9  1  0.66202109  0.70095811  0.07272366  1
  Na  Na10  1  0.04237897  0.33920366  0.07377026  1
  Na  Na11  1  0.97937680  0.67785339  0.90609578  1
  Na  Na12  1  0.32088548  0.29600655  0.90599182  1
  Na  Na13  1  0.32563375  0.01402917  0.41101065  1
  Na  Na14  1  0.69339484  0.67895739  0.41942544  1
  Na  Na15  1  0.99256419  0.01638689  0.49571936  1
  Na  Na16  1  0.98270241  0.00005879  0.99290109  1
  Na  Na17  1  0.64844682  0.30192018  0.82497367  1
  Na  Na18  1  0.66637527  0.31985815  0.33639930  1
  Na  Na19  1  0.33220483  0.67755191  0.15987667  1
  Na  Na20  1  0.33336130  0.67039095  0.67167898  1
  Ca  Ca21  1  0.00587153  0.00962816  0.35142289  1
  Ca  Ca22  1  0.99689389  0.00046793  0.84744115  1
  Ca  Ca23  1  0.00020891  0.99885465  0.65718762  1
  Ca  Ca24  1  0.00603530  0.99977420  0.14606328  1
  Ca  Ca25  1  0.66309168  0.33187514  0.68567285  1
  Ca  Ca26  1  0.66263125  0.32928901  0.17940613  1
  Ca  Ca27  1  0.33838208  0.67291319  0.01200184  1
  Ca  Ca28  1  0.32677317  0.65808699  0.51172080  1
  Ca  Ca29  1  0.32806662  0.66316676  0.32537224  1
  Zr  Zr30  1  0.66636732  0.32813513  0.98132039  1
  Zr  Zr31  1  0.68057692  0.34065607  0.48209820  1
  Zr  Zr32  1  0.33655937  0.67587046  0.81955102  1
  P  P33  1  0.30650195  0.99658598  0.25017757  1
  P  P34  1  0.30788375  0.31895705  0.75301386  1
  P  P35  1  0.00639502  0.69098211  0.75138255  1
  P  P36  1  0.68868850  0.99221344  0.74791911  1
  P  P37  1  0.96625866  0.33150854  0.58629885  1
  P  P38  1  0.66816808  0.63407131  0.58337425  1
  P  P39  1  0.96347216  0.63031079  0.08342125  1
  P  P40  1  0.66818144  0.03472286  0.08507635  1
  P  P41  1  0.36886138  0.33480363  0.08303660  1
  P  P42  1  0.63386240  0.65752402  0.91972629  1
  P  P43  1  0.03093051  0.37027738  0.92012171  1
  P  P44  1  0.33586661  0.97243554  0.92131712  1
  P  P45  1  0.63879178  0.97740821  0.41835619  1
  P  P46  1  0.34408520  0.35649129  0.41841783  1
  P  P47  1  0.02061507  0.66738462  0.41652264  1
  S  S48  1  0.69376307  0.69660021  0.25048752  1
  S  S49  1  0.00218823  0.30708671  0.24738235  1
  S  S50  1  0.36852638  0.03745585  0.58014084  1
  O  O51  1  0.21670390  0.00785114  0.30527840  1
  O  O52  1  0.78893415  0.78335107  0.30354380  1
  O  O53  1  0.98440865  0.20148092  0.29793036  1
  O  O54  1  0.22272999  0.21755856  0.80802999  1
  O  O55  1  0.98515813  0.77845044  0.80488786  1
  O  O56  1  0.81038361  0.01539136  0.79662172  1
  O  O57  1  0.74657290  0.95448845  0.68898583  1
  O  O58  1  0.20607882  0.24349066  0.69635713  1
  O  O59  1  0.02741325  0.78408301  0.69335918  1
  O  O60  1  0.77595317  0.79308222  0.19675395  1
  O  O61  1  0.01257196  0.22956694  0.19184930  1
  O  O62  1  0.20833596  0.98491750  0.19377191  1
  O  O63  1  0.88784818  0.34238445  0.64372731  1
  O  O64  1  0.46804724  0.11950373  0.63212961  1
  O  O65  1  0.65228663  0.53822919  0.63967658  1
  O  O66  1  0.88792087  0.54197211  0.14149835  1
  O  O67  1  0.65615846  0.10622958  0.14413722  1
  O  O68  1  0.45680075  0.34847379  0.14127518  1
  O  O69  1  0.47783532  0.32839161  0.03056165  1
  O  O70  1  0.85093915  0.52138399  0.03029732  1
  O  O71  1  0.67186323  0.15179710  0.03390404  1
  O  O72  1  0.45701629  0.13393076  0.52587476  1
  O  O73  1  0.67163232  0.52759196  0.52919785  1
  O  O74  1  0.85040515  0.32570117  0.53403773  1
  O  O75  1  0.56420079  0.67713304  0.97757411  1
  O  O76  1  0.12200242  0.44417165  0.97761153  1
  O  O77  1  0.31364742  0.88385286  0.97950203  1
  O  O78  1  0.55054476  0.87137625  0.47237034  1
  O  O79  1  0.33083517  0.44326363  0.47328916  1
  O  O80  1  0.12868068  0.69023312  0.47012935  1
  O  O81  1  0.09217755  0.64416032  0.35897769  1
  O  O82  1  0.53357295  0.90494247  0.36206737  1
  O  O83  1  0.36948155  0.45800592  0.36178504  1
  O  O84  1  0.13018251  0.49250624  0.86829744  1
  O  O85  1  0.35110228  0.86774589  0.87038197  1
  O  O86  1  0.51517555  0.64092200  0.86763480  1
  O  O87  1  0.98893049  0.81337617  0.41486278  1
  O  O88  1  0.80889189  0.99271027  0.41431182  1
  O  O89  1  0.19915953  0.17882427  0.41640567  1
  O  O90  1  0.01488434  0.20158858  0.91187162  1
  O  O91  1  0.18686659  0.99645173  0.91237701  1
  O  O92  1  0.81196348  0.79706483  0.91215499  1
  O  O93  1  0.97897408  0.17411135  0.58124222  1
  O  O94  1  0.20625861  0.02912699  0.58148654  1
  O  O95  1  0.83137987  0.80107637  0.58006988  1
  O  O96  1  0.96785941  0.79707382  0.07832329  1
  O  O97  1  0.82902351  0.02801815  0.07862518  1
  O  O98  1  0.20012777  0.17383333  0.07800837  1
  O  O99  1  0.66769585  0.14345244  0.74690135  1
  O  O100  1  0.48658352  0.35449904  0.75029224  1
  O  O101  1  0.85556728  0.51421567  0.75068807  1
  O  O102  1  0.68105504  0.53166562  0.24965927  1
  O  O103  1  0.85718300  0.33206404  0.24838206  1
  O  O104  1  0.48166647  0.15428330  0.25114605  1
  O  O105  1  0.63470521  0.48871045  0.91963016  1
  O  O106  1  0.85878700  0.36213197  0.92057537  1
  O  O107  1  0.49615765  0.14656358  0.92059823  1
  O  O108  1  0.65582261  0.15291815  0.42510868  1
  O  O109  1  0.50616933  0.34226595  0.42256270  1
  O  O110  1  0.84335873  0.50863425  0.42328051  1
  O  O111  1  0.34743570  0.48665447  0.07832770  1
  O  O112  1  0.13827316  0.65411075  0.07945004  1
  O  O113  1  0.51550292  0.86140238  0.08016074  1
  O  O114  1  0.34406475  0.86860133  0.57756682  1
  O  O115  1  0.51705309  0.65819260  0.57916351  1
  O  O116  1  0.13789676  0.48802707  0.58094435  1
  O  O117  1  0.32370812  0.83951987  0.25111275  1
  O  O118  1  0.52491019  0.67439290  0.25222958  1
  O  O119  1  0.15604620  0.47066621  0.25149702  1
  O  O120  1  0.31841425  0.49340865  0.75921805  1
  O  O121  1  0.16371344  0.67180261  0.75909224  1
  O  O122  1  0.51656751  0.83239671  0.76074826  1
