# generated using pymatgen
data_Na4YScSi2SO12
_symmetry_space_group_name_H-M   'P 1'
_cell_length_a   9.36007651
_cell_length_b   9.35706650
_cell_length_c   22.87272862
_cell_angle_alpha   89.89422489
_cell_angle_beta   90.08443653
_cell_angle_gamma   119.83203272
_symmetry_Int_Tables_number   1
_chemical_formula_structural   Na4YScSi2SO12
_chemical_formula_sum   'Na24 Y6 Sc6 Si12 S6 O72'
_cell_volume   1737.79872372
_cell_formula_units_Z   6
loop_
 _symmetry_equiv_pos_site_id
 _symmetry_equiv_pos_as_xyz
  1  'x, y, z'
loop_
 _atom_site_type_symbol
 _atom_site_label
 _atom_site_symmetry_multiplicity
 _atom_site_fract_x
 _atom_site_fract_y
 _atom_site_fract_z
 _atom_site_occupancy
  Na  Na0  1  0.65174603  0.99919748  0.25718355  1
  Na  Na1  1  0.36312667  0.38085792  0.24216680  1
  Na  Na2  1  0.98953912  0.61778649  0.25597497  1
  Na  Na3  1  0.62077613  0.63003728  0.73576870  1
  Na  Na4  1  0.99575778  0.34369073  0.75430029  1
  Na  Na5  1  0.38629055  0.01837315  0.75220733  1
  Na  Na6  1  0.31987040  0.33046984  0.59108491  1
  Na  Na7  1  0.03471431  0.71847342  0.57453878  1
  Na  Na8  1  0.65869547  0.95079765  0.58814896  1
  Na  Na9  1  0.28415115  0.96926349  0.07380089  1
  Na  Na10  1  0.67006953  0.67792170  0.09271990  1
  Na  Na11  1  0.05095806  0.34407310  0.08995507  1
  Na  Na12  1  0.99118875  0.66549017  0.92439783  1
  Na  Na13  1  0.69806435  0.04901118  0.90461352  1
  Na  Na14  1  0.31798670  0.28190361  0.92207964  1
  Na  Na15  1  0.95066182  0.29986639  0.40647080  1
  Na  Na16  1  0.33162012  0.01353534  0.42155317  1
  Na  Na17  1  0.71529766  0.67898512  0.42028318  1
  Na  Na18  1  0.98957637  0.97183128  0.49965987  1
  Na  Na19  1  0.03158643  0.01366365  0.00038415  1
  Na  Na20  1  0.65559867  0.30241819  0.83185528  1
  Na  Na21  1  0.69193037  0.34275647  0.33420025  1
  Na  Na22  1  0.32066003  0.63739753  0.16982428  1
  Na  Na23  1  0.36163638  0.67821216  0.66575786  1
  Y  Y24  1  0.00913245  0.01393417  0.84628641  1
  Y  Y25  1  0.99758380  0.00200047  0.15536625  1
  Y  Y26  1  0.66594535  0.33499639  0.98547094  1
  Y  Y27  1  0.32039685  0.65704641  0.01836569  1
  Y  Y28  1  0.34273627  0.68067923  0.51584206  1
  Y  Y29  1  0.33117601  0.66690025  0.81442727  1
  Sc  Sc30  1  0.97765587  0.98774334  0.34906436  1
  Sc  Sc31  1  0.99943994  0.00311763  0.64793544  1
  Sc  Sc32  1  0.64931684  0.32207715  0.68185590  1
  Sc  Sc33  1  0.67871059  0.35469425  0.18623216  1
  Sc  Sc34  1  0.66281867  0.33490419  0.48309687  1
  Sc  Sc35  1  0.32986047  0.66996671  0.31906422  1
  Si  Si36  1  0.68892779  0.69515919  0.25113239  1
  Si  Si37  1  0.00107199  0.30498896  0.25209481  1
  Si  Si38  1  0.30358943  0.30087506  0.74552595  1
  Si  Si39  1  0.70222550  0.00481500  0.74606180  1
  Si  Si40  1  0.36629646  0.03935586  0.58258197  1
  Si  Si41  1  0.67120900  0.62777315  0.58415092  1
  Si  Si42  1  0.96810432  0.63792172  0.08469499  1
  Si  Si43  1  0.36918804  0.33260994  0.08645793  1
  Si  Si44  1  0.02555673  0.35938716  0.91519792  1
  Si  Si45  1  0.33326825  0.97048596  0.91656455  1
  Si  Si46  1  0.63562183  0.97241388  0.41512540  1
  Si  Si47  1  0.03019233  0.66812591  0.41608858  1
  S  S48  1  0.30126021  -0.00043573  0.25271088  1
  S  S49  1  0.99479039  0.70034405  0.74675407  1
  S  S50  1  0.95560809  0.32949895  0.58362199  1
  S  S51  1  0.66693581  0.03730255  0.08635419  1
  S  S52  1  0.63498346  0.66784554  0.91650417  1
  S  S53  1  0.33260749  0.36686163  0.41553085  1
  O  O54  1  0.21841508  0.02341403  0.30361851  1
  O  O55  1  0.81570095  0.79040834  0.30580125  1
  O  O56  1  0.97971226  0.18136206  0.30680315  1
  O  O57  1  0.22982442  0.19387128  0.80563498  1
  O  O58  1  0.97076385  0.77156350  0.80123155  1
  O  O59  1  0.80069264  0.02347654  0.80727811  1
  O  O60  1  0.80232264  0.98140621  0.69100254  1
  O  O61  1  0.18041679  0.19792511  0.69076772  1
  O  O62  1  0.01354566  0.80739786  0.69615843  1
  O  O63  1  0.76497859  0.80600304  0.19201165  1
  O  O64  1  0.03915778  0.23416609  0.19235286  1
  O  O65  1  0.20160342  0.97423996  0.19892453  1
  O  O66  1  0.87922500  0.35245771  0.63653569  1
  O  O67  1  0.48136064  0.12790644  0.64023675  1
  O  O68  1  0.65829617  0.51875692  0.64193258  1
  O  O69  1  0.86715058  0.51838207  0.14080808  1
  O  O70  1  0.64915042  0.12170921  0.13779753  1
  O  O71  1  0.48417062  0.34014810  0.14249146  1
  O  O72  1  0.44475768  0.30755268  0.02540505  1
  O  O73  1  0.86604811  0.55649074  0.02436051  1
  O  O74  1  0.68528676  0.13185098  0.03216186  1
  O  O75  1  0.46100636  0.15429781  0.52495595  1
  O  O76  1  0.69350581  0.53758479  0.52566816  1
  O  O77  1  0.85553679  0.31193593  0.53067072  1
  O  O78  1  0.55791460  0.68967943  0.96929706  1
  O  O79  1  0.14067498  0.44692379  0.97308880  1
  O  O80  1  0.32291509  0.86653463  0.97591012  1
  O  O81  1  0.56297332  0.85729522  0.47377565  1
  O  O82  1  0.30398533  0.43812411  0.46925463  1
  O  O83  1  0.13833983  0.69519387  0.47557871  1
  O  O84  1  0.12524400  0.63976664  0.36067061  1
  O  O85  1  0.51223713  0.87611284  0.35977974  1
  O  O86  1  0.35383621  0.47412160  0.36454152  1
  O  O87  1  0.11635927  0.46934401  0.85678453  1
  O  O88  1  0.35797987  0.88317962  0.85823407  1
  O  O89  1  0.53403708  0.64994137  0.86436373  1
  O  O90  1  0.01972700  0.83935985  0.40896487  1
  O  O91  1  0.82296260  0.99731187  0.40850963  1
  O  O92  1  0.18981143  0.19812540  0.40807320  1
  O  O93  1  0.00045837  0.17211723  0.91491680  1
  O  O94  1  0.15760026  0.97173877  0.91534487  1
  O  O95  1  0.80075683  0.81163209  0.91125736  1
  O  O96  1  0.96803909  0.17561193  0.58704652  1
  O  O97  1  0.18266055  0.02470677  0.58629665  1
  O  O98  1  0.83456779  0.81528033  0.58735095  1
  O  O99  1  0.98517401  0.82136933  0.08847265  1
  O  O100  1  0.81817841  0.02282287  0.08953873  1
  O  O101  1  0.18132410  0.17379066  0.08898081  1
  O  O102  1  0.69505720  0.17773713  0.74160123  1
  O  O103  1  0.49111027  0.32630735  0.74150319  1
  O  O104  1  0.85215417  0.53249125  0.74079554  1
  O  O105  1  0.67259732  0.51071685  0.24788792  1
  O  O106  1  0.82644547  0.31034992  0.24819593  1
  O  O107  1  0.46874445  0.14495455  0.24708447  1
  O  O108  1  0.64705414  0.51687843  0.91949789  1
  O  O109  1  0.84386918  0.34702772  0.91738153  1
  O  O110  1  0.49247857  0.15839085  0.91690418  1
  O  O111  1  0.64920151  0.15498200  0.42087918  1
  O  O112  1  0.48691923  0.35705632  0.42016608  1
  O  O113  1  0.84398136  0.50304099  0.41975454  1
  O  O114  1  0.36853576  0.50898114  0.08719232  1
  O  O115  1  0.15244646  0.65555809  0.08642497  1
  O  O116  1  0.52097430  0.87060299  0.08267161  1
  O  O117  1  0.34400269  0.85284157  0.58167295  1
  O  O118  1  0.49814390  0.63539246  0.58278585  1
  O  O119  1  0.12549949  0.47423013  0.57851973  1
  O  O120  1  0.31580116  0.84740059  0.25801604  1
  O  O121  1  0.50505215  0.67445756  0.25979191  1
  O  O122  1  0.16083858  0.49206979  0.25964755  1
  O  O123  1  0.31617418  0.48285295  0.74643535  1
  O  O124  1  0.14871736  0.68985938  0.74950284  1
  O  O125  1  0.51610181  0.84202603  0.74595446  1
