# generated using pymatgen
data_Na5HfZn3P3(SO8)3
_symmetry_space_group_name_H-M   'P 1'
_cell_length_a   8.93900261
_cell_length_b   8.95877071
_cell_length_c   22.45227376
_cell_angle_alpha   90.15849401
_cell_angle_beta   89.58291337
_cell_angle_gamma   119.88997765
_symmetry_Int_Tables_number   1
_chemical_formula_structural   Na5HfZn3P3(SO8)3
_chemical_formula_sum   'Na15 Hf3 Zn9 P9 S9 O72'
_cell_volume   1558.82420782
_cell_formula_units_Z   3
loop_
 _symmetry_equiv_pos_site_id
 _symmetry_equiv_pos_as_xyz
  1  'x, y, z'
loop_
 _atom_site_type_symbol
 _atom_site_label
 _atom_site_symmetry_multiplicity
 _atom_site_fract_x
 _atom_site_fract_y
 _atom_site_fract_z
 _atom_site_occupancy
  Na  Na0  1  0.00249613  0.63429821  0.25394198  1
  Na  Na1  1  0.29904542  0.34009667  0.58794081  1
  Na  Na2  1  0.02923890  0.69439308  0.58220463  1
  Na  Na3  1  0.67074694  0.96103188  0.58101777  1
  Na  Na4  1  0.66845902  0.70146963  0.08262696  1
  Na  Na5  1  0.03621530  0.34026533  0.08545105  1
  Na  Na6  1  0.97889951  0.68225131  0.91223673  1
  Na  Na7  1  0.32213562  0.29372905  0.90791549  1
  Na  Na8  1  0.70282650  0.67989277  0.41610363  1
  Na  Na9  1  0.99804553  0.00312417  0.49516588  1
  Na  Na10  1  -0.00001029  0.99448023  0.99562686  1
  Na  Na11  1  0.65820226  0.32137791  0.82135421  1
  Na  Na12  1  0.65698110  0.30787521  0.33060322  1
  Na  Na13  1  0.33566155  0.67739522  0.17124163  1
  Na  Na14  1  0.33189244  0.65393065  0.66454612  1
  Hf  Hf15  1  0.66931020  0.33357003  0.97971775  1
  Hf  Hf16  1  0.67958098  0.33381046  0.47985129  1
  Hf  Hf17  1  0.33552375  0.66317742  0.81336579  1
  Zn  Zn18  1  0.00034211  0.00363318  0.35234060  1
  Zn  Zn19  1  0.00225736  0.00936897  0.84639620  1
  Zn  Zn20  1  0.99803725  0.00998097  0.65532578  1
  Zn  Zn21  1  0.00565587  0.99158841  0.15637119  1
  Zn  Zn22  1  0.66488115  0.34533248  0.68419065  1
  Zn  Zn23  1  0.66767870  0.33136807  0.18483298  1
  Zn  Zn24  1  0.32467369  0.67240509  0.01011826  1
  Zn  Zn25  1  0.33257923  0.66732900  0.50883701  1
  Zn  Zn26  1  0.33585979  0.67724047  0.32376140  1
  P  P27  1  0.29930006  0.29188576  0.74976654  1
  P  P28  1  0.96214085  0.33459410  0.58670970  1
  P  P29  1  0.66523520  0.62847147  0.58381869  1
  P  P30  1  0.96455488  0.63038285  0.08583434  1
  P  P31  1  0.62909007  0.67293729  0.92014509  1
  P  P32  1  0.04184395  0.37006328  0.91893929  1
  P  P33  1  0.33166838  0.95935714  0.91696717  1
  P  P34  1  0.62869462  0.95947629  0.41662258  1
  P  P35  1  0.04194450  0.67269526  0.41569591  1
  S  S36  1  0.29723551  0.00286424  0.24999497  1
  S  S37  1  0.69896817  0.70190292  0.24926874  1
  S  S38  1  0.00163484  0.29419334  0.24851582  1
  S  S39  1  0.99898906  0.70485541  0.75050249  1
  S  S40  1  0.70533689  0.00277918  0.74978704  1
  S  S41  1  0.37459118  0.04030664  0.58461500  1
  S  S42  1  0.66434681  0.03851477  0.08551282  1
  S  S43  1  0.37164434  0.33139710  0.08488174  1
  S  S44  1  0.33123551  0.36942684  0.41695467  1
  O  O45  1  0.21379165  0.02613883  0.30315576  1
  O  O46  1  0.81083256  0.78449286  0.30177067  1
  O  O47  1  0.98033436  0.18632329  0.30033548  1
  O  O48  1  0.21646176  0.19122446  0.80768474  1
  O  O49  1  0.97831302  0.78572092  0.80537624  1
  O  O50  1  0.80852380  0.02048440  0.80277926  1
  O  O51  1  0.77385844  0.96886020  0.69408601  1
  O  O52  1  0.19146738  0.21733720  0.69282158  1
  O  O53  1  0.02563632  0.80766702  0.69593463  1
  O  O54  1  0.77749977  0.80437607  0.19325949  1
  O  O55  1  0.02079140  0.21637727  0.19147953  1
  O  O56  1  0.19068761  0.97251441  0.19525925  1
  O  O57  1  0.87445411  0.36398180  0.64006800  1
  O  O58  1  0.48169700  0.11848934  0.63709084  1
  O  O59  1  0.62942935  0.50982815  0.63677921  1
  O  O60  1  0.87763781  0.51527375  0.14055827  1
  O  O61  1  0.63994839  0.11941228  0.13792973  1
  O  O62  1  0.48153078  0.35521400  0.13586323  1
  O  O63  1  0.45542606  0.30942162  0.02887742  1
  O  O64  1  0.84495156  0.53541315  0.02925385  1
  O  O65  1  0.68696542  0.14953276  0.03120422  1
  O  O66  1  0.45995544  0.15168139  0.53068376  1
  O  O67  1  0.69099326  0.53964819  0.52643731  1
  O  O68  1  0.84401366  0.30585323  0.53045939  1
  O  O69  1  0.55064434  0.69289342  0.97837518  1
  O  O70  1  0.14640128  0.44379005  0.97629077  1
  O  O71  1  0.29790316  0.85085351  0.97281528  1
  O  O72  1  0.55467015  0.85283177  0.47469149  1
  O  O73  1  0.30676830  0.44292422  0.47302921  1
  O  O74  1  0.14144201  0.69174427  0.47332529  1
  O  O75  1  0.11329640  0.63556522  0.35862810  1
  O  O76  1  0.51847160  0.87972511  0.36178570  1
  O  O77  1  0.36768721  0.48248891  0.36484542  1
  O  O78  1  0.13003480  0.49589318  0.86568417  1
  O  O79  1  0.36136734  0.87207888  0.86225858  1
  O  O80  1  0.50563532  0.63660474  0.86667317  1
  O  O81  1  0.01020822  0.82699800  0.41096176  1
  O  O82  1  0.81056671  0.97866195  0.41075961  1
  O  O83  1  0.18106739  0.19640964  0.41023450  1
  O  O84  1  0.02097294  0.19208605  0.91030311  1
  O  O85  1  0.17301214  0.98354429  0.91049931  1
  O  O86  1  0.81318428  0.82021936  0.91058954  1
  O  O87  1  0.97753920  0.16883230  0.58735201  1
  O  O88  1  0.20036127  0.02414887  0.58761610  1
  O  O89  1  0.83411995  0.80650139  0.58766686  1
  O  O90  1  0.96819513  0.80530913  0.08779002  1
  O  O91  1  0.82798987  0.03029052  0.08695868  1
  O  O92  1  0.19568596  0.17885520  0.08772221  1
  O  O93  1  0.68429231  0.15444427  0.74495731  1
  O  O94  1  0.48099273  0.31434241  0.74556963  1
  O  O95  1  0.84879177  0.53016557  0.74687376  1
  O  O96  1  0.69104319  0.53033493  0.24427259  1
  O  O97  1  0.84494247  0.31632561  0.24586439  1
  O  O98  1  0.47065743  0.15776181  0.24343024  1
  O  O99  1  0.63920556  0.49918557  0.92391688  1
  O  O100  1  0.86223195  0.36283230  0.92369067  1
  O  O101  1  0.49489469  0.14436966  0.92346145  1
  O  O102  1  0.64445070  0.14173894  0.42370130  1
  O  O103  1  0.49453988  0.35666531  0.42333065  1
  O  O104  1  0.85219949  0.50729238  0.42194687  1
  O  O105  1  0.35832768  0.49043719  0.07938328  1
  O  O106  1  0.14100598  0.64052255  0.07844973  1
  O  O107  1  0.51606443  0.86234703  0.07897484  1
  O  O108  1  0.35441564  0.86582808  0.57772422  1
  O  O109  1  0.50487416  0.65148320  0.57755364  1
  O  O110  1  0.14280121  0.49648165  0.57829872  1
  O  O111  1  0.30921421  0.84164935  0.25395282  1
  O  O112  1  0.52523142  0.68135032  0.25505885  1
  O  O113  1  0.15613281  0.47095737  0.25257027  1
  O  O114  1  0.31477433  0.47714459  0.75705867  1
  O  O115  1  0.16142696  0.69051833  0.75625905  1
  O  O116  1  0.52802635  0.84215136  0.75674378  1
