# generated using pymatgen
data_Na7Si5Sn4PO24
_symmetry_space_group_name_H-M   'P 1'
_cell_length_a   9.06873387
_cell_length_b   9.07381498
_cell_length_c   22.81010090
_cell_angle_alpha   90.11619555
_cell_angle_beta   89.73268506
_cell_angle_gamma   120.01515978
_symmetry_Int_Tables_number   1
_chemical_formula_structural   Na7Si5Sn4PO24
_chemical_formula_sum   'Na21 Si15 Sn12 P3 O72'
_cell_volume   1625.26168887
_cell_formula_units_Z   3
loop_
 _symmetry_equiv_pos_site_id
 _symmetry_equiv_pos_as_xyz
  1  'x, y, z'
loop_
 _atom_site_type_symbol
 _atom_site_label
 _atom_site_symmetry_multiplicity
 _atom_site_fract_x
 _atom_site_fract_y
 _atom_site_fract_z
 _atom_site_occupancy
  Na  Na0  1  0.63498301  0.99977764  0.25075528  1
  Na  Na1  1  0.36569308  0.36543024  0.24898251  1
  Na  Na2  1  0.99998398  0.63402977  0.25024603  1
  Na  Na3  1  0.63483126  0.63425484  0.74927533  1
  Na  Na4  1  0.99939205  0.36561504  0.75012912  1
  Na  Na5  1  0.36638400  0.00044562  0.75026280  1
  Na  Na6  1  0.30058443  0.33262237  0.58389494  1
  Na  Na7  1  0.03258727  0.69958029  0.58331015  1
  Na  Na8  1  0.66744872  0.96792971  0.58325090  1
  Na  Na9  1  0.29734879  0.96736278  0.08289646  1
  Na  Na10  1  0.03523342  0.33576993  0.08369774  1
  Na  Na11  1  0.97005701  0.66754066  0.91688937  1
  Na  Na12  1  0.33125916  0.29799464  0.91719161  1
  Na  Na13  1  0.33253033  0.02989906  0.41667036  1
  Na  Na14  1  0.70197821  0.66831643  0.41711167  1
  Na  Na15  1  0.99780893  0.00184271  0.49960134  1
  Na  Na16  1  0.99551015  0.99761665  0.00002098  1
  Na  Na17  1  0.66728871  0.32754562  0.83365824  1
  Na  Na18  1  0.67269029  0.33290598  0.33393956  1
  Na  Na19  1  0.33581114  0.66489141  0.16624464  1
  Na  Na20  1  0.33337841  0.66696278  0.66669174  1
  Si  Si21  1  0.29134390  0.00055675  0.25021450  1
  Si  Si22  1  0.70871059  0.70929777  0.25022518  1
  Si  Si23  1  0.99981881  0.29010624  0.24957051  1
  Si  Si24  1  0.29216319  0.29200063  0.75013594  1
  Si  Si25  1  0.99942015  0.70912656  0.75033961  1
  Si  Si26  1  0.70872811  0.99983097  0.75030232  1
  Si  Si27  1  0.95935049  0.33295429  0.58365989  1
  Si  Si28  1  0.37601724  0.04346052  0.58291218  1
  Si  Si29  1  0.66609767  0.62396406  0.58283365  1
  Si  Si30  1  0.95498373  0.62610886  0.08268969  1
  Si  Si31  1  0.37764575  0.33742980  0.08305985  1
  Si  Si32  1  0.03825684  0.37140043  0.91674052  1
  Si  Si33  1  0.33703600  0.95962566  0.91711247  1
  Si  Si34  1  0.62794065  0.96146861  0.41662496  1
  Si  Si35  1  0.03978661  0.66372049  0.41654743  1
  Sn  Sn36  1  0.99641822  0.00000897  0.35158831  1
  Sn  Sn37  1  0.99962454  0.00298695  0.85180554  1
  Sn  Sn38  1  0.99965948  -0.00007303  0.64860529  1
  Sn  Sn39  1  0.99920843  0.99635537  0.14838687  1
  Sn  Sn40  1  0.66713424  0.33348970  0.68478665  1
  Sn  Sn41  1  0.66757370  0.33749568  0.18486766  1
  Sn  Sn42  1  0.66666749  0.32905559  0.98177794  1
  Sn  Sn43  1  0.67447486  0.33230631  0.48172991  1
  Sn  Sn44  1  0.33150452  0.66312336  0.01824554  1
  Sn  Sn45  1  0.33376519  0.66950640  0.51808853  1
  Sn  Sn46  1  0.33150665  0.66838833  0.31510981  1
  Sn  Sn47  1  0.33151121  0.66864998  0.81526400  1
  P  P48  1  0.66688678  0.04016984  0.08350377  1
  P  P49  1  0.62468123  0.66951896  0.91677888  1
  P  P50  1  0.33087096  0.37428237  0.41675428  1
  O  O51  1  0.21289078  0.04209870  0.30854423  1
  O  O52  1  0.82702568  0.78565843  0.30847915  1
  O  O53  1  0.95963745  0.16865132  0.30645114  1
  O  O54  1  0.21357266  0.17253450  0.80807524  1
  O  O55  1  0.95895336  0.78845029  0.80861789  1
  O  O56  1  0.83162699  0.04028237  0.80655203  1
  O  O57  1  0.78557763  0.95860291  0.69136328  1
  O  O58  1  0.17295654  0.21416173  0.69197731  1
  O  O59  1  0.04022594  0.82806711  0.69197161  1
  O  O60  1  0.78881518  0.83281749  0.19359871  1
  O  O61  1  0.03916492  0.21172858  0.19069938  1
  O  O62  1  0.17298196  0.95991534  0.19217034  1
  O  O63  1  0.88203028  0.37553460  0.64207153  1
  O  O64  1  0.49448825  0.12108650  0.64126496  1
  O  O65  1  0.62595817  0.50579525  0.64138178  1
  O  O66  1  0.87997216  0.50378655  0.14089824  1
  O  O67  1  0.62922898  0.11636289  0.13904191  1
  O  O68  1  0.48950822  0.36562270  0.14209216  1
  O  O69  1  0.45567940  0.29267359  0.02512982  1
  O  O70  1  0.84099927  0.54074520  0.02416809  1
  O  O71  1  0.70375298  0.15648290  0.02980105  1
  O  O72  1  0.45540326  0.16360328  0.52476257  1
  O  O73  1  0.70452232  0.54320843  0.52464071  1
  O  O74  1  0.83642142  0.29042454  0.52750514  1
  O  O75  1  0.54392417  0.70008331  0.97110977  1
  O  O76  1  0.16096848  0.45307157  0.97415865  1
  O  O77  1  0.29643692  0.83867900  0.97524634  1
  O  O78  1  0.54610111  0.83811852  0.47439471  1
  O  O79  1  0.30113934  0.45340362  0.47234755  1
  O  O80  1  0.16071957  0.70599651  0.47459014  1
  O  O81  1  0.12213384  0.63085929  0.35784302  1
  O  O82  1  0.50663316  0.87774824  0.35878322  1
  O  O83  1  0.36915203  0.48837807  0.36158831  1
  O  O84  1  0.12127022  0.49315453  0.85875280  1
  O  O85  1  0.36928183  0.87816258  0.85805193  1
  O  O86  1  0.51197745  0.63044264  0.86113801  1
  O  O87  1  0.02672515  0.83967440  0.41095102  1
  O  O88  1  0.81271272  0.97096486  0.41119995  1
  O  O89  1  0.17462765  0.19359024  0.41088779  1
  O  O90  1  0.02862154  0.18676466  0.91108474  1
  O  O91  1  0.16140356  0.97342109  0.91120385  1
  O  O92  1  0.80622623  0.82509008  0.91083170  1
  O  O93  1  0.97779297  0.16252812  0.58935962  1
  O  O94  1  0.18638605  0.02396957  0.58892914  1
  O  O95  1  0.83679772  0.81307780  0.58882713  1
  O  O96  1  0.98265796  0.81820426  0.08866166  1
  O  O97  1  0.83120044  0.02970768  0.08945168  1
  O  O98  1  0.18563704  0.16480693  0.08884829  1
  O  O99  1  0.68953401  0.17007327  0.74421700  1
  O  O100  1  0.48127077  0.31052407  0.74420515  1
  O  O101  1  0.82889242  0.51987225  0.74448518  1
  O  O102  1  0.68975328  0.51967897  0.24464285  1
  O  O103  1  0.82842319  0.30843126  0.24325011  1
  O  O104  1  0.48207012  0.16986806  0.24344489  1
  O  O105  1  0.64084400  0.50600133  0.92229790  1
  O  O106  1  0.85419793  0.36445117  0.92306091  1
  O  O107  1  0.50059324  0.15347516  0.92285875  1
  O  O108  1  0.63259367  0.14417702  0.42225121  1
  O  O109  1  0.49424646  0.35876676  0.42230782  1
  O  O110  1  0.84596041  0.50073388  0.42194083  1
  O  O111  1  0.35209720  0.50367076  0.07710473  1
  O  O112  1  0.14753841  0.64539439  0.07770291  1
  O  O113  1  0.50253303  0.86463389  0.07660456  1
  O  O114  1  0.35723638  0.85373192  0.57775104  1
  O  O115  1  0.49433058  0.64139895  0.57683376  1
  O  O116  1  0.14913652  0.50348293  0.57673345  1
  O  O117  1  0.31062269  0.83014749  0.25542262  1
  O  O118  1  0.51763642  0.68748290  0.25702938  1
  O  O119  1  0.17151428  0.47944050  0.25610279  1
  O  O120  1  0.31230732  0.48214790  0.75691671  1
  O  O121  1  0.17018459  0.69011229  0.75538209  1
  O  O122  1  0.51965951  0.82749251  0.75630466  1
