# generated using pymatgen
data_Na3Ta4Zn2(PO4)9
_symmetry_space_group_name_H-M   'P 1'
_cell_length_a   8.75393291
_cell_length_b   8.75393263
_cell_length_c   22.72909075
_cell_angle_alpha   90.00000000
_cell_angle_beta   90.00000000
_cell_angle_gamma   120.00000109
_symmetry_Int_Tables_number   1
_chemical_formula_structural   Na3Ta4Zn2(PO4)9
_chemical_formula_sum   'Na6 Ta8 Zn4 P18 O72'
_cell_volume   1508.40896032
_cell_formula_units_Z   2
loop_
 _symmetry_equiv_pos_site_id
 _symmetry_equiv_pos_as_xyz
  1  'x, y, z'
loop_
 _atom_site_type_symbol
 _atom_site_label
 _atom_site_symmetry_multiplicity
 _atom_site_fract_x
 _atom_site_fract_y
 _atom_site_fract_z
 _atom_site_occupancy
  Na  Na0  1  -0.00000000  -0.00000000  0.49344375  1
  Na  Na1  1  -0.00000000  -0.00000000  0.99344375  1
  Na  Na2  1  0.66666700  0.33333300  0.82302194  1
  Na  Na3  1  0.66666700  0.33333300  0.32302194  1
  Na  Na4  1  0.33333300  0.66666700  0.16729546  1
  Na  Na5  1  0.33333300  0.66666700  0.66729546  1
  Ta  Ta6  1  -0.00000000  -0.00000000  0.64891091  1
  Ta  Ta7  1  -0.00000000  -0.00000000  0.14891091  1
  Ta  Ta8  1  0.66666700  0.33333300  0.97869341  1
  Ta  Ta9  1  0.66666700  0.33333300  0.47869341  1
  Ta  Ta10  1  0.33333300  0.66666700  0.02013283  1
  Ta  Ta11  1  0.33333300  0.66666700  0.52013283  1
  Ta  Ta12  1  0.33333300  0.66666700  0.30952432  1
  Ta  Ta13  1  0.33333300  0.66666700  0.80952432  1
  Zn  Zn14  1  -0.00000000  -0.00000000  0.35210524  1
  Zn  Zn15  1  -0.00000000  -0.00000000  0.85210524  1
  Zn  Zn16  1  0.66666700  0.33333300  0.68556519  1
  Zn  Zn17  1  0.66666700  0.33333300  0.18556519  1
  P  P18  1  0.29262659  0.00644356  0.25266167  1
  P  P19  1  0.71381697  0.70737341  0.25266167  1
  P  P20  1  0.99355644  0.28618303  0.25266167  1
  P  P21  1  0.29262659  0.28618303  0.75266167  1
  P  P22  1  0.99355644  0.70737341  0.75266167  1
  P  P23  1  0.71381697  0.00644356  0.75266167  1
  P  P24  1  0.95381296  0.33199511  0.58453472  1
  P  P25  1  0.37818315  0.04618704  0.58453472  1
  P  P26  1  0.66800489  0.62181685  0.58453472  1
  P  P27  1  0.95381296  0.62181685  0.08453472  1
  P  P28  1  0.66800489  0.04618704  0.08453472  1
  P  P29  1  0.37818315  0.33199511  0.08453472  1
  P  P30  1  0.62369093  0.66886130  0.91628511  1
  P  P31  1  0.04516937  0.37630907  0.91628511  1
  P  P32  1  0.33113870  0.95483063  0.91628511  1
  P  P33  1  0.62369093  0.95483063  0.41628511  1
  P  P34  1  0.33113870  0.37630907  0.41628511  1
  P  P35  1  0.04516937  0.66886130  0.41628511  1
  O  O36  1  0.20803117  0.02699250  0.30707583  1
  O  O37  1  0.81896133  0.79196883  0.30707583  1
  O  O38  1  0.97300750  0.18103867  0.30707583  1
  O  O39  1  0.20803117  0.18103867  0.80707583  1
  O  O40  1  0.97300750  0.79196883  0.80707583  1
  O  O41  1  0.81896133  0.02699250  0.80707583  1
  O  O42  1  0.80122323  0.97132470  0.69549426  1
  O  O43  1  0.17010147  0.19877677  0.69549426  1
  O  O44  1  0.02867530  0.82989853  0.69549426  1
  O  O45  1  0.80122323  0.82989853  0.19549426  1
  O  O46  1  0.02867530  0.19877677  0.19549426  1
  O  O47  1  0.17010147  0.97132470  0.19549426  1
  O  O48  1  0.88409580  0.37175802  0.63853885  1
  O  O49  1  0.48766322  0.11590420  0.63853885  1
  O  O50  1  0.62824198  0.51233678  0.63853885  1
  O  O51  1  0.88409580  0.51233678  0.13853885  1
  O  O52  1  0.62824198  0.11590420  0.13853885  1
  O  O53  1  0.48766322  0.37175802  0.13853885  1
  O  O54  1  0.46699651  0.30497770  0.02814447  1
  O  O55  1  0.83798220  0.53300349  0.02814447  1
  O  O56  1  0.69502230  0.16201780  0.02814447  1
  O  O57  1  0.46699651  0.16201780  0.52814447  1
  O  O58  1  0.69502230  0.53300349  0.52814447  1
  O  O59  1  0.83798220  0.30497770  0.52814447  1
  O  O60  1  0.52424760  0.68304381  0.97133992  1
  O  O61  1  0.15879521  0.47575240  0.97133992  1
  O  O62  1  0.31695619  0.84120479  0.97133992  1
  O  O63  1  0.52424760  0.84120479  0.47133992  1
  O  O64  1  0.31695619  0.47575240  0.47133992  1
  O  O65  1  0.15879521  0.68304381  0.47133992  1
  O  O66  1  0.13305218  0.63630679  0.36188195  1
  O  O67  1  0.50325361  0.86694782  0.36188195  1
  O  O68  1  0.36369321  0.49674639  0.36188195  1
  O  O69  1  0.13305218  0.49674639  0.86188195  1
  O  O70  1  0.36369321  0.86694782  0.86188195  1
  O  O71  1  0.50325361  0.63630679  0.86188195  1
  O  O72  1  0.02573681  0.82886339  0.41424455  1
  O  O73  1  0.80312658  0.97426319  0.41424455  1
  O  O74  1  0.17113661  0.19687342  0.41424455  1
  O  O75  1  0.02573681  0.19687342  0.91424455  1
  O  O76  1  0.17113661  0.97426319  0.91424455  1
  O  O77  1  0.80312658  0.82886339  0.91424455  1
  O  O78  1  0.97534104  0.16583104  0.58940718  1
  O  O79  1  0.19049000  0.02465896  0.58940718  1
  O  O80  1  0.83416896  0.80951000  0.58940718  1
  O  O81  1  0.97534104  0.80951000  0.08940718  1
  O  O82  1  0.83416896  0.02465896  0.08940718  1
  O  O83  1  0.19049000  0.16583104  0.08940718  1
  O  O84  1  0.68191902  0.15771020  0.74296057  1
  O  O85  1  0.47579219  0.31808098  0.74296057  1
  O  O86  1  0.84228980  0.52420781  0.74296057  1
  O  O87  1  0.68191902  0.52420781  0.24296057  1
  O  O88  1  0.84228980  0.31808098  0.24296057  1
  O  O89  1  0.47579219  0.15771020  0.24296057  1
  O  O90  1  0.63238053  0.49497632  0.92529201  1
  O  O91  1  0.86259680  0.36761947  0.92529201  1
  O  O92  1  0.50502368  0.13740320  0.92529201  1
  O  O93  1  0.63238053  0.13740320  0.42529201  1
  O  O94  1  0.50502368  0.36761947  0.42529201  1
  O  O95  1  0.86259680  0.49497632  0.42529201  1
  O  O96  1  0.34940296  0.49276593  0.07199071  1
  O  O97  1  0.14336196  0.65059704  0.07199071  1
  O  O98  1  0.50723407  0.85663804  0.07199071  1
  O  O99  1  0.34940296  0.85663804  0.57199071  1
  O  O100  1  0.50723407  0.65059704  0.57199071  1
  O  O101  1  0.14336196  0.49276593  0.57199071  1
  O  O102  1  0.30025983  0.82698992  0.25725050  1
  O  O103  1  0.52672910  0.69974017  0.25725050  1
  O  O104  1  0.17301008  0.47327090  0.25725050  1
  O  O105  1  0.30025983  0.47327090  0.75725050  1
  O  O106  1  0.17301008  0.69974017  0.75725050  1
  O  O107  1  0.52672910  0.82698992  0.75725050  1
