# generated using pymatgen
data_Na3Ta2Zn4P3(SO6)6
_symmetry_space_group_name_H-M   'P 1'
_cell_length_a   8.74040335
_cell_length_b   8.74040307
_cell_length_c   22.58968065
_cell_angle_alpha   90.00000000
_cell_angle_beta   90.00000000
_cell_angle_gamma   120.00000102
_symmetry_Int_Tables_number   1
_chemical_formula_structural   Na3Ta2Zn4P3(SO6)6
_chemical_formula_sum   'Na6 Ta4 Zn8 P6 S12 O72'
_cell_volume   1494.52661771
_cell_formula_units_Z   2
loop_
 _symmetry_equiv_pos_site_id
 _symmetry_equiv_pos_as_xyz
  1  'x, y, z'
loop_
 _atom_site_type_symbol
 _atom_site_label
 _atom_site_symmetry_multiplicity
 _atom_site_fract_x
 _atom_site_fract_y
 _atom_site_fract_z
 _atom_site_occupancy
  Na  Na0  1  -0.00000000  0.00000000  0.49434228  1
  Na  Na1  1  -0.00000000  0.00000000  0.99434228  1
  Na  Na2  1  0.66666700  0.33333300  0.82647526  1
  Na  Na3  1  0.66666700  0.33333300  0.32647526  1
  Na  Na4  1  0.33333300  0.66666700  0.15818723  1
  Na  Na5  1  0.33333300  0.66666700  0.65818723  1
  Ta  Ta6  1  0.66666700  0.33333300  0.97753882  1
  Ta  Ta7  1  0.66666700  0.33333300  0.47753882  1
  Ta  Ta8  1  0.33333300  0.66666700  0.31774695  1
  Ta  Ta9  1  0.33333300  0.66666700  0.81774695  1
  Zn  Zn10  1  -0.00000000  0.00000000  0.35347938  1
  Zn  Zn11  1  -0.00000000  0.00000000  0.85347938  1
  Zn  Zn12  1  -0.00000000  0.00000000  0.64831989  1
  Zn  Zn13  1  -0.00000000  0.00000000  0.14831989  1
  Zn  Zn14  1  0.66666700  0.33333300  0.68320169  1
  Zn  Zn15  1  0.66666700  0.33333300  0.18320169  1
  Zn  Zn16  1  0.33333300  0.66666700  0.01364622  1
  Zn  Zn17  1  0.33333300  0.66666700  0.51364622  1
  P  P18  1  0.62850379  0.67226431  0.92016792  1
  P  P19  1  0.04375951  0.37149621  0.92016792  1
  P  P20  1  0.32773569  0.95624049  0.92016792  1
  P  P21  1  0.62850379  0.95624049  0.42016792  1
  P  P22  1  0.32773569  0.37149621  0.42016792  1
  P  P23  1  0.04375951  0.67226431  0.42016792  1
  S  S24  1  0.29425505  0.00028701  0.25007942  1
  S  S25  1  0.70603196  0.70574495  0.25007942  1
  S  S26  1  -0.00028701  0.29396804  0.25007942  1
  S  S27  1  0.29425505  0.29396804  0.75007942  1
  S  S28  1  -0.00028701  0.70574495  0.75007942  1
  S  S29  1  0.70603196  0.00028701  0.75007942  1
  S  S30  1  0.95966872  0.33246895  0.58450072  1
  S  S31  1  0.37280123  0.04033128  0.58450072  1
  S  S32  1  0.66753105  0.62719877  0.58450072  1
  S  S33  1  0.95966872  0.62719877  0.08450072  1
  S  S34  1  0.66753105  0.04033128  0.08450072  1
  S  S35  1  0.37280123  0.33246895  0.08450072  1
  O  O36  1  0.21203076  0.02209458  0.30295156  1
  O  O37  1  0.81006382  0.78796924  0.30295156  1
  O  O38  1  0.97790542  0.18993618  0.30295156  1
  O  O39  1  0.21203076  0.18993618  0.80295156  1
  O  O40  1  0.97790542  0.78796924  0.80295156  1
  O  O41  1  0.81006382  0.02209458  0.80295156  1
  O  O42  1  0.77573025  0.96584055  0.69556206  1
  O  O43  1  0.19011030  0.22426975  0.69556206  1
  O  O44  1  0.03415945  0.80988970  0.69556206  1
  O  O45  1  0.77573025  0.80988970  0.19556206  1
  O  O46  1  0.03415945  0.22426975  0.19556206  1
  O  O47  1  0.19011030  0.96584055  0.19556206  1
  O  O48  1  0.87514036  0.35098797  0.63787506  1
  O  O49  1  0.47584861  0.12485964  0.63787506  1
  O  O50  1  0.64901203  0.52415139  0.63787506  1
  O  O51  1  0.87514036  0.52415139  0.13787506  1
  O  O52  1  0.64901203  0.12485964  0.13787506  1
  O  O53  1  0.47584861  0.35098797  0.13787506  1
  O  O54  1  0.47387088  0.32032140  0.03014442  1
  O  O55  1  0.84645153  0.52612912  0.03014442  1
  O  O56  1  0.67967860  0.15354847  0.03014442  1
  O  O57  1  0.47387088  0.15354847  0.53014442  1
  O  O58  1  0.67967860  0.52612912  0.53014442  1
  O  O59  1  0.84645153  0.32032140  0.53014442  1
  O  O60  1  0.54824560  0.69729015  0.97504256  1
  O  O61  1  0.14904355  0.45175440  0.97504256  1
  O  O62  1  0.30270985  0.85095645  0.97504256  1
  O  O63  1  0.54824560  0.85095645  0.47504256  1
  O  O64  1  0.30270985  0.45175440  0.47504256  1
  O  O65  1  0.14904355  0.69729015  0.47504256  1
  O  O66  1  0.13411483  0.63718208  0.36399306  1
  O  O67  1  0.50306625  0.86588517  0.36399306  1
  O  O68  1  0.36281792  0.49693375  0.36399306  1
  O  O69  1  0.13411483  0.49693375  0.86399306  1
  O  O70  1  0.36281792  0.86588517  0.86399306  1
  O  O71  1  0.50306625  0.63718208  0.86399306  1
  O  O72  1  0.00732327  0.81989690  0.40828814  1
  O  O73  1  0.81257363  0.99267673  0.40828814  1
  O  O74  1  0.18010310  0.18742637  0.40828814  1
  O  O75  1  0.00732327  0.18742637  0.90828814  1
  O  O76  1  0.18010310  0.99267673  0.90828814  1
  O  O77  1  0.81257363  0.81989690  0.90828814  1
  O  O78  1  0.96427972  0.16598752  0.58365638  1
  O  O79  1  0.20170780  0.03572028  0.58365638  1
  O  O80  1  0.83401248  0.79829220  0.58365638  1
  O  O81  1  0.96427972  0.79829220  0.08365638  1
  O  O82  1  0.83401248  0.03572028  0.08365638  1
  O  O83  1  0.20170780  0.16598752  0.08365638  1
  O  O84  1  0.67381997  0.15069742  0.74508586  1
  O  O85  1  0.47687844  0.32618003  0.74508586  1
  O  O86  1  0.84930258  0.52312156  0.74508586  1
  O  O87  1  0.67381997  0.52312156  0.24508586  1
  O  O88  1  0.84930258  0.32618003  0.24508586  1
  O  O89  1  0.47687844  0.15069742  0.24508586  1
  O  O90  1  0.63230315  0.49188750  0.92473580  1
  O  O91  1  0.85958536  0.36769685  0.92473580  1
  O  O92  1  0.50811250  0.14041464  0.92473580  1
  O  O93  1  0.63230315  0.14041464  0.42473580  1
  O  O94  1  0.50811250  0.36769685  0.42473580  1
  O  O95  1  0.85958536  0.49188750  0.42473580  1
  O  O96  1  0.35520939  0.48973241  0.07858325  1
  O  O97  1  0.13452203  0.64479061  0.07858325  1
  O  O98  1  0.51026759  0.86547797  0.07858325  1
  O  O99  1  0.35520939  0.86547797  0.57858325  1
  O  O100  1  0.51026759  0.64479061  0.57858325  1
  O  O101  1  0.13452203  0.48973241  0.57858325  1
  O  O102  1  0.31284873  0.83419852  0.25835454  1
  O  O103  1  0.52134879  0.68715127  0.25835454  1
  O  O104  1  0.16580148  0.47865121  0.25835454  1
  O  O105  1  0.31284873  0.47865121  0.75835454  1
  O  O106  1  0.16580148  0.68715127  0.75835454  1
  O  O107  1  0.52134879  0.83419852  0.75835454  1
