# generated using pymatgen
data_Pb2OF2
_symmetry_space_group_name_H-M   'P 1'
_cell_length_a   5.73232765
_cell_length_b   8.20211954
_cell_length_c   8.20211954
_cell_angle_alpha   90.00000000
_cell_angle_beta   90.00000000
_cell_angle_gamma   90.00000000
_symmetry_Int_Tables_number   1
_chemical_formula_structural   Pb2OF2
_chemical_formula_sum   'Pb8 O4 F8'
_cell_volume   385.64099526
_cell_formula_units_Z   4
loop_
 _symmetry_equiv_pos_site_id
 _symmetry_equiv_pos_as_xyz
  1  'x, y, z'
loop_
 _atom_site_type_symbol
 _atom_site_label
 _atom_site_symmetry_multiplicity
 _atom_site_fract_x
 _atom_site_fract_y
 _atom_site_fract_z
 _atom_site_occupancy
  Pb  Pb0  1  0.44361598  0.97392744  0.75000000  1
  Pb  Pb1  1  0.44361598  0.52607256  0.75000000  1
  Pb  Pb2  1  0.94361598  0.75000000  0.52607256  1
  Pb  Pb3  1  0.94361598  0.75000000  0.97392744  1
  Pb  Pb4  1  0.05638402  0.25000000  0.47392744  1
  Pb  Pb5  1  0.55638402  0.02607256  0.25000000  1
  Pb  Pb6  1  0.55638402  0.47392744  0.25000000  1
  Pb  Pb7  1  0.05638402  0.25000000  0.02607256  1
  O  O8  1  0.16630656  0.75000000  0.75000000  1
  O  O9  1  0.66630656  0.75000000  0.75000000  1
  O  O10  1  0.83369344  0.25000000  0.25000000  1
  O  O11  1  0.33369344  0.25000000  0.25000000  1
  F  F12  1  0.75000000  0.46239502  0.53760498  1
  F  F13  1  0.25000000  0.96239502  0.46239502  1
  F  F14  1  0.25000000  0.53760498  0.03760498  1
  F  F15  1  0.75000000  0.03760498  0.96239502  1
  F  F16  1  0.25000000  0.96239502  0.03760498  1
  F  F17  1  0.75000000  0.46239502  0.96239502  1
  F  F18  1  0.75000000  0.03760498  0.53760498  1
  F  F19  1  0.25000000  0.53760498  0.46239502  1
