# generated using pymatgen
data_Na18Ca4Nb8Si15(SO24)3
_symmetry_space_group_name_H-M   'P 1'
_cell_length_a   9.19375887
_cell_length_b   9.22629122
_cell_length_c   22.75198712
_cell_angle_alpha   89.92340253
_cell_angle_beta   90.13894204
_cell_angle_gamma   119.92174703
_symmetry_Int_Tables_number   1
_chemical_formula_structural   Na18Ca4Nb8Si15(SO24)3
_chemical_formula_sum   'Na18 Ca4 Nb8 Si15 S3 O72'
_cell_volume   1672.67229883
_cell_formula_units_Z   1
loop_
 _symmetry_equiv_pos_site_id
 _symmetry_equiv_pos_as_xyz
  1  'x, y, z'
loop_
 _atom_site_type_symbol
 _atom_site_label
 _atom_site_symmetry_multiplicity
 _atom_site_fract_x
 _atom_site_fract_y
 _atom_site_fract_z
 _atom_site_occupancy
  Na  Na0  1  0.65479858  0.63402510  0.74462951  1
  Na  Na1  1  0.97490091  0.35871677  0.74405607  1
  Na  Na2  1  0.02258636  0.67797672  0.58712478  1
  Na  Na3  1  0.65496317  0.98120213  0.58755297  1
  Na  Na4  1  0.33163060  0.98014679  0.08801403  1
  Na  Na5  1  0.65976670  0.68148287  0.09029576  1
  Na  Na6  1  0.96235815  0.68189734  0.90877688  1
  Na  Na7  1  0.72069359  0.03756362  0.90918191  1
  Na  Na8  1  0.32272412  0.28897016  0.91587144  1
  Na  Na9  1  0.96362990  0.28505398  0.41385841  1
  Na  Na10  1  0.31755119  0.03647745  0.40863921  1
  Na  Na11  1  0.71293317  0.68063464  0.41399448  1
  Na  Na12  1  0.01320324  0.01388591  0.49592673  1
  Na  Na13  1  0.99622576  0.00887570  0.99417368  1
  Na  Na14  1  0.66947949  0.31992727  0.82324641  1
  Na  Na15  1  0.64707307  0.31775412  0.32214490  1
  Na  Na16  1  0.31620537  0.65101408  0.16914185  1
  Na  Na17  1  0.33555442  0.67019455  0.66752761  1
  Ca  Ca18  1  0.00202366  0.00024928  0.35156905  1
  Ca  Ca19  1  0.00079965  0.99941254  0.85347627  1
  Ca  Ca20  1  0.66072940  0.32622552  0.67891498  1
  Ca  Ca21  1  0.66313819  0.32675966  0.18224915  1
  Nb  Nb22  1  0.98870070  0.98261475  0.64585341  1
  Nb  Nb23  1  0.01458449  0.00218959  0.14492364  1
  Nb  Nb24  1  0.67267383  0.33451264  0.98154942  1
  Nb  Nb25  1  0.66098145  0.32939363  0.48221153  1
  Nb  Nb26  1  0.33170728  0.66429407  0.01961568  1
  Nb  Nb27  1  0.33149450  0.66166769  0.51928710  1
  Nb  Nb28  1  0.33088363  0.67592486  0.31506880  1
  Nb  Nb29  1  0.33653670  0.68317694  0.81423469  1
  Si  Si30  1  0.30019483  0.99415744  0.25534843  1
  Si  Si31  1  0.00495891  0.70251568  0.75380710  1
  Si  Si32  1  0.69864732  0.99480215  0.75353727  1
  Si  Si33  1  0.96588288  0.33038325  0.58444512  1
  Si  Si34  1  0.36492606  0.03231139  0.58189426  1
  Si  Si35  1  0.66033744  0.62779607  0.58567008  1
  Si  Si36  1  0.96613513  0.62772465  0.08506311  1
  Si  Si37  1  0.66927332  0.03612388  0.08296036  1
  Si  Si38  1  0.37474833  0.33771068  0.08236278  1
  Si  Si39  1  0.61607848  0.65539288  0.91728976  1
  Si  Si40  1  0.04200427  0.38728390  0.91578835  1
  Si  Si41  1  0.34748151  0.96800147  0.92030371  1
  Si  Si42  1  0.61624399  0.96226925  0.41860424  1
  Si  Si43  1  0.34467570  0.38626657  0.41512798  1
  Si  Si44  1  0.03498506  0.65485231  0.41829325  1
  S  S45  1  0.69606405  0.70746819  0.25041945  1
  S  S46  1  0.01274075  0.30091217  0.25082023  1
  S  S47  1  0.28909726  0.29913074  0.75050818  1
  O  O48  1  0.21386648  0.99595368  0.31569545  1
  O  O49  1  0.78208271  0.78845883  0.30576634  1
  O  O50  1  0.99845832  0.21725588  0.30759736  1
  O  O51  1  0.22127544  0.21669017  0.80718748  1
  O  O52  1  0.99058413  0.78378293  0.81327060  1
  O  O53  1  0.79682176  0.01550746  0.81353507  1
  O  O54  1  0.81041795  0.97321408  0.69578736  1
  O  O55  1  0.17914794  0.19843739  0.70005352  1
  O  O56  1  0.01952687  0.82595757  0.69446668  1
  O  O57  1  0.79096372  0.81480940  0.19757255  1
  O  O58  1  0.02198341  0.19646101  0.20066109  1
  O  O59  1  0.16873472  0.98067798  0.19692564  1
  O  O60  1  0.91409199  0.39243895  0.64171486  1
  O  O61  1  0.49506286  0.09011729  0.63401783  1
  O  O62  1  0.62825635  0.53904998  0.64707712  1
  O  O63  1  0.89903637  0.52371065  0.14259532  1
  O  O64  1  0.59336779  0.09395148  0.13375714  1
  O  O65  1  0.49900750  0.40384731  0.13611099  1
  O  O66  1  0.46454066  0.29615168  0.02479937  1
  O  O67  1  0.83554252  0.53407764  0.02684689  1
  O  O68  1  0.70113466  0.16460388  0.02433614  1
  O  O69  1  0.46303239  0.15904647  0.52357318  1
  O  O70  1  0.69115811  0.52496703  0.52986932  1
  O  O71  1  0.82988015  0.30009372  0.52851080  1
  O  O72  1  0.50655398  0.66164806  0.97255647  1
  O  O73  1  0.15592876  0.50114924  0.97068580  1
  O  O74  1  0.33964931  0.85268274  0.97525137  1
  O  O75  1  0.51368943  0.85024832  0.47512437  1
  O  O76  1  0.33988929  0.49731958  0.47059563  1
  O  O77  1  0.15411080  0.66807197  0.47346962  1
  O  O78  1  0.13738637  0.63363029  0.36035546  1
  O  O79  1  0.49350649  0.86021822  0.36045237  1
  O  O80  1  0.36716232  0.50591394  0.35733958  1
  O  O81  1  0.13790006  0.50152966  0.85620151  1
  O  O82  1  0.36359506  0.86410550  0.86086660  1
  O  O83  1  0.49829686  0.63500683  0.85799503  1
  O  O84  1  0.00870469  0.81393513  0.41954311  1
  O  O85  1  0.79960147  0.98246624  0.41753223  1
  O  O86  1  0.17923075  0.20552695  0.41824262  1
  O  O87  1  0.02721402  0.20694971  0.91953047  1
  O  O88  1  0.18616869  0.99051706  0.92106103  1
  O  O89  1  0.79913694  0.81888441  0.92116933  1
  O  O90  1  0.96654467  0.15217491  0.59083737  1
  O  O91  1  0.18009092  0.01918110  0.59098708  1
  O  O92  1  0.84175564  0.81364637  0.58771751  1
  O  O93  1  0.97395130  0.81703385  0.09218978  1
  O  O94  1  0.84005379  0.02064888  0.09480766  1
  O  O95  1  0.19168506  0.15859625  0.09245632  1
  O  O96  1  0.67785155  0.15482832  0.74522671  1
  O  O97  1  0.46239482  0.33300797  0.74509953  1
  O  O98  1  0.84216427  0.51930417  0.74760536  1
  O  O99  1  0.67724443  0.54130619  0.24691050  1
  O  O100  1  0.87083206  0.32776470  0.24408085  1
  O  O101  1  0.48451413  0.14872606  0.24920625  1
  O  O102  1  0.62474837  0.48058045  0.92268706  1
  O  O103  1  0.85753758  0.37773885  0.92108165  1
  O  O104  1  0.52510573  0.14745986  0.92077329  1
  O  O105  1  0.62438753  0.14524774  0.42166240  1
  O  O106  1  0.51939648  0.37743193  0.42245002  1
  O  O107  1  0.85461954  0.47771570  0.42337137  1
  O  O108  1  0.32768187  0.48452888  0.06862562  1
  O  O109  1  0.16349675  0.68390975  0.07230078  1
  O  O110  1  0.52111284  0.84025907  0.06922117  1
  O  O111  1  0.31947552  0.83672767  0.56989091  1
  O  O112  1  0.51657694  0.68005201  0.57267108  1
  O  O113  1  0.15448159  0.48584428  0.56839127  1
  O  O114  1  0.30029484  0.80907357  0.25379317  1
  O  O115  1  0.52648131  0.69874595  0.24949417  1
  O  O116  1  0.17702996  0.46521887  0.24963696  1
  O  O117  1  0.28796493  0.46359360  0.74849326  1
  O  O118  1  0.18130325  0.68936198  0.75306697  1
  O  O119  1  0.51988169  0.80723577  0.75354318  1
