# generated using pymatgen
data_MgCu3AsS4
_symmetry_space_group_name_H-M   'P 1'
_cell_length_a   5.54942150
_cell_length_b   5.54942150
_cell_length_c   5.54942150
_cell_angle_alpha   87.86901541
_cell_angle_beta   87.86901541
_cell_angle_gamma   92.13098459
_symmetry_Int_Tables_number   1
_chemical_formula_structural   MgCu3AsS4
_chemical_formula_sum   'Mg1 Cu3 As1 S4'
_cell_volume   170.53680443
_cell_formula_units_Z   1
loop_
 _symmetry_equiv_pos_site_id
 _symmetry_equiv_pos_as_xyz
  1  'x, y, z'
loop_
 _atom_site_type_symbol
 _atom_site_label
 _atom_site_symmetry_multiplicity
 _atom_site_fract_x
 _atom_site_fract_y
 _atom_site_fract_z
 _atom_site_occupancy
  Mg  Mg0  1  0.26981300  0.26981300  0.73018700  1
  Cu  Cu1  1  0.98903300  0.51838800  0.48161200  1
  Cu  Cu2  1  0.51838800  0.51838800  0.01096700  1
  Cu  Cu3  1  0.51838800  0.98903300  0.48161200  1
  As  As4  1  0.97553000  0.97553000  0.02447000  1
  S  S5  1  0.25862900  0.73074800  0.74137100  1
  S  S6  1  0.73084200  0.73084200  0.26915800  1
  S  S7  1  0.73074800  0.25862900  0.74137100  1
  S  S8  1  0.25862900  0.25862900  0.26925200  1
