# generated using pymatgen
data_NaCa2Hf2PS5O24
_symmetry_space_group_name_H-M   'P 1'
_cell_length_a   9.04616033
_cell_length_b   9.05728782
_cell_length_c   23.55394779
_cell_angle_alpha   89.96609394
_cell_angle_beta   90.02445025
_cell_angle_gamma   120.00621917
_symmetry_Int_Tables_number   1
_chemical_formula_structural   NaCa2Hf2PS5O24
_chemical_formula_sum   'Na3 Ca6 Hf6 P3 S15 O72'
_cell_volume   1671.20408374
_cell_formula_units_Z   3
loop_
 _symmetry_equiv_pos_site_id
 _symmetry_equiv_pos_as_xyz
  1  'x, y, z'
loop_
 _atom_site_type_symbol
 _atom_site_label
 _atom_site_symmetry_multiplicity
 _atom_site_fract_x
 _atom_site_fract_y
 _atom_site_fract_z
 _atom_site_occupancy
  Na  Na0  1  0.67263461  0.33236474  0.82713630  1
  Na  Na1  1  0.65533772  0.33536381  0.33275522  1
  Na  Na2  1  0.34045994  0.67244943  0.16146278  1
  Ca  Ca3  1  0.00022668  0.00365586  0.85761182  1
  Ca  Ca4  1  0.66700167  0.33258616  0.68306388  1
  Ca  Ca5  1  0.66257065  0.33394969  0.19201924  1
  Ca  Ca6  1  0.66565283  0.33375884  0.48635886  1
  Ca  Ca7  1  0.33108995  0.66277552  0.01824540  1
  Ca  Ca8  1  0.33430543  0.66697847  0.52263905  1
  Hf  Hf9  1  0.00096305  0.99338532  0.35384555  1
  Hf  Hf10  1  0.99892944  0.00003067  0.64874048  1
  Hf  Hf11  1  0.99894934  0.99112523  0.14584423  1
  Hf  Hf12  1  0.67295757  0.33368584  0.97843767  1
  Hf  Hf13  1  0.33924861  0.67396178  0.31055249  1
  Hf  Hf14  1  0.32464569  0.66019420  0.81330917  1
  P  P15  1  0.28023026  0.99058209  0.25102459  1
  P  P16  1  0.71085508  0.71960124  0.25117155  1
  P  P17  1  0.03613581  0.38385945  0.91670189  1
  S  S18  1  0.01125671  0.28888783  0.25121288  1
  S  S19  1  0.29090003  0.29720060  0.75219600  1
  S  S20  1  0.00680069  0.71085589  0.75271573  1
  S  S21  1  0.70047082  0.99005836  0.75244241  1
  S  S22  1  0.96320843  0.32312676  0.58516847  1
  S  S23  1  0.35888044  0.03612959  0.58538984  1
  S  S24  1  0.67716283  0.64013713  0.58534717  1
  S  S25  1  0.95310918  0.62614262  0.08524515  1
  S  S26  1  0.67615500  0.04810627  0.08558870  1
  S  S27  1  0.37089271  0.32485709  0.08524202  1
  S  S28  1  0.61552207  0.64925139  0.91625992  1
  S  S29  1  0.35024603  0.96519441  0.91614566  1
  S  S30  1  0.62795968  0.96154676  0.41167244  1
  S  S31  1  0.33169545  0.37485152  0.41088263  1
  S  S32  1  0.04122338  0.66427260  0.41164052  1
  O  O33  1  0.18370738  0.00485758  0.30326306  1
  O  O34  1  0.81870425  0.81973798  0.30340903  1
  O  O35  1  0.99721844  0.18703349  0.30226198  1
  O  O36  1  0.21574073  0.19291490  0.80231334  1
  O  O37  1  0.98065488  0.78699180  0.80309515  1
  O  O38  1  0.80507886  0.01760665  0.80244509  1
  O  O39  1  0.78551054  0.96771952  0.70070935  1
  O  O40  1  0.18244120  0.21303176  0.70090335  1
  O  O41  1  0.02863917  0.81783101  0.70129633  1
  O  O42  1  0.79834439  0.82761354  0.19658129  1
  O  O43  1  0.03140957  0.20734257  0.19884558  1
  O  O44  1  0.17268794  0.97232251  0.19644715  1
  O  O45  1  0.88473277  0.35284515  0.63467205  1
  O  O46  1  0.46824278  0.11462570  0.63466290  1
  O  O47  1  0.64735964  0.53154322  0.63471223  1
  O  O48  1  0.87609604  0.52327557  0.13552011  1
  O  O49  1  0.64990187  0.12572948  0.13576547  1
  O  O50  1  0.47426567  0.35037858  0.13566802  1
  O  O51  1  0.45577574  0.30353834  0.03339207  1
  O  O52  1  0.84624955  0.54088756  0.03333451  1
  O  O53  1  0.69632679  0.15493412  0.03330816  1
  O  O54  1  0.42524312  0.14175762  0.53387342  1
  O  O55  1  0.71548724  0.57319506  0.53379602  1
  O  O56  1  0.85756202  0.28541210  0.53371160  1
  O  O57  1  0.54593165  0.67760197  0.96775536  1
  O  O58  1  0.13444173  0.46117332  0.97015052  1
  O  O59  1  0.32903207  0.87066275  0.96792105  1
  O  O60  1  0.55902793  0.86412703  0.46317630  1
  O  O61  1  0.30558179  0.44287382  0.46304735  1
  O  O62  1  0.13637593  0.69133682  0.46359914  1
  O  O63  1  0.13924315  0.65218347  0.36125879  1
  O  O64  1  0.51382845  0.86330449  0.36115395  1
  O  O65  1  0.34785868  0.48848047  0.36072514  1
  O  O66  1  0.12834223  0.50636058  0.86377651  1
  O  O67  1  0.38025622  0.88077432  0.86550935  1
  O  O68  1  0.50216682  0.62245382  0.86559067  1
  O  O69  1  0.02296663  0.81974386  0.40238433  1
  O  O70  1  0.80025914  0.98105536  0.40108836  1
  O  O71  1  0.17647515  0.20337398  0.40040445  1
  O  O72  1  -0.00129741  0.20594532  0.90585535  1
  O  O73  1  0.20803100  0.99259611  0.90670278  1
  O  O74  1  0.78803504  0.78564709  0.90635856  1
  O  O75  1  0.97639481  0.16454614  0.59807964  1
  O  O76  1  0.18709296  0.02259100  0.59865220  1
  O  O77  1  0.83529607  0.81216029  0.59821501  1
  O  O78  1  0.95796426  0.79582938  0.09118734  1
  O  O79  1  0.83926743  0.04207922  0.09213994  1
  O  O80  1  0.19989738  0.16314251  0.09231639  1
  O  O81  1  0.66981784  0.13416340  0.74573621  1
  O  O82  1  0.46614835  0.33062860  0.74523467  1
  O  O83  1  0.86447243  0.53572929  0.74609284  1
  O  O84  1  0.69473439  0.54543975  0.25140397  1
  O  O85  1  0.86114759  0.30862118  0.24914681  1
  O  O86  1  0.45754799  0.14431379  0.25097462  1
  O  O87  1  0.61916396  0.48223684  0.92295189  1
  O  O88  1  0.85420798  0.37653152  0.92379469  1
  O  O89  1  0.51355907  0.13993573  0.92186737  1
  O  O90  1  0.64193667  0.12976440  0.41135850  1
  O  O91  1  0.48488026  0.35778686  0.41075075  1
  O  O92  1  0.87113939  0.51209976  0.41108234  1
  O  O93  1  0.34122855  0.46970035  0.08000066  1
  O  O94  1  0.12878378  0.66122629  0.07943303  1
  O  O95  1  0.53234107  0.87375635  0.07919675  1
  O  O96  1  0.32730497  0.86352900  0.57679420  1
  O  O97  1  0.53529186  0.67072050  0.57683558  1
  O  O98  1  0.13583569  0.46450462  0.57665754  1
  O  O99  1  0.28974317  0.82190130  0.25579440  1
  O  O100  1  0.52934013  0.70381981  0.25566033  1
  O  O101  1  0.17019340  0.46189251  0.25537418  1
  O  O102  1  0.29727543  0.46740375  0.75931214  1
  O  O103  1  0.17193118  0.70575049  0.75906243  1
  O  O104  1  0.53111441  0.82778084  0.75971167  1
