# generated using pymatgen
data_Na6Y2Nb6Si9(SO16)3
_symmetry_space_group_name_H-M   'P 1'
_cell_length_a   18.07804504
_cell_length_b   9.08821251
_cell_length_c   23.11738990
_cell_angle_alpha   90.08719877
_cell_angle_beta   89.64411470
_cell_angle_gamma   120.11724361
_symmetry_Int_Tables_number   1
_chemical_formula_structural   Na6Y2Nb6Si9(SO16)3
_chemical_formula_sum   'Na18 Y6 Nb18 Si27 S9 O144'
_cell_volume   3285.30694650
_cell_formula_units_Z   3
loop_
 _symmetry_equiv_pos_site_id
 _symmetry_equiv_pos_as_xyz
  1  'x, y, z'
loop_
 _atom_site_type_symbol
 _atom_site_label
 _atom_site_symmetry_multiplicity
 _atom_site_fract_x
 _atom_site_fract_y
 _atom_site_fract_z
 _atom_site_occupancy
  Na  Na0  1  0.32333128  0.01697433  0.25506596  1
  Na  Na1  1  0.68629685  0.37409806  0.24537451  1
  Na  Na2  1  0.49133189  0.61956563  0.24960118  1
  Na  Na3  1  0.82277632  0.63082187  0.75335071  1
  Na  Na4  1  0.99188959  0.36215820  0.74741289  1
  Na  Na5  1  0.18699474  0.00319151  0.74214372  1
  Na  Na6  1  0.00327189  0.01039282  0.50008294  1
  Na  Na7  1  0.50716430  0.99795545  0.49817401  1
  Na  Na8  1  0.00697924  0.01778980  0.99671878  1
  Na  Na9  1  0.50358306  0.99609612  0.99868904  1
  Na  Na10  1  0.34172221  0.33020917  0.83355128  1
  Na  Na11  1  0.82926246  0.32189803  0.82580669  1
  Na  Na12  1  0.32833867  0.34013158  0.33239694  1
  Na  Na13  1  0.84142906  0.35294531  0.33780265  1
  Na  Na14  1  0.16666932  0.65122082  0.16663843  1
  Na  Na15  1  0.67295569  0.67239819  0.16463794  1
  Na  Na16  1  0.17474634  0.67334680  0.66226883  1
  Na  Na17  1  0.65781952  0.67019843  0.66027756  1
  Y  Y18  1  0.50004015  0.00075714  0.35960340  1
  Y  Y19  1  0.99993380  0.00007636  0.85912695  1
  Y  Y20  1  0.33889686  0.33514512  0.68041508  1
  Y  Y21  1  0.82622025  0.31725989  0.68338834  1
  Y  Y22  1  0.32576116  0.33563764  0.18390228  1
  Y  Y23  1  0.83564806  0.33886818  0.18202681  1
  Nb  Nb24  1  0.00214122  0.98692095  0.36022549  1
  Nb  Nb25  1  0.50206323  0.01773111  0.85845856  1
  Nb  Nb26  1  0.99672668  0.98958667  0.64343721  1
  Nb  Nb27  1  0.49831470  0.01779518  0.63907316  1
  Nb  Nb28  1  0.99971398  0.99423113  0.14483398  1
  Nb  Nb29  1  0.49703816  0.00332015  0.14382819  1
  Nb  Nb30  1  0.33109449  0.34987769  0.97624822  1
  Nb  Nb31  1  0.82613945  0.30495686  0.97832083  1
  Nb  Nb32  1  0.33346517  0.34667371  0.48347713  1
  Nb  Nb33  1  0.83084308  0.31071114  0.47674027  1
  Nb  Nb34  1  0.16978237  0.65979740  0.01368429  1
  Nb  Nb35  1  0.65919034  0.66265671  0.02272766  1
  Nb  Nb36  1  0.15935205  0.65343413  0.52276175  1
  Nb  Nb37  1  0.66344776  0.67016014  0.51570691  1
  Nb  Nb38  1  0.16397666  0.65903072  0.31338352  1
  Nb  Nb39  1  0.66897716  0.65582564  0.31828489  1
  Nb  Nb40  1  0.16877359  0.68228121  0.81679050  1
  Nb  Nb41  1  0.66092929  0.66580167  0.81023247  1
  Si  Si42  1  0.14019226  0.98881592  0.25180782  1
  Si  Si43  1  0.35285924  0.71108646  0.25126142  1
  Si  Si44  1  0.85629384  0.71674247  0.25293880  1
  Si  Si45  1  0.50314933  0.29716698  0.24987470  1
  Si  Si46  1  0.63999870  0.28788333  0.75051654  1
  Si  Si47  1  0.00284574  0.71018417  0.75020888  1
  Si  Si48  1  0.35693691  0.99734184  0.75191052  1
  Si  Si49  1  0.85299668  0.99511343  0.75156436  1
  Si  Si50  1  0.48352327  0.34357856  0.57997834  1
  Si  Si51  1  0.97623884  0.32490951  0.58531385  1
  Si  Si52  1  0.18600309  0.03680539  0.58370690  1
  Si  Si53  1  0.68399458  0.03363148  0.58195867  1
  Si  Si54  1  0.33294717  0.63147648  0.58472548  1
  Si  Si55  1  0.47603374  0.62727987  0.08512932  1
  Si  Si56  1  0.83357869  0.03345194  0.08338067  1
  Si  Si57  1  0.18324345  0.33501041  0.08173927  1
  Si  Si58  1  0.68595936  0.33458352  0.08372848  1
  Si  Si59  1  0.31309799  0.67003570  0.91329606  1
  Si  Si60  1  0.01805860  0.38119518  0.91620664  1
  Si  Si61  1  0.52202109  0.38463602  0.91807704  1
  Si  Si62  1  0.17022620  0.96321924  0.92243819  1
  Si  Si63  1  0.66355230  0.94588258  0.91527990  1
  Si  Si64  1  0.81137442  0.95099020  0.41594713  1
  Si  Si65  1  0.16835450  0.37868677  0.41623906  1
  Si  Si66  1  0.67160577  0.37763030  0.42196154  1
  Si  Si67  1  0.02158665  0.65820075  0.41849951  1
  Si  Si68  1  0.51634624  0.65397524  0.41573792  1
  S  S69  1  0.64434079  0.99462896  0.24824487  1
  S  S70  1  0.00284609  0.28378708  0.25207073  1
  S  S71  1  0.14473243  0.29538214  0.74888180  1
  S  S72  1  0.50115474  0.72071681  0.75322114  1
  S  S73  1  0.83263523  0.63014157  0.58176390  1
  S  S74  1  0.98464482  0.63389985  0.07997710  1
  S  S75  1  0.33174361  0.03399725  0.08180638  1
  S  S76  1  0.80460599  0.65402855  0.91845086  1
  S  S77  1  0.30374183  0.95308598  0.41781160  1
  O  O78  1  0.09068661  0.01289928  0.30739562  1
  O  O79  1  0.60748876  0.02143824  0.30081805  1
  O  O80  1  0.41250448  0.79876228  0.30525284  1
  O  O81  1  0.91563846  0.82435657  0.30784463  1
  O  O82  1  0.49205587  0.18246959  0.30447770  1
  O  O83  1  0.99434085  0.18530965  0.30386774  1
  O  O84  1  0.10677265  0.19468063  0.80156946  1
  O  O85  1  0.59157188  0.16917236  0.80782494  1
  O  O86  1  0.49600842  0.80568538  0.80587463  1
  O  O87  1  0.99186935  0.80073948  0.80575343  1
  O  O88  1  0.41558918  0.00668299  0.80803088  1
  O  O89  1  0.91153863  0.02644843  0.80652162  1
  O  O90  1  0.40412048  0.97879093  0.69341739  1
  O  O91  1  0.90379776  0.96654766  0.69395348  1
  O  O92  1  0.09091346  0.20834874  0.69679766  1
  O  O93  1  0.58250353  0.19080079  0.69331259  1
  O  O94  1  0.01698726  0.83724544  0.69247846  1
  O  O95  1  0.51343421  0.81563284  0.69970442  1
  O  O96  1  0.40434180  0.84105517  0.19309298  1
  O  O97  1  0.90515217  0.83211956  0.19363626  1
  O  O98  1  0.01361588  0.20630142  0.19771809  1
  O  O99  1  0.51692056  0.19634532  0.19154799  1
  O  O100  1  0.08203880  0.97573138  0.19387567  1
  O  O101  1  0.59079691  0.97500172  0.19595416  1
  O  O102  1  0.45250539  0.38182786  0.63979548  1
  O  O103  1  0.94875970  0.37017013  0.64515879  1
  O  O104  1  0.23421930  0.09757431  0.64502189  1
  O  O105  1  0.73795635  0.09792786  0.63924531  1
  O  O106  1  0.30968724  0.51577218  0.64096215  1
  O  O107  1  0.82127656  0.54210023  0.63753334  1
  O  O108  1  0.44824974  0.52656997  0.14468230  1
  O  O109  1  0.95067605  0.53789003  0.13468515  1
  O  O110  1  0.31914196  0.09740324  0.13704558  1
  O  O111  1  0.81566246  0.11283259  0.13939495  1
  O  O112  1  0.23697944  0.38028223  0.13910803  1
  O  O113  1  0.73576608  0.37076079  0.14438763  1
  O  O114  1  0.23401173  0.30984859  0.02522891  1
  O  O115  1  0.74200447  0.31147858  0.02981180  1
  O  O116  1  0.41332040  0.52201092  0.02954707  1
  O  O117  1  0.92930636  0.54728463  0.03064357  1
  O  O118  1  0.34374106  0.14436519  0.03230971  1
  O  O119  1  0.84762773  0.16294976  0.02604822  1
  O  O120  1  0.23824116  0.17042572  0.52967374  1
  O  O121  1  0.73518117  0.16306371  0.52556283  1
  O  O122  1  0.34843865  0.53346950  0.52757085  1
  O  O123  1  0.84533913  0.54325143  0.53263779  1
  O  O124  1  0.41792112  0.31339414  0.52604283  1
  O  O125  1  0.91400289  0.30480567  0.52960090  1
  O  O126  1  0.26701149  0.68931809  0.97200608  1
  O  O127  1  0.75967711  0.67172715  0.96832348  1
  O  O128  1  0.08213441  0.49178161  0.97024745  1
  O  O129  1  0.58227311  0.47393793  0.97320032  1
  O  O130  1  0.16609047  0.84277509  0.97590174  1
  O  O131  1  0.65580824  0.83239843  0.97102806  1
  O  O132  1  0.25889160  0.84596971  0.46754147  1
  O  O133  1  0.76776703  0.84049267  0.47316799  1
  O  O134  1  0.15589664  0.47831118  0.47032844  1
  O  O135  1  0.66748837  0.49150725  0.47362929  1
  O  O136  1  0.08226823  0.69038851  0.47300486  1
  O  O137  1  0.57997452  0.67193557  0.46950184  1
  O  O138  1  0.07109597  0.63936397  0.36045745  1
  O  O139  1  0.56744365  0.63789743  0.35642034  1
  O  O140  1  0.25598949  0.86876311  0.36166162  1
  O  O141  1  0.74972529  0.85800979  0.35936063  1
  O  O142  1  0.18017967  0.50078443  0.35835135  1
  O  O143  1  0.68257821  0.49316965  0.36016153  1
  O  O144  1  0.06622455  0.49643792  0.85729750  1
  O  O145  1  0.57062421  0.50340249  0.86093199  1
  O  O146  1  0.18135084  0.86837613  0.86175901  1
  O  O147  1  0.68014328  0.85856864  0.85803760  1
  O  O148  1  0.24931898  0.63917440  0.85914712  1
  O  O149  1  0.75737662  0.63661438  0.86287700  1
  O  O150  1  0.01198606  0.82964345  0.41072259  1
  O  O151  1  0.50912016  0.82108540  0.41874747  1
  O  O152  1  0.38911598  0.97127107  0.41571398  1
  O  O153  1  0.90736370  0.98033103  0.40732855  1
  O  O154  1  0.08243482  0.19149145  0.40668703  1
  O  O155  1  0.58787856  0.19617838  0.42048707  1
  O  O156  1  0.00793148  0.19765187  0.92024017  1
  O  O157  1  0.51210063  0.19421323  0.91055893  1
  O  O158  1  0.08661661  0.97788647  0.92190645  1
  O  O159  1  0.58168937  0.97278350  0.90810282  1
  O  O160  1  0.40747666  0.83486659  0.90858473  1
  O  O161  1  0.89033040  0.80594333  0.91705431  1
  O  O162  1  0.48856781  0.16527778  0.58546349  1
  O  O163  1  0.98624460  0.15348858  0.59105651  1
  O  O164  1  0.08965870  0.01980789  0.58993497  1
  O  O165  1  0.58987251  0.01916337  0.58996797  1
  O  O166  1  0.41991174  0.81802031  0.59205648  1
  O  O167  1  0.91411402  0.80456596  0.58538413  1
  O  O168  1  0.48660678  0.81916838  0.09047579  1
  O  O169  1  0.99068914  0.80536523  0.08606809  1
  O  O170  1  0.41213600  0.01955399  0.08494307  1
  O  O171  1  0.92043745  0.01882854  0.09144697  1
  O  O172  1  0.08898102  0.15918369  0.09053536  1
  O  O173  1  0.59073382  0.15905280  0.08869471  1
  O  O174  1  0.33856717  0.15487370  0.75367365  1
  O  O175  1  0.84165033  0.15835296  0.74650750  1
  O  O176  1  0.23069807  0.31637170  0.74396913  1
  O  O177  1  0.73832305  0.33487428  0.75020323  1
  O  O178  1  0.42628825  0.54617047  0.75237976  1
  O  O179  1  0.92072568  0.52325365  0.74466416  1
  O  O180  1  0.34144405  0.52537766  0.24608273  1
  O  O181  1  0.84062883  0.52397631  0.25194153  1
  O  O182  1  0.42029065  0.31743565  0.24359482  1
  O  O183  1  0.92881849  0.30941416  0.24775942  1
  O  O184  1  0.23762486  0.14066629  0.24933541  1
  O  O185  1  0.73051688  0.14660435  0.24262901  1
  O  O186  1  0.31972780  0.49664481  0.92133435  1
  O  O187  1  0.81203382  0.49818829  0.92362131  1
  O  O188  1  0.42776386  0.36338927  0.92678192  1
  O  O189  1  0.92640723  0.37839119  0.92701274  1
  O  O190  1  0.25949446  0.14639973  0.92801732  1
  O  O191  1  0.75014916  0.13910203  0.92437122  1
  O  O192  1  0.30869612  0.11970357  0.41995236  1
  O  O193  1  0.81958429  0.14065181  0.42187061  1
  O  O194  1  0.25221500  0.35761495  0.42411189  1
  O  O195  1  0.76058909  0.37137062  0.42665064  1
  O  O196  1  0.42464719  0.47589131  0.42233927  1
  O  O197  1  0.92788914  0.49084906  0.42560601  1
  O  O198  1  0.16713862  0.49676439  0.07026512  1
  O  O199  1  0.67277466  0.49635045  0.06977268  1
  O  O200  1  0.07250526  0.66251168  0.07340713  1
  O  O201  1  0.57313910  0.65941191  0.07081921  1
  O  O202  1  0.25784174  0.85769183  0.07499968  1
  O  O203  1  0.75409702  0.84585610  0.06781196  1
  O  O204  1  0.17209326  0.84761440  0.56929247  1
  O  O205  1  0.67169458  0.84576361  0.56899934  1
  O  O206  1  0.25420874  0.66320515  0.56730350  1
  O  O207  1  0.76003990  0.65955948  0.57539160  1
  O  O208  1  0.07330329  0.48607265  0.57115747  1
  O  O209  1  0.58180944  0.49762073  0.57023383  1
  O  O210  1  0.14430010  0.81097107  0.25925669  1
  O  O211  1  0.64842051  0.83522100  0.25133227  1
  O  O212  1  0.26000131  0.71009404  0.25590461  1
  O  O213  1  0.76046667  0.69931880  0.25776717  1
  O  O214  1  0.08317839  0.45801341  0.25528232  1
  O  O215  1  0.59242270  0.48799291  0.25341236  1
  O  O216  1  0.14781088  0.46273356  0.75253470  1
  O  O217  1  0.64474007  0.47515763  0.76051365  1
  O  O218  1  0.09255029  0.69792389  0.75438123  1
  O  O219  1  0.58134371  0.70189392  0.75774347  1
  O  O220  1  0.26077908  0.82145646  0.75951472  1
  O  O221  1  0.76003684  0.81016957  0.75724023  1
