# generated using pymatgen
data_Cs2GaSb2
_symmetry_space_group_name_H-M   'P 1'
_cell_length_a   8.43287258
_cell_length_b   11.30095092
_cell_length_c   18.27400576
_cell_angle_alpha   90.00000000
_cell_angle_beta   90.00000000
_cell_angle_gamma   90.00000000
_symmetry_Int_Tables_number   1
_chemical_formula_structural   Cs2GaSb2
_chemical_formula_sum   'Cs16 Ga8 Sb16'
_cell_volume   1741.50323075
_cell_formula_units_Z   8
loop_
 _symmetry_equiv_pos_site_id
 _symmetry_equiv_pos_as_xyz
  1  'x, y, z'
loop_
 _atom_site_type_symbol
 _atom_site_label
 _atom_site_symmetry_multiplicity
 _atom_site_fract_x
 _atom_site_fract_y
 _atom_site_fract_z
 _atom_site_occupancy
  Cs  Cs0  1  0.86985339  0.44661965  0.36398037  1
  Cs  Cs1  1  0.36985339  0.55338035  0.13601963  1
  Cs  Cs2  1  0.13014661  0.94661965  0.63601963  1
  Cs  Cs3  1  0.63014661  0.05338035  0.86398037  1
  Cs  Cs4  1  0.13014661  0.55338035  0.63601963  1
  Cs  Cs5  1  0.63014661  0.44661965  0.86398037  1
  Cs  Cs6  1  0.86985339  0.05338035  0.36398037  1
  Cs  Cs7  1  0.36985339  0.94661965  0.13601963  1
  Cs  Cs8  1  0.37720947  0.46614362  0.37089598  1
  Cs  Cs9  1  0.87720947  0.53385638  0.12910402  1
  Cs  Cs10  1  0.62279053  0.96614362  0.62910402  1
  Cs  Cs11  1  0.12279053  0.03385638  0.87089598  1
  Cs  Cs12  1  0.62279053  0.53385638  0.62910402  1
  Cs  Cs13  1  0.12279053  0.46614362  0.87089598  1
  Cs  Cs14  1  0.37720947  0.03385638  0.37089598  1
  Cs  Cs15  1  0.87720947  0.96614362  0.12910402  1
  Ga  Ga16  1  0.10842624  0.75000000  0.42110560  1
  Ga  Ga17  1  0.60842624  0.25000000  0.07889440  1
  Ga  Ga18  1  0.39157376  0.75000000  0.92110560  1
  Ga  Ga19  1  0.85962180  0.75000000  0.92066461  1
  Ga  Ga20  1  0.35962180  0.25000000  0.57933539  1
  Ga  Ga21  1  0.14037820  0.25000000  0.07933539  1
  Ga  Ga22  1  0.64037820  0.75000000  0.42066461  1
  Ga  Ga23  1  0.89157376  0.25000000  0.57889440  1
  Sb  Sb24  1  0.70140828  0.75000000  0.28184382  1
  Sb  Sb25  1  0.37355739  0.25000000  0.98896089  1
  Sb  Sb26  1  0.12644261  0.25000000  0.48896089  1
  Sb  Sb27  1  0.87355739  0.75000000  0.51103911  1
  Sb  Sb28  1  0.45402181  0.75000000  0.78210259  1
  Sb  Sb29  1  0.95402181  0.25000000  0.71789741  1
  Sb  Sb30  1  0.54597819  0.25000000  0.21789741  1
  Sb  Sb31  1  0.04597819  0.75000000  0.28210259  1
  Sb  Sb32  1  0.20140828  0.25000000  0.21815618  1
  Sb  Sb33  1  0.29859172  0.25000000  0.71815618  1
  Sb  Sb34  1  0.79859172  0.75000000  0.78184382  1
  Sb  Sb35  1  0.37491386  0.75000000  0.49399326  1
  Sb  Sb36  1  0.12508614  0.75000000  0.99399326  1
  Sb  Sb37  1  0.62508614  0.25000000  0.50600674  1
  Sb  Sb38  1  0.62644261  0.75000000  0.01103911  1
  Sb  Sb39  1  0.87491386  0.25000000  0.00600674  1
