# generated using pymatgen
data_NaIn2Sn2P3(SO8)3
_symmetry_space_group_name_H-M   'P 1'
_cell_length_a   8.82304079
_cell_length_b   8.82898640
_cell_length_c   23.12892739
_cell_angle_alpha   89.99649103
_cell_angle_beta   90.08890895
_cell_angle_gamma   120.01861511
_symmetry_Int_Tables_number   1
_chemical_formula_structural   NaIn2Sn2P3(SO8)3
_chemical_formula_sum   'Na3 In6 Sn6 P9 S9 O72'
_cell_volume   1560.03051569
_cell_formula_units_Z   3
loop_
 _symmetry_equiv_pos_site_id
 _symmetry_equiv_pos_as_xyz
  1  'x, y, z'
loop_
 _atom_site_type_symbol
 _atom_site_label
 _atom_site_symmetry_multiplicity
 _atom_site_fract_x
 _atom_site_fract_y
 _atom_site_fract_z
 _atom_site_occupancy
  Na  Na0  1  0.67831893  0.33505743  0.83385426  1
  Na  Na1  1  0.66274959  0.34007563  0.33116770  1
  Na  Na2  1  0.34374882  0.67329515  0.16841543  1
  In  In3  1  0.67383817  0.33469281  0.68697850  1
  In  In4  1  0.65288660  0.32805121  0.18502519  1
  In  In5  1  0.66765451  0.32650848  0.98558637  1
  In  In6  1  0.66596084  0.33882114  0.47992694  1
  In  In7  1  0.33502218  0.66744577  0.31269192  1
  In  In8  1  0.32743756  0.66775600  0.81089581  1
  Sn  Sn9  1  0.00829026  0.99474514  0.35359680  1
  Sn  Sn10  1  0.99440901  0.00208477  0.85419323  1
  Sn  Sn11  1  0.99473499  0.99429473  0.64960999  1
  Sn  Sn12  1  0.99958497  -0.00000357  0.14639672  1
  Sn  Sn13  1  0.33396983  0.66016695  0.01904731  1
  Sn  Sn14  1  0.32756440  0.66150190  0.51440885  1
  P  P15  1  0.28916246  0.99878101  0.24942164  1
  P  P16  1  0.71323495  0.71198223  0.24995815  1
  P  P17  1  0.99847351  0.71348874  0.75103117  1
  P  P18  1  0.70899315  0.99882566  0.75049420  1
  P  P19  1  0.66668386  0.03625958  0.08394994  1
  P  P20  1  0.36988783  0.33141293  0.08292670  1
  P  P21  1  0.04151577  0.37564563  0.91541602  1
  P  P22  1  0.32947723  0.37212243  0.41516957  1
  P  P23  1  0.04208534  0.66663164  0.41581299  1
  S  S24  1  0.99787810  0.28781103  0.25041407  1
  S  S25  1  0.28967376  0.28822655  0.74987915  1
  S  S26  1  0.96389030  0.33232355  0.58317743  1
  S  S27  1  0.37044407  0.03637333  0.58341360  1
  S  S28  1  0.66398727  0.62944618  0.58350212  1
  S  S29  1  0.96247426  0.62895430  0.08377067  1
  S  S30  1  0.62587303  0.66555931  0.91553396  1
  S  S31  1  0.33128059  0.95902520  0.91598285  1
  S  S32  1  0.62948737  0.95983850  0.41661495  1
  O  O33  1  0.21046293  0.03377740  0.30453020  1
  O  O34  1  0.82285705  0.79691436  0.30592675  1
  O  O35  1  0.97023200  0.18073805  0.30349546  1
  O  O36  1  0.21195052  0.17713927  0.80218165  1
  O  O37  1  0.96750024  0.79862075  0.80549842  1
  O  O38  1  0.82890639  0.03795131  0.80429395  1
  O  O39  1  0.79132821  0.97149053  0.69449002  1
  O  O40  1  0.18207650  0.21011003  0.69631857  1
  O  O41  1  0.03161528  0.82479869  0.69492464  1
  O  O42  1  0.79582701  0.82576927  0.19524816  1
  O  O43  1  0.02701549  0.20948199  0.19761321  1
  O  O44  1  0.17568600  0.97040166  0.19479082  1
  O  O45  1  0.88912557  0.36664988  0.63515073  1
  O  O46  1  0.47907528  0.11342224  0.63564766  1
  O  O47  1  0.63086586  0.52042376  0.63550567  1
  O  O48  1  0.88931763  0.51978208  0.13557979  1
  O  O49  1  0.63042323  0.11264604  0.13804679  1
  O  O50  1  0.48426594  0.37553284  0.13691286  1
  O  O51  1  0.44717278  0.30226296  0.02756825  1
  O  O52  1  0.85869294  0.55672097  0.03061819  1
  O  O53  1  0.70185513  0.14307756  0.02859393  1
  O  O54  1  0.44688695  0.14582369  0.53157912  1
  O  O55  1  0.69951435  0.55456920  0.53197208  1
  O  O56  1  0.85315651  0.29751177  0.53159380  1
  O  O57  1  0.55045134  0.70023621  0.96840275  1
  O  O58  1  0.15596303  0.45716236  0.97079050  1
  O  O59  1  0.30146111  0.85074837  0.96899495  1
  O  O60  1  0.55259541  0.85140460  0.47063351  1
  O  O61  1  0.29901217  0.45033357  0.47248851  1
  O  O62  1  0.15478256  0.70417321  0.47267348  1
  O  O63  1  0.12307479  0.63415516  0.36278907  1
  O  O64  1  0.51927020  0.88460968  0.36538522  1
  O  O65  1  0.36747063  0.48928436  0.36275683  1
  O  O66  1  0.12361261  0.48672962  0.86156565  1
  O  O67  1  0.36430154  0.88307398  0.86439549  1
  O  O68  1  0.51896503  0.63743888  0.86362138  1
  O  O69  1  0.02332613  0.83089635  0.41115996  1
  O  O70  1  0.80323064  0.97602988  0.41014011  1
  O  O71  1  0.16075533  0.19232930  0.40878612  1
  O  O72  1  0.02830104  0.19290921  0.90901190  1
  O  O73  1  0.17014511  0.97252094  0.90913468  1
  O  O74  1  0.80194935  0.82574407  0.91032724  1
  O  O75  1  0.98398746  0.17492585  0.59173604  1
  O  O76  1  0.19361695  0.01921400  0.59147682  1
  O  O77  1  0.82316809  0.80614113  0.59071005  1
  O  O78  1  0.98182456  0.80418215  0.09052716  1
  O  O79  1  0.82797005  0.01365193  0.09218789  1
  O  O80  1  0.18735709  0.16890264  0.09191000  1
  O  O81  1  0.69266565  0.16435776  0.74511577  1
  O  O82  1  0.46298485  0.30218702  0.74390017  1
  O  O83  1  0.82969962  0.53384208  0.74558577  1
  O  O84  1  0.70200000  0.53256873  0.24576314  1
  O  O85  1  0.84074544  0.30506363  0.24514952  1
  O  O86  1  0.47151853  0.16308786  0.24696813  1
  O  O87  1  0.64560326  0.51020067  0.92263010  1
  O  O88  1  0.85798271  0.35490559  0.92200097  1
  O  O89  1  0.48575165  0.13593109  0.92179483  1
  O  O90  1  0.64627200  0.13365017  0.42459496  1
  O  O91  1  0.49038721  0.34925057  0.42290500  1
  O  O92  1  0.86120711  0.50198338  0.42336745  1
  O  O93  1  0.34888331  0.49793824  0.07684306  1
  O  O94  1  0.14147731  0.64910969  0.07667338  1
  O  O95  1  0.49675839  0.85053349  0.07541130  1
  O  O96  1  0.35280561  0.85997333  0.57512668  1
  O  O97  1  0.50734301  0.65017246  0.57483778  1
  O  O98  1  0.14031775  0.49066573  0.57575203  1
  O  O99  1  0.30199474  0.83189943  0.25378950  1
  O  O100  1  0.53106345  0.69489154  0.25394253  1
  O  O101  1  0.15705833  0.46137387  0.25425758  1
  O  O102  1  0.30552658  0.45952495  0.75557328  1
  O  O103  1  0.16006345  0.69651648  0.75574528  1
  O  O104  1  0.53348157  0.83409014  0.75765460  1
