# generated using pymatgen
data_Na4Ga2Si3Sn2(SO8)3
_symmetry_space_group_name_H-M   'P 1'
_cell_length_a   8.86461548
_cell_length_b   8.88743672
_cell_length_c   22.59170732
_cell_angle_alpha   89.97968028
_cell_angle_beta   87.87975584
_cell_angle_gamma   119.92673355
_symmetry_Int_Tables_number   1
_chemical_formula_structural   Na4Ga2Si3Sn2(SO8)3
_chemical_formula_sum   'Na12 Ga6 Si9 Sn6 S9 O72'
_cell_volume   1541.11967013
_cell_formula_units_Z   3
loop_
 _symmetry_equiv_pos_site_id
 _symmetry_equiv_pos_as_xyz
  1  'x, y, z'
loop_
 _atom_site_type_symbol
 _atom_site_label
 _atom_site_symmetry_multiplicity
 _atom_site_fract_x
 _atom_site_fract_y
 _atom_site_fract_z
 _atom_site_occupancy
  Na  Na0  1  0.00013486  0.64177185  0.25186773  1
  Na  Na1  1  0.99798127  0.35859393  0.74166884  1
  Na  Na2  1  0.66606789  0.97400353  0.58661750  1
  Na  Na3  1  0.67004896  0.69836625  0.08231656  1
  Na  Na4  1  0.33525046  0.30445883  0.90623488  1
  Na  Na5  1  0.32586569  0.02796004  0.42001888  1
  Na  Na6  1  0.00658782  0.00281192  0.50165793  1
  Na  Na7  1  0.98966492  0.98321976  0.99550745  1
  Na  Na8  1  0.65792912  0.33097397  0.82365498  1
  Na  Na9  1  0.66441727  0.34033588  0.33212515  1
  Na  Na10  1  0.33303407  0.67578534  0.16863496  1
  Na  Na11  1  0.33298568  0.66504773  0.66222793  1
  Ga  Ga12  1  0.99961384  0.96702859  0.34885800  1
  Ga  Ga13  1  0.97887854  0.99078146  0.84251644  1
  Ga  Ga14  1  0.64619849  0.29730028  0.68531516  1
  Ga  Ga15  1  0.67290556  0.34752525  0.19151327  1
  Ga  Ga16  1  0.32983634  0.67278467  0.01597317  1
  Ga  Ga17  1  0.29139052  0.66830714  0.52442425  1
  Si  Si18  1  0.30418198  0.01116658  0.25079996  1
  Si  Si19  1  0.70276594  0.70564548  0.25102636  1
  Si  Si20  1  0.29602495  0.28429821  0.75331067  1
  Si  Si21  1  0.71096746  0.00490112  0.74929640  1
  Si  Si22  1  0.95763942  0.33754027  0.58638257  1
  Si  Si23  1  0.37401329  0.03933442  0.58191248  1
  Si  Si24  1  0.96806305  0.62331824  0.08485447  1
  Si  Si25  1  0.63262976  0.67790547  0.91961236  1
  Si  Si26  1  0.03501947  0.66465173  0.41704416  1
  Sn  Sn27  1  0.01239626  0.01638219  0.64714103  1
  Sn  Sn28  1  0.00147251  0.98584820  0.15258673  1
  Sn  Sn29  1  0.67682719  0.34787132  0.98287931  1
  Sn  Sn30  1  0.67601900  0.33928305  0.48602506  1
  Sn  Sn31  1  0.33526506  0.67136595  0.31575127  1
  Sn  Sn32  1  0.35433751  0.66849260  0.81114221  1
  S  S33  1  0.99843179  0.28391317  0.25107017  1
  S  S34  1  0.99960426  0.70875752  0.75215363  1
  S  S35  1  0.66431621  0.62467641  0.58517955  1
  S  S36  1  0.66730053  0.04575052  0.08432450  1
  S  S37  1  0.36958171  0.33150006  0.08462575  1
  S  S38  1  0.04362013  0.37641228  0.91806326  1
  S  S39  1  0.33366918  0.95824537  0.91882906  1
  S  S40  1  0.63262805  0.95851044  0.41719912  1
  S  S41  1  0.33023060  0.37673243  0.41833970  1
  O  O42  1  0.21761319  0.04442174  0.31057295  1
  O  O43  1  0.83258557  0.79812644  0.30412530  1
  O  O44  1  0.97446478  0.17692397  0.30330969  1
  O  O45  1  0.20543986  0.16818011  0.81555446  1
  O  O46  1  0.97455761  0.78918945  0.80659464  1
  O  O47  1  0.82809199  0.03926227  0.80684567  1
  O  O48  1  0.78789533  0.95778205  0.68977670  1
  O  O49  1  0.16850816  0.20889973  0.69782403  1
  O  O50  1  0.03662969  0.81692223  0.69809249  1
  O  O51  1  0.76901890  0.81858434  0.18727388  1
  O  O52  1  0.03087011  0.21252365  0.19425657  1
  O  O53  1  0.17749315  0.95954338  0.19344167  1
  O  O54  1  0.86873578  0.36998780  0.64557697  1
  O  O55  1  0.49836164  0.12483945  0.63653339  1
  O  O56  1  0.63731252  0.51453346  0.63683361  1
  O  O57  1  0.87163015  0.50180250  0.14344892  1
  O  O58  1  0.64041955  0.12829834  0.13591315  1
  O  O59  1  0.48135875  0.35661568  0.13390273  1
  O  O60  1  0.43950837  0.29389970  0.02772905  1
  O  O61  1  0.83823710  0.54808195  0.02832058  1
  O  O62  1  0.69327420  0.14746426  0.02731123  1
  O  O63  1  0.44721507  0.15468307  0.51881263  1
  O  O64  1  0.70096622  0.55639408  0.52831941  1
  O  O65  1  0.83809540  0.29137184  0.52767994  1
  O  O66  1  0.53589559  0.69685993  0.98117196  1
  O  O67  1  0.14981437  0.46238039  0.96971906  1
  O  O68  1  0.30618874  0.85038653  0.97250881  1
  O  O69  1  0.55169027  0.85145321  0.47091527  1
  O  O70  1  0.31326471  0.46503878  0.47043684  1
  O  O71  1  0.17154792  0.71013434  0.46884415  1
  O  O72  1  0.11236625  0.62598575  0.35457930  1
  O  O73  1  0.52097252  0.88180065  0.36418918  1
  O  O74  1  0.36623292  0.48305123  0.36196328  1
  O  O75  1  0.11641446  0.48480530  0.86313508  1
  O  O76  1  0.36300253  0.88201891  0.86457047  1
  O  O77  1  0.49594702  0.62059059  0.86598680  1
  O  O78  1  0.02596270  0.84562160  0.41231951  1
  O  O79  1  0.80929084  0.98483909  0.40713493  1
  O  O80  1  0.17305579  0.20367530  0.41313455  1
  O  O81  1  0.03258963  0.20617445  0.91431158  1
  O  O82  1  0.18348058  0.98437076  0.91585784  1
  O  O83  1  0.82647695  0.84572167  0.90930343  1
  O  O84  1  0.96541153  0.15505875  0.58717861  1
  O  O85  1  0.17581007  0.00591516  0.58719588  1
  O  O86  1  0.82364000  0.80162701  0.58813445  1
  O  O87  1  0.97717350  0.81692858  0.08689104  1
  O  O88  1  0.82887915  0.03034904  0.08586931  1
  O  O89  1  0.19068112  0.17836754  0.09025159  1
  O  O90  1  0.70246914  0.18300860  0.74576210  1
  O  O91  1  0.49241379  0.31924478  0.74352497  1
  O  O92  1  0.84661129  0.53637906  0.74814455  1
  O  O93  1  0.70182163  0.52194922  0.24479630  1
  O  O94  1  0.84369731  0.30565814  0.24604768  1
  O  O95  1  0.49696247  0.17697415  0.23939545  1
  O  O96  1  0.63498399  0.48821496  0.92316103  1
  O  O97  1  0.86257080  0.35019484  0.92316972  1
  O  O98  1  0.49594341  0.13594501  0.92373770  1
  O  O99  1  0.63879588  0.13118974  0.42012002  1
  O  O100  1  0.48650433  0.35063096  0.41974130  1
  O  O101  1  0.84021453  0.49220117  0.42138031  1
  O  O102  1  0.35995901  0.49181784  0.07772225  1
  O  O103  1  0.16137921  0.64353777  0.07390484  1
  O  O104  1  0.51509659  0.86758157  0.07964136  1
  O  O105  1  0.37435320  0.85522348  0.57502070  1
  O  O106  1  0.51278320  0.64848214  0.57775082  1
  O  O107  1  0.15472127  0.50161513  0.57952490  1
  O  O108  1  0.30585132  0.82554310  0.25546295  1
  O  O109  1  0.50623142  0.67592268  0.25634568  1
  O  O110  1  0.15503088  0.46264084  0.25294781  1
  O  O111  1  0.29200118  0.47113939  0.75777599  1
  O  O112  1  0.15720387  0.68640675  0.75832842  1
  O  O113  1  0.51253141  0.83745317  0.75225769  1
