# generated using pymatgen
data_K6Mg(SbO4)2
_symmetry_space_group_name_H-M   'P 1'
_cell_length_a   7.20533024
_cell_length_b   6.10063668
_cell_length_c   8.42468062
_cell_angle_alpha   81.00188501
_cell_angle_beta   103.78257062
_cell_angle_gamma   114.94973626
_symmetry_Int_Tables_number   1
_chemical_formula_structural   K6Mg(SbO4)2
_chemical_formula_sum   'K6 Mg1 Sb2 O8'
_cell_volume   325.43951804
_cell_formula_units_Z   1
loop_
 _symmetry_equiv_pos_site_id
 _symmetry_equiv_pos_as_xyz
  1  'x, y, z'
loop_
 _atom_site_type_symbol
 _atom_site_label
 _atom_site_symmetry_multiplicity
 _atom_site_fract_x
 _atom_site_fract_y
 _atom_site_fract_z
 _atom_site_occupancy
  K  K0  1  0.80284935  0.21177693  0.48904292  1
  K  K1  1  0.24281219  -0.06946352  0.45712149  1
  K  K2  1  0.32177216  0.48582570  0.32906902  1
  K  K3  1  0.85047439  0.69134926  0.70463448  1
  K  K4  1  0.28040926  0.91130689  0.01453576  1
  K  K5  1  0.71910759  0.05426337  0.86115033  1
  Mg  Mg6  1  0.80802088  0.92756891  0.20084601  1
  Sb  Sb7  1  0.69800483  0.47220818  0.14401195  1
  Sb  Sb8  1  0.32012966  0.45370067  0.78802577  1
  O  O9  1  0.91017680  0.77664228  0.05166541  1
  O  O10  1  0.55514083  0.34858432  0.90389253  1
  O  O11  1  0.48642558  0.20527101  0.25190045  1
  O  O12  1  0.83239103  0.65751423  0.36553155  1
  O  O13  1  0.47825847  0.70792837  0.63737672  1
  O  O14  1  0.16186180  0.17121216  0.65174912  1
  O  O15  1  0.87692843  0.27508196  0.18225378  1
  O  O16  1  0.53023676  0.68922928  0.09219270  1
