# generated using pymatgen
data_Na10Ca3Zr5Si6(SO8)6
_symmetry_space_group_name_H-M   'P 1'
_cell_length_a   18.52504285
_cell_length_b   9.25835528
_cell_length_c   23.30636321
_cell_angle_alpha   89.81841020
_cell_angle_beta   89.92835537
_cell_angle_gamma   120.00250291
_symmetry_Int_Tables_number   1
_chemical_formula_structural   Na10Ca3Zr5Si6(SO8)6
_chemical_formula_sum   'Na30 Ca9 Zr15 Si18 S18 O144'
_cell_volume   3461.64671472
_cell_formula_units_Z   3
loop_
 _symmetry_equiv_pos_site_id
 _symmetry_equiv_pos_as_xyz
  1  'x, y, z'
loop_
 _atom_site_type_symbol
 _atom_site_label
 _atom_site_symmetry_multiplicity
 _atom_site_fract_x
 _atom_site_fract_y
 _atom_site_fract_z
 _atom_site_occupancy
  Na  Na0  1  0.31686938  0.99953402  0.24514172  1
  Na  Na1  1  0.19326208  0.36324554  0.24198497  1
  Na  Na2  1  0.69228293  0.37314239  0.24042179  1
  Na  Na3  1  0.99723841  0.64308297  0.25244481  1
  Na  Na4  1  0.31772704  0.61379037  0.75631164  1
  Na  Na5  1  0.81869380  0.62543968  0.75017443  1
  Na  Na6  1  0.99179257  0.35858004  0.75208135  1
  Na  Na7  1  0.49622022  0.37448063  0.74046921  1
  Na  Na8  1  0.18112442  0.01130661  0.74960988  1
  Na  Na9  1  0.68763230  0.01393738  0.75139046  1
  Na  Na10  1  0.64786363  0.34392843  0.57301253  1
  Na  Na11  1  0.32073548  0.67747443  0.07641330  1
  Na  Na12  1  0.82333286  0.68205512  0.08881048  1
  Na  Na13  1  0.16189970  0.32349152  0.92437434  1
  Na  Na14  1  -0.00003233  0.31272759  0.42087231  1
  Na  Na15  1  0.16252133  0.02548701  0.41944265  1
  Na  Na16  1  0.66287190  0.02342959  0.41339582  1
  Na  Na17  1  0.84165864  0.67598107  0.41899031  1
  Na  Na18  1  0.00236257  0.00505413  0.50027956  1
  Na  Na19  1  0.49383174  0.02022973  0.49574690  1
  Na  Na20  1  0.00657214  0.03324048  0.00071242  1
  Na  Na21  1  0.50244934  0.03349727  0.99540191  1
  Na  Na22  1  0.34618875  0.36179553  0.83518828  1
  Na  Na23  1  0.83909125  0.33516176  0.82828085  1
  Na  Na24  1  0.33571171  0.37028157  0.32662841  1
  Na  Na25  1  0.83290752  0.33857127  0.33043828  1
  Na  Na26  1  0.16908696  0.65621497  0.15848856  1
  Na  Na27  1  0.66293868  0.65917136  0.15859971  1
  Na  Na28  1  0.15992971  0.65808972  0.66286245  1
  Na  Na29  1  0.65444410  0.65912339  0.66070199  1
  Ca  Ca30  1  0.49641675  0.99697020  0.35183344  1
  Ca  Ca31  1  0.33653317  0.33991707  0.68209378  1
  Ca  Ca32  1  0.83556483  0.33559438  0.68676460  1
  Ca  Ca33  1  0.33232473  0.33822752  0.18413280  1
  Ca  Ca34  1  0.83192643  0.32876490  0.18264996  1
  Ca  Ca35  1  0.16451947  0.65617371  0.01445392  1
  Ca  Ca36  1  0.65883847  0.64731880  0.01463581  1
  Ca  Ca37  1  0.16210558  0.65662466  0.51552332  1
  Ca  Ca38  1  0.66675231  0.66503227  0.51713262  1
  Zr  Zr39  1  0.00010829  0.99196229  0.35193531  1
  Zr  Zr40  1  0.99756969  0.00279006  0.84967822  1
  Zr  Zr41  1  0.50158669  0.99766192  0.85552897  1
  Zr  Zr42  1  0.00075228  0.00112445  0.65337161  1
  Zr  Zr43  1  0.50301271  0.00894138  0.64770024  1
  Zr  Zr44  1  0.00673802  0.99784185  0.14835867  1
  Zr  Zr45  1  0.49995640  -0.00000319  0.14666092  1
  Zr  Zr46  1  0.33273316  0.34156047  0.97870053  1
  Zr  Zr47  1  0.82849102  0.32617238  0.98205046  1
  Zr  Zr48  1  0.33821608  0.33906061  0.48562545  1
  Zr  Zr49  1  0.83578163  0.33824513  0.47661170  1
  Zr  Zr50  1  0.17192100  0.66323771  0.31661446  1
  Zr  Zr51  1  0.67520850  0.67000636  0.31790975  1
  Zr  Zr52  1  0.15699905  0.64281268  0.82003105  1
  Zr  Zr53  1  0.65730985  0.65343069  0.81271580  1
  Si  Si54  1  0.14825067  0.99158009  0.25282701  1
  Si  Si55  1  0.35096315  0.70671583  0.25014016  1
  Si  Si56  1  0.85173790  0.70752810  0.24890529  1
  Si  Si57  1  0.14600725  0.29577933  0.75198074  1
  Si  Si58  1  0.64392554  0.29172086  0.75044548  1
  Si  Si59  1  0.00645291  0.71443683  0.75210265  1
  Si  Si60  1  0.50035862  0.71327948  0.75011701  1
  Si  Si61  1  0.85073978  0.99038485  0.75059147  1
  Si  Si62  1  0.48427660  0.32991998  0.58864177  1
  Si  Si63  1  0.18160450  0.32964405  0.08550737  1
  Si  Si64  1  0.68343464  0.33290460  0.08811330  1
  Si  Si65  1  0.31642594  0.66942428  0.91880855  1
  Si  Si66  1  0.01074689  0.35578554  0.91796458  1
  Si  Si67  1  0.51331705  0.36319290  0.91620547  1
  Si  Si68  1  0.81586805  0.96490550  0.41750034  1
  Si  Si69  1  0.16954515  0.36670439  0.41629902  1
  Si  Si70  1  0.66522790  0.36349190  0.42099682  1
  Si  Si71  1  0.02226796  0.66949174  0.41492936  1
  S  S72  1  0.64492881  0.98957328  0.25105901  1
  S  S73  1  0.00305520  0.29259202  0.25121629  1
  S  S74  1  0.50524882  0.29919431  0.24946294  1
  S  S75  1  0.35359321  0.99108328  0.75130078  1
  S  S76  1  0.98088382  0.32391861  0.58358999  1
  S  S77  1  0.18212433  0.03725529  0.58406107  1
  S  S78  1  0.68481034  0.04269199  0.58367659  1
  S  S79  1  0.33551158  0.63628895  0.58445731  1
  S  S80  1  0.83909989  0.63702386  0.58346439  1
  S  S81  1  0.48005824  0.63396493  0.08346323  1
  S  S82  1  0.97926429  0.63157328  0.08373859  1
  S  S83  1  0.33658733  0.03963212  0.08548009  1
  S  S84  1  0.83635823  0.03779467  0.08220905  1
  S  S85  1  0.81607882  0.66406321  0.91707327  1
  S  S86  1  0.16669919  0.96587746  0.91558076  1
  S  S87  1  0.66937183  0.96682275  0.91597792  1
  S  S88  1  0.31277469  0.96699705  0.41876122  1
  S  S89  1  0.51752793  0.65837947  0.41616033  1
  O  O90  1  0.09932123  0.01644485  0.30713419  1
  O  O91  1  0.61027688  0.01480661  0.30455158  1
  O  O92  1  0.40049289  0.80576366  0.30523979  1
  O  O93  1  0.90766280  0.81289069  0.30392234  1
  O  O94  1  0.49642128  0.20579227  0.30221093  1
  O  O95  1  0.99434853  0.19951524  0.30453447  1
  O  O96  1  0.09892594  0.18515933  0.80899625  1
  O  O97  1  0.59292378  0.16755345  0.80255313  1
  O  O98  1  0.48892763  0.81030039  0.80357633  1
  O  O99  1  0.99402860  0.80921350  0.80650587  1
  O  O100  1  0.40557075  0.01524091  0.80177244  1
  O  O101  1  0.91257075  0.01952363  0.80456237  1
  O  O102  1  0.39434023  0.97025740  0.69870694  1
  O  O103  1  0.89768797  0.96139517  0.69430145  1
  O  O104  1  0.08316743  0.20346612  0.69662329  1
  O  O105  1  0.58711915  0.20760163  0.69123289  1
  O  O106  1  0.01998451  0.83557845  0.69514401  1
  O  O107  1  0.51214320  0.82935954  0.69244952  1
  O  O108  1  0.39922521  0.82802636  0.19159466  1
  O  O109  1  0.89668131  0.81494320  0.18980308  1
  O  O110  1  0.01022172  0.20303737  0.20054345  1
  O  O111  1  0.51835754  0.21184129  0.19882070  1
  O  O112  1  0.08598950  0.97157842  0.19719986  1
  O  O113  1  0.59147437  0.97891338  0.20071257  1
  O  O114  1  0.44312529  0.33348437  0.64868475  1
  O  O115  1  0.93923341  0.33237157  0.63615400  1
  O  O116  1  0.22646105  0.11763981  0.63731520  1
  O  O117  1  0.73052944  0.12083872  0.63656214  1
  O  O118  1  0.32498224  0.54557082  0.63852827  1
  O  O119  1  0.83170773  0.54046518  0.63562023  1
  O  O120  1  0.44470043  0.53692542  0.13543031  1
  O  O121  1  0.94574245  0.54271046  0.13840843  1
  O  O122  1  0.33299805  0.11337918  0.14024175  1
  O  O123  1  0.83007963  0.11581811  0.13488368  1
  O  O124  1  0.23081562  0.34283427  0.14367530  1
  O  O125  1  0.73296483  0.35326520  0.14740742  1
  O  O126  1  0.23341938  0.31305893  0.02779212  1
  O  O127  1  0.73888438  0.31414887  0.03309281  1
  O  O128  1  0.42601957  0.54692449  0.03238866  1
  O  O129  1  0.92313442  0.53459926  0.03490014  1
  O  O130  1  0.34556956  0.14777128  0.03566994  1
  O  O131  1  0.84489081  0.14577616  0.03101292  1
  O  O132  1  0.22940853  0.14430047  0.53227756  1
  O  O133  1  0.73011730  0.15063052  0.53231855  1
  O  O134  1  0.34163709  0.53679413  0.53465825  1
  O  O135  1  0.84468217  0.54434373  0.53143553  1
  O  O136  1  0.42093669  0.32018173  0.53359595  1
  O  O137  1  0.93039596  0.31583296  0.53136353  1
  O  O138  1  0.28376454  0.69857991  0.97814753  1
  O  O139  1  0.78163475  0.69177318  0.96948705  1
  O  O140  1  0.07631294  0.43932706  0.96800686  1
  O  O141  1  0.56878683  0.43679008  0.97138068  1
  O  O142  1  0.15557625  0.86779138  0.96633732  1
  O  O143  1  0.66029992  0.87049611  0.96684446  1
  O  O144  1  0.27393223  0.86640908  0.46869083  1
  O  O145  1  0.78229122  0.84331667  0.47097902  1
  O  O146  1  0.14140489  0.43902520  0.46814239  1
  O  O147  1  0.65723504  0.44108621  0.47953874  1
  O  O148  1  0.08468008  0.73045455  0.46734482  1
  O  O149  1  0.56780207  0.68337882  0.46738796  1
  O  O150  1  0.06188432  0.62900186  0.35730374  1
  O  O151  1  0.55805762  0.63456553  0.36406684  1
  O  O152  1  0.26101946  0.88628291  0.36511798  1
  O  O153  1  0.75038745  0.87459814  0.36205070  1
  O  O154  1  0.18304024  0.48277293  0.35722900  1
  O  O155  1  0.67963723  0.49174401  0.36424495  1
  O  O156  1  0.05373443  0.46858171  0.85683488  1
  O  O157  1  0.56063277  0.48641978  0.85848292  1
  O  O158  1  0.17549349  0.88415354  0.86218196  1
  O  O159  1  0.68013154  0.88857898  0.86266085  1
  O  O160  1  0.25149379  0.63941565  0.86321855  1
  O  O161  1  0.76349999  0.64349022  0.86547002  1
  O  O162  1  0.99610983  0.81488324  0.40600503  1
  O  O163  1  0.50843439  0.80662581  0.40963819  1
  O  O164  1  0.39884894  0.00004424  0.41236366  1
  O  O165  1  0.91160740  0.00963106  0.40409258  1
  O  O166  1  0.08787781  0.17729422  0.40588625  1
  O  O167  1  0.59505502  0.17063728  0.41370264  1
  O  O168  1  0.00303363  0.17031268  0.91066267  1
  O  O169  1  0.50019106  0.17677888  0.90416316  1
  O  O170  1  0.09409730  0.99472583  0.90987040  1
  O  O171  1  0.59581390  0.99025560  0.90999736  1
  O  O172  1  0.41030655  0.81983440  0.90549415  1
  O  O173  1  0.90181590  0.80705673  0.90887505  1
  O  O174  1  0.49010685  0.15319963  0.58445762  1
  O  O175  1  0.98617673  0.16719151  0.58334824  1
  O  O176  1  0.09845431  0.02770719  0.58341577  1
  O  O177  1  0.60214693  0.03938921  0.58471767  1
  O  O178  1  0.41533867  0.79960015  0.58458724  1
  O  O179  1  0.91687940  0.80336658  0.58412211  1
  O  O180  1  0.47873812  0.79769814  0.08732485  1
  O  O181  1  0.97590228  0.79330192  0.08488930  1
  O  O182  1  0.41490800  0.02162971  0.08607768  1
  O  O183  1  0.91322020  0.02085304  0.08352500  1
  O  O184  1  0.08659728  0.15500868  0.08813455  1
  O  O185  1  0.59011401  0.15889954  0.09087301  1
  O  O186  1  0.34096876  0.13640616  0.74663046  1
  O  O187  1  0.84042973  0.15298949  0.74741131  1
  O  O188  1  0.23634660  0.31032333  0.74857776  1
  O  O189  1  0.73673227  0.31808026  0.74757406  1
  O  O190  1  0.42131826  0.52526863  0.74994583  1
  O  O191  1  0.92644600  0.52938908  0.74807105  1
  O  O192  1  0.33414769  0.51898916  0.24783871  1
  O  O193  1  0.84557439  0.52453579  0.25222064  1
  O  O194  1  0.43045168  0.31182046  0.24127990  1
  O  O195  1  0.93249505  0.32348465  0.24681898  1
  O  O196  1  0.24206930  0.14603649  0.25111438  1
  O  O197  1  0.72962064  0.13652405  0.24459767  1
  O  O198  1  0.31582438  0.48613446  0.92081514  1
  O  O199  1  0.82243408  0.50760097  0.92221325  1
  O  O200  1  0.41988000  0.34604309  0.92332303  1
  O  O201  1  0.91915168  0.34286074  0.92576155  1
  O  O202  1  0.24341381  0.13623985  0.91886412  1
  O  O203  1  0.74583866  0.13854505  0.92004544  1
  O  O204  1  0.31430065  0.13232224  0.42298139  1
  O  O205  1  0.81952757  0.14741750  0.42526671  1
  O  O206  1  0.25105927  0.34038800  0.42625921  1
  O  O207  1  0.75871339  0.36766012  0.42263466  1
  O  O208  1  0.43216340  0.50487553  0.42213494  1
  O  O209  1  0.93100235  0.49496946  0.42580107  1
  O  O210  1  0.17562593  0.49857656  0.08251105  1
  O  O211  1  0.68075522  0.50481702  0.08204706  1
  O  O212  1  0.06470160  0.66895162  0.07592456  1
  O  O213  1  0.56634116  0.67317213  0.07608509  1
  O  O214  1  0.26387150  0.87087328  0.08055811  1
  O  O215  1  0.76322495  0.86979952  0.07592968  1
  O  O216  1  0.17336442  0.87156533  0.57978220  1
  O  O217  1  0.67166897  0.87445882  0.57816448  1
  O  O218  1  0.26426416  0.66176249  0.57692593  1
  O  O219  1  0.76399555  0.65222902  0.57997164  1
  O  O220  1  0.06447149  0.47249198  0.58121503  1
  O  O221  1  0.57853098  0.48639880  0.58458180  1
  O  O222  1  0.14633875  0.81220558  0.25744224  1
  O  O223  1  0.64834246  0.83212462  0.25285458  1
  O  O224  1  0.25620789  0.69725291  0.25185382  1
  O  O225  1  0.75530437  0.67919616  0.25585005  1
  O  O226  1  0.08288931  0.45835853  0.25293538  1
  O  O227  1  0.58276906  0.46770879  0.25205365  1
  O  O228  1  0.15442767  0.48354958  0.75575959  1
  O  O229  1  0.64989973  0.47626599  0.75651705  1
  O  O230  1  0.09512499  0.71079621  0.75681503  1
  O  O231  1  0.58935509  0.70878766  0.75625656  1
  O  O232  1  0.27038837  0.83580483  0.75600314  1
  O  O233  1  0.76105192  0.81872403  0.75943737  1
