# generated using pymatgen
data_MgV5CoO12
_symmetry_space_group_name_H-M   'P 1'
_cell_length_a   7.11232301
_cell_length_b   6.99030702
_cell_length_c   5.56869750
_cell_angle_alpha   70.65659120
_cell_angle_beta   108.22581094
_cell_angle_gamma   102.74761585
_symmetry_Int_Tables_number   1
_chemical_formula_structural   MgV5CoO12
_chemical_formula_sum   'Mg1 V5 Co1 O12'
_cell_volume   246.00061016
_cell_formula_units_Z   1
loop_
 _symmetry_equiv_pos_site_id
 _symmetry_equiv_pos_as_xyz
  1  'x, y, z'
loop_
 _atom_site_type_symbol
 _atom_site_label
 _atom_site_symmetry_multiplicity
 _atom_site_fract_x
 _atom_site_fract_y
 _atom_site_fract_z
 _atom_site_occupancy
  Mg  Mg0  1  0.72377013  0.73082542  0.74357277  1
  V  V1  1  0.20740692  0.62538784  0.77086043  1
  V  V2  1  0.39069088  0.85669292  0.21325567  1
  V  V3  1  0.60770950  0.18665245  0.72780299  1
  V  V4  1  0.81443167  0.38034780  0.23540216  1
  V  V5  1  0.91746767  0.91777642  0.24967850  1
  Co  Co6  1  0.09262044  0.09640520  0.75031106  1
  O  O7  1  0.01756626  0.78999390  0.65951064  1
  O  O8  1  0.09525273  0.39304653  0.72911158  1
  O  O9  1  0.17706709  0.97510459  0.16703769  1
  O  O10  1  0.40004193  0.71626364  0.60651583  1
  O  O11  1  0.39054309  0.04666130  0.84113385  1
  O  O12  1  0.30556752  0.61276296  0.10586995  1
  O  O13  1  0.69470742  0.40557906  0.87167380  1
  O  O14  1  0.65727516  0.86931772  0.33408556  1
  O  O15  1  0.59749541  0.27412897  0.38205728  1
  O  O16  1  0.79839488  0.01186890  0.84074202  1
  O  O17  1  0.86214116  0.64970532  0.17297919  1
  O  O18  1  0.97207112  0.18148105  0.34839803  1
