# generated using pymatgen
data_NaMgNiO2
_symmetry_space_group_name_H-M   'P 1'
_cell_length_a   6.83349647
_cell_length_b   5.91575423
_cell_length_c   6.83349533
_cell_angle_alpha   32.09441206
_cell_angle_beta   41.49371552
_cell_angle_gamma   32.09441299
_symmetry_Int_Tables_number   1
_chemical_formula_structural   NaMgNiO2
_chemical_formula_sum   'Na1 Mg1 Ni1 O2'
_cell_volume   77.50172154
_cell_formula_units_Z   1
loop_
 _symmetry_equiv_pos_site_id
 _symmetry_equiv_pos_as_xyz
  1  'x, y, z'
loop_
 _atom_site_type_symbol
 _atom_site_label
 _atom_site_symmetry_multiplicity
 _atom_site_fract_x
 _atom_site_fract_y
 _atom_site_fract_z
 _atom_site_occupancy
  Na  Na0  1  0.50000000  0.50000000  0.50000000  1
  Mg  Mg1  1  0.50000000  -0.00000000  0.50000000  1
  Ni  Ni2  1  0.00000000  -0.00000000  -0.00000000  1
  O  O3  1  0.22067681  0.33860478  0.22067681  1
  O  O4  1  0.77932319  0.66139522  0.77932319  1
