# generated using pymatgen
data_Na14Al4Zn4Si5S7O48
_symmetry_space_group_name_H-M   'P 1'
_cell_length_a   17.91293598
_cell_length_b   8.88674165
_cell_length_c   21.76532485
_cell_angle_alpha   89.93991557
_cell_angle_beta   90.37462665
_cell_angle_gamma   119.73166115
_symmetry_Int_Tables_number   1
_chemical_formula_structural   Na14Al4Zn4Si5S7O48
_chemical_formula_sum   'Na42 Al12 Zn12 Si15 S21 O144'
_cell_volume   3008.58592711
_cell_formula_units_Z   3
loop_
 _symmetry_equiv_pos_site_id
 _symmetry_equiv_pos_as_xyz
  1  'x, y, z'
loop_
 _atom_site_type_symbol
 _atom_site_label
 _atom_site_symmetry_multiplicity
 _atom_site_fract_x
 _atom_site_fract_y
 _atom_site_fract_z
 _atom_site_occupancy
  Na  Na0  1  0.81090655  0.99867801  0.24990351  1
  Na  Na1  1  0.18494121  0.35655397  0.25285401  1
  Na  Na2  1  0.68240434  0.35991771  0.25232787  1
  Na  Na3  1  0.00541237  0.64564561  0.24578073  1
  Na  Na4  1  0.50289722  0.63997720  0.24105751  1
  Na  Na5  1  0.31950800  0.62325746  0.75246626  1
  Na  Na6  1  0.00286067  0.36571336  0.74169870  1
  Na  Na7  1  0.50355558  0.37003828  0.74561683  1
  Na  Na8  1  0.18559310  0.00993238  0.75172436  1
  Na  Na9  1  0.67697885  0.00204110  0.75122070  1
  Na  Na10  1  0.14954053  0.32594228  0.58311309  1
  Na  Na11  1  0.65363736  0.32436622  0.58144301  1
  Na  Na12  1  0.32906419  0.97819678  0.58999983  1
  Na  Na13  1  0.83249514  0.98469880  0.58571313  1
  Na  Na14  1  0.15609838  0.98603076  0.07520207  1
  Na  Na15  1  0.64785635  0.96957789  0.07677125  1
  Na  Na16  1  0.33396636  0.68096697  0.08204161  1
  Na  Na17  1  0.82639149  0.67889123  0.08302729  1
  Na  Na18  1  0.48073871  0.67261625  0.91812511  1
  Na  Na19  1  0.98465864  0.67273191  0.91584679  1
  Na  Na20  1  0.34916090  0.04143984  0.91156720  1
  Na  Na21  1  0.84700256  0.03069472  0.91243050  1
  Na  Na22  1  0.16811747  0.28129485  0.91511581  1
  Na  Na23  1  0.66581710  0.27876800  0.91540782  1
  Na  Na24  1  0.48522190  0.29789634  0.41913761  1
  Na  Na25  1  0.98235257  0.29440640  0.42923688  1
  Na  Na26  1  0.16808561  0.05694643  0.41962570  1
  Na  Na27  1  0.66732029  0.05315098  0.41855374  1
  Na  Na28  1  0.34931116  0.66243425  0.41703294  1
  Na  Na29  1  0.84703807  0.65699229  0.41696381  1
  Na  Na30  1  0.00806362  0.00922770  0.50464763  1
  Na  Na31  1  0.51000453  0.00072548  0.50385801  1
  Na  Na32  1  0.00961276  0.02048828  0.00052644  1
  Na  Na33  1  0.50757065  0.00616378  0.00055080  1
  Na  Na34  1  0.33025325  0.33494353  0.83025650  1
  Na  Na35  1  0.82128275  0.33270909  0.82964926  1
  Na  Na36  1  0.32437869  0.31323480  0.33112046  1
  Na  Na37  1  0.82126167  0.32431656  0.33563832  1
  Na  Na38  1  0.16995757  0.67017497  0.16517265  1
  Na  Na39  1  0.65647761  0.64775070  0.16361019  1
  Na  Na40  1  0.15840396  0.66497714  0.66575930  1
  Na  Na41  1  0.66278827  0.66845858  0.66889975  1
  Al  Al42  1  0.01003236  0.02066901  0.64655752  1
  Al  Al43  1  0.51954321  0.00890229  0.65706060  1
  Al  Al44  1  0.01245373  0.00654287  0.15103941  1
  Al  Al45  1  0.51092035  0.00153999  0.14515391  1
  Al  Al46  1  0.82555796  0.31770236  0.67763777  1
  Al  Al47  1  0.32574914  0.32921695  0.17686405  1
  Al  Al48  1  0.16447481  0.65596085  0.01603222  1
  Al  Al49  1  0.64541127  0.64825620  0.02302996  1
  Al  Al50  1  0.15039991  0.64461355  0.52585968  1
  Al  Al51  1  0.66143642  0.66448280  0.51890238  1
  Al  Al52  1  0.17480019  0.68344795  0.31537730  1
  Al  Al53  1  0.66471764  0.66801286  0.81005445  1
  Zn  Zn54  1  0.01996193  0.02800717  0.34845474  1
  Zn  Zn55  1  0.51492344  0.02974949  0.34850030  1
  Zn  Zn56  1  0.01267440  0.99700789  0.84816358  1
  Zn  Zn57  1  0.52178086  0.99426692  0.84158957  1
  Zn  Zn58  1  0.32576056  0.32594927  0.68339950  1
  Zn  Zn59  1  0.81566669  0.32062961  0.17646449  1
  Zn  Zn60  1  0.32319087  0.32881252  0.99108596  1
  Zn  Zn61  1  0.81769710  0.30550608  0.98516728  1
  Zn  Zn62  1  0.31758193  0.33197568  0.48868877  1
  Zn  Zn63  1  0.82326796  0.31858449  0.49331440  1
  Zn  Zn64  1  0.66335865  0.66332605  0.31668143  1
  Zn  Zn65  1  0.16560534  0.66633225  0.81511961  1
  Si  Si66  1  0.15603488  0.00089166  0.24857674  1
  Si  Si67  1  0.64894534  0.99678204  0.25115732  1
  Si  Si68  1  0.14666492  0.30069656  0.75183464  1
  Si  Si69  1  0.65766758  0.31194370  0.74881432  1
  Si  Si70  1  0.49819090  0.69671197  0.75231103  1
  Si  Si71  1  0.97605293  0.32948512  0.58543614  1
  Si  Si72  1  0.17979530  0.02179245  0.58303828  1
  Si  Si73  1  0.67876698  0.02150524  0.58242755  1
  Si  Si74  1  0.47539409  0.62156707  0.08550514  1
  Si  Si75  1  0.17856958  0.33554285  0.08391414  1
  Si  Si76  1  0.67812478  0.33973975  0.08230024  1
  Si  Si77  1  0.16894280  0.95461135  0.91861096  1
  Si  Si78  1  0.66823845  0.94531653  0.91738282  1
  Si  Si79  1  0.16717451  0.39120044  0.41592243  1
  Si  Si80  1  0.66913366  0.38308307  0.41789490  1
  S  S81  1  0.35255973  0.70906756  0.25148105  1
  S  S82  1  0.86156916  0.71936584  0.24861231  1
  S  S83  1  -0.00003399  0.29199857  0.24935470  1
  S  S84  1  0.49151123  0.28029894  0.24688901  1
  S  S85  1  0.99177093  0.70309127  0.74664680  1
  S  S86  1  0.36006851  0.99958738  0.74880504  1
  S  S87  1  0.85419129  0.99873540  0.75053206  1
  S  S88  1  0.48362459  0.33627794  0.58128233  1
  S  S89  1  0.33656316  0.64466804  0.58247542  1
  S  S90  1  0.83521024  0.63272292  0.58382287  1
  S  S91  1  0.98279210  0.63112647  0.08437415  1
  S  S92  1  0.33597512  0.03865589  0.08431465  1
  S  S93  1  0.83998842  0.03375125  0.08529954  1
  S  S94  1  0.31139360  0.66883251  0.91855314  1
  S  S95  1  0.81007202  0.66872173  0.91589169  1
  S  S96  1  0.01832792  0.37573132  0.91931332  1
  S  S97  1  0.52342645  0.37965748  0.91469188  1
  S  S98  1  0.31148361  0.95415929  0.41628425  1
  S  S99  1  0.81309503  0.95617166  0.41647443  1
  S  S100  1  0.02522259  0.66722998  0.41418313  1
  S  S101  1  0.51845084  0.66210181  0.41852951  1
  O  O102  1  0.12262944  0.05245230  0.31058097  1
  O  O103  1  0.61351471  0.03325800  0.31485290  1
  O  O104  1  0.40291781  0.78875583  0.30812727  1
  O  O105  1  0.90888830  0.80385002  0.30619211  1
  O  O106  1  0.48032123  0.19385372  0.30763086  1
  O  O107  1  0.98228896  0.19171215  0.30754807  1
  O  O108  1  0.10904781  0.19422792  0.81557154  1
  O  O109  1  0.62396286  0.19376166  0.81106493  1
  O  O110  1  0.47010172  0.75754396  0.81507220  1
  O  O111  1  0.97990054  0.76553580  0.80741153  1
  O  O112  1  0.40766861  0.01442986  0.80663021  1
  O  O113  1  0.90484540  0.02249848  0.80726893  1
  O  O114  1  0.40702235  0.98724082  0.69348419  1
  O  O115  1  0.89626160  0.97791172  0.69524686  1
  O  O116  1  0.08170408  0.19885359  0.69373847  1
  O  O117  1  0.58828870  0.21857928  0.69113843  1
  O  O118  1  -0.00013100  0.82384547  0.69665060  1
  O  O119  1  0.51762729  0.83991119  0.69853446  1
  O  O120  1  0.39360670  0.81258818  0.19598759  1
  O  O121  1  0.90738193  0.82972460  0.19379821  1
  O  O122  1  0.01071094  0.19381980  0.19806759  1
  O  O123  1  0.50025014  0.17708093  0.19691378  1
  O  O124  1  0.08468066  0.95508906  0.19251232  1
  O  O125  1  0.58442880  0.97233508  0.19352287  1
  O  O126  1  0.44606909  0.36188916  0.63636429  1
  O  O127  1  0.92574891  0.35283299  0.64408970  1
  O  O128  1  0.24731491  0.10389834  0.64072655  1
  O  O129  1  0.74750427  0.11688295  0.63945875  1
  O  O130  1  0.32180285  0.53295902  0.63589289  1
  O  O131  1  0.81848287  0.50618712  0.63374409  1
  O  O132  1  0.42594837  0.49909395  0.14529799  1
  O  O133  1  0.94388712  0.52841567  0.14059229  1
  O  O134  1  0.31888907  0.13052901  0.13493376  1
  O  O135  1  0.82812719  0.11856857  0.14049907  1
  O  O136  1  0.24633388  0.37668245  0.14190240  1
  O  O137  1  0.74245415  0.39971202  0.14290299  1
  O  O138  1  0.21050089  0.27847096  0.02315281  1
  O  O139  1  0.71802289  0.28478412  0.02478513  1
  O  O140  1  0.41924590  0.54615050  0.02285010  1
  O  O141  1  0.93016872  0.55106908  0.02891181  1
  O  O142  1  0.35157787  0.13137078  0.02604458  1
  O  O143  1  0.85692750  0.14017488  0.02939947  1
  O  O144  1  0.21447522  0.14645453  0.52166723  1
  O  O145  1  0.71140686  0.13886693  0.52052890  1
  O  O146  1  0.35378446  0.57310272  0.52540864  1
  O  O147  1  0.85154314  0.57181351  0.52477485  1
  O  O148  1  0.43137890  0.31490155  0.52467965  1
  O  O149  1  0.92120760  0.29664750  0.52185149  1
  O  O150  1  0.26310377  0.67689365  0.97409673  1
  O  O151  1  0.77098074  0.68690482  0.97301488  1
  O  O152  1  0.07853936  0.46526117  0.97205189  1
  O  O153  1  0.57759587  0.46386539  0.97034506  1
  O  O154  1  0.15799022  0.82791391  0.97859867  1
  O  O155  1  0.66002859  0.83033435  0.97920336  1
  O  O156  1  0.27059274  0.85392292  0.47167432  1
  O  O157  1  0.76668669  0.85019900  0.47133045  1
  O  O158  1  0.15752194  0.49018199  0.47625528  1
  O  O159  1  0.65889157  0.49038939  0.47635171  1
  O  O160  1  0.07865698  0.68971067  0.46939948  1
  O  O161  1  0.57860037  0.69102433  0.47062739  1
  O  O162  1  0.06922538  0.65412913  0.35750435  1
  O  O163  1  0.55352386  0.63964791  0.35988332  1
  O  O164  1  0.25562750  0.87262146  0.36065922  1
  O  O165  1  0.76351080  0.88017020  0.35887575  1
  O  O166  1  0.17678879  0.50749558  0.35378810  1
  O  O167  1  0.68244663  0.48841322  0.35295713  1
  O  O168  1  0.05372115  0.46918691  0.86127803  1
  O  O169  1  0.56765069  0.48274174  0.85900746  1
  O  O170  1  0.18112051  0.87287385  0.85456985  1
  O  O171  1  0.68077493  0.84999954  0.85699108  1
  O  O172  1  0.26165036  0.64616715  0.86171674  1
  O  O173  1  0.75415019  0.64136994  0.86146647  1
  O  O174  1  0.01362626  0.82237022  0.41238416  1
  O  O175  1  0.50599648  0.81544478  0.41787605  1
  O  O176  1  0.39658941  0.96366923  0.41022755  1
  O  O177  1  0.89798532  0.96310812  0.41572735  1
  O  O178  1  0.07987321  0.19721294  0.41681949  1
  O  O179  1  0.57914587  0.19230931  0.41972386  1
  O  O180  1  0.00502482  0.19700129  0.91891733  1
  O  O181  1  0.51236428  0.20293326  0.91273165  1
  O  O182  1  0.07901195  0.96591829  0.92030092  1
  O  O183  1  0.58252644  0.96836284  0.91884876  1
  O  O184  1  0.39462333  0.83246030  0.92052395  1
  O  O185  1  0.89635431  0.82928973  0.91102921  1
  O  O186  1  0.49062987  0.17425798  0.58501807  1
  O  O187  1  0.98427570  0.15031929  0.59244619  1
  O  O188  1  0.08514859  0.00597028  0.59424639  1
  O  O189  1  0.58583008  0.01355166  0.59376746  1
  O  O190  1  0.40989992  0.82383952  0.59013510  1
  O  O191  1  0.90797197  0.80840972  0.59589631  1
  O  O192  1  0.48476145  0.81814350  0.09371154  1
  O  O193  1  0.98844804  0.80817605  0.08928433  1
  O  O194  1  0.40919502  0.00898770  0.09727143  1
  O  O195  1  0.91412041  0.00160500  0.09381351  1
  O  O196  1  0.08447803  0.16068507  0.09684293  1
  O  O197  1  0.58452962  0.16510758  0.09309418  1
  O  O198  1  0.35042433  0.15581420  0.74641970  1
  O  O199  1  0.84585253  0.15999982  0.74592000  1
  O  O200  1  0.24142212  0.31800399  0.74635352  1
  O  O201  1  0.74990550  0.31781423  0.73452774  1
  O  O202  1  0.41837176  0.50235526  0.74040484  1
  O  O203  1  0.91781708  0.52530995  0.73960624  1
  O  O204  1  0.34384504  0.53118778  0.24774547  1
  O  O205  1  0.85657003  0.54712538  0.24611536  1
  O  O206  1  0.41712200  0.30909147  0.24027024  1
  O  O207  1  0.92669256  0.32252175  0.24049051  1
  O  O208  1  0.24904570  0.17646026  0.23477658  1
  O  O209  1  0.74643160  0.16866708  0.24558268  1
  O  O210  1  0.32338870  0.51569619  0.92119634  1
  O  O211  1  0.82454577  0.51618453  0.91802602  1
  O  O212  1  0.43881830  0.36899986  0.91766032  1
  O  O213  1  0.93423889  0.36891039  0.92753649  1
  O  O214  1  0.25566432  0.14832099  0.92228477  1
  O  O215  1  0.75598686  0.13991168  0.91650793  1
  O  O216  1  0.32501748  0.13398615  0.41775460  1
  O  O217  1  0.82571441  0.13415553  0.41875994  1
  O  O218  1  0.25430100  0.37109630  0.41548325  1
  O  O219  1  0.75589421  0.36285959  0.42186981  1
  O  O220  1  0.43369149  0.50176451  0.42569042  1
  O  O221  1  0.93995029  0.50957925  0.41547315  1
  O  O222  1  0.17529519  0.51855470  0.07470268  1
  O  O223  1  0.67457292  0.51840764  0.06975384  1
  O  O224  1  0.07232605  0.66057645  0.07968445  1
  O  O225  1  0.57479976  0.65702523  0.08118232  1
  O  O226  1  0.25551106  0.86223253  0.08155849  1
  O  O227  1  0.76004531  0.86222168  0.07995563  1
  O  O228  1  0.17575263  0.83469426  0.57049437  1
  O  O229  1  0.67589447  0.83254863  0.57327844  1
  O  O230  1  0.25568256  0.65572596  0.57542555  1
  O  O231  1  0.75431227  0.64683345  0.58003170  1
  O  O232  1  0.07574833  0.49219662  0.58126981  1
  O  O233  1  0.57392331  0.48908000  0.57582527  1
  O  O234  1  0.15774440  0.81560785  0.25770295  1
  O  O235  1  0.65641055  0.81790101  0.25210525  1
  O  O236  1  0.26303628  0.68453193  0.25433457  1
  O  O237  1  0.77409252  0.69771264  0.24644211  1
  O  O238  1  0.08134759  0.46379126  0.25176519  1
  O  O239  1  0.57251246  0.45287624  0.24656053  1
  O  O240  1  0.15461079  0.49467296  0.75240259  1
  O  O241  1  0.66198426  0.49960169  0.75832151  1
  O  O242  1  0.07310931  0.69451632  0.74636071  1
  O  O243  1  0.58938158  0.69034520  0.75699405  1
  O  O244  1  0.27331349  0.84197519  0.74666601  1
  O  O245  1  0.76582278  0.84576577  0.75327154  1
