# generated using pymatgen
data_Na2TaGaSi2SO12
_symmetry_space_group_name_H-M   'P 1'
_cell_length_a   8.85040139
_cell_length_b   8.85040111
_cell_length_c   22.54865705
_cell_angle_alpha   88.49939822
_cell_angle_beta   91.50060184
_cell_angle_gamma   119.41685934
_symmetry_Int_Tables_number   1
_chemical_formula_structural   Na2TaGaSi2SO12
_chemical_formula_sum   'Na12 Ta6 Ga6 Si12 S6 O72'
_cell_volume   1537.79873516
_cell_formula_units_Z   6
loop_
 _symmetry_equiv_pos_site_id
 _symmetry_equiv_pos_as_xyz
  1  'x, y, z'
loop_
 _atom_site_type_symbol
 _atom_site_label
 _atom_site_symmetry_multiplicity
 _atom_site_fract_x
 _atom_site_fract_y
 _atom_site_fract_z
 _atom_site_occupancy
  Na  Na0  1  0.98650401  0.62391049  0.24979141  1
  Na  Na1  1  0.37608951  0.01349599  0.74979141  1
  Na  Na2  1  0.65317101  0.95724349  0.58312441  1
  Na  Na3  1  0.04275651  0.34682899  0.08312441  1
  Na  Na4  1  0.31983701  0.29057749  0.91645841  1
  Na  Na5  1  0.70942251  0.68016299  0.41645841  1
  Na  Na6  1  0.00785412  0.99441430  0.49529760  1
  Na  Na7  1  0.00558570  0.99214588  0.99529760  1
  Na  Na8  1  0.67452112  0.32774730  0.82863060  1
  Na  Na9  1  0.67225270  0.32547888  0.32863060  1
  Na  Na10  1  0.34118712  0.66108130  0.16196460  1
  Na  Na11  1  0.33891870  0.65881288  0.66196460  1
  Ta  Ta12  1  0.99779240  0.99945749  0.64561088  1
  Ta  Ta13  1  0.00054251  0.00220760  0.14561088  1
  Ta  Ta14  1  0.66445940  0.33279049  0.97894388  1
  Ta  Ta15  1  0.66720951  0.33554060  0.47894388  1
  Ta  Ta16  1  0.33112540  0.66612449  0.31227788  1
  Ta  Ta17  1  0.33387551  0.66887460  0.81227788  1
  Ga  Ga18  1  0.96681905  0.98396663  0.35236949  1
  Ga  Ga19  1  0.01603337  0.03318095  0.85236949  1
  Ga  Ga20  1  0.63348605  0.31729963  0.68570249  1
  Ga  Ga21  1  0.68270037  0.36651395  0.18570249  1
  Ga  Ga22  1  0.30015205  0.65063363  0.01903649  1
  Ga  Ga23  1  0.34936637  0.69984795  0.51903649  1
  Si  Si24  1  0.70633953  0.70808964  0.25087584  1
  Si  Si25  1  0.99047218  0.28191958  0.25085887  1
  Si  Si26  1  0.29191036  0.29366047  0.75087584  1
  Si  Si27  1  0.71808042  0.00952782  0.75085887  1
  Si  Si28  1  0.37300653  0.04142264  0.58420884  1
  Si  Si29  1  0.65713918  0.61525258  0.58419187  1
  Si  Si30  1  0.95857736  0.62699347  0.08420884  1
  Si  Si31  1  0.38474742  0.34286082  0.08419187  1
  Si  Si32  1  0.03967253  0.37475664  0.91754284  1
  Si  Si33  1  0.32380518  0.94858658  0.91752587  1
  Si  Si34  1  0.62524336  0.96032747  0.41754284  1
  Si  Si35  1  0.05141342  0.67619482  0.41752587  1
  S  S36  1  0.29342773  0.00773036  0.25175942  1
  S  S37  1  0.99226964  0.70657227  0.75175942  1
  S  S38  1  0.96009473  0.34106336  0.58509242  1
  S  S39  1  0.65893664  0.03990527  0.08509242  1
  S  S40  1  0.62676073  0.67439736  0.91842642  1
  S  S41  1  0.32560264  0.37323927  0.41842642  1
  O  O42  1  0.21354964  0.02859286  0.30389237  1
  O  O43  1  0.82959091  0.78313179  0.30922804  1
  O  O44  1  0.97874897  0.16903131  0.30892272  1
  O  O45  1  0.21686821  0.17040909  0.80922804  1
  O  O46  1  0.97140714  0.78645036  0.80389237  1
  O  O47  1  0.83096869  0.02125103  0.80892272  1
  O  O48  1  0.80063472  0.97062767  0.69073730  1
  O  O49  1  0.16319006  0.19159194  0.69316785  1
  O  O50  1  0.03072373  0.82349129  0.69690141  1
  O  O51  1  0.80840806  0.83680994  0.19316785  1
  O  O52  1  0.02937233  0.19936528  0.19073730  1
  O  O53  1  0.17650871  0.96927627  0.19690141  1
  O  O54  1  0.88021664  0.36192586  0.63722537  1
  O  O55  1  0.49625791  0.11646479  0.64256104  1
  O  O56  1  0.64541597  0.50236431  0.64225572  1
  O  O57  1  0.88353521  0.50374209  0.14256104  1
  O  O58  1  0.63807414  0.11978336  0.13722537  1
  O  O59  1  0.49763569  0.35458403  0.14225572  1
  O  O60  1  0.46730172  0.30396067  0.02407030  1
  O  O61  1  0.82985706  0.52492494  0.02650085  1
  O  O62  1  0.69739073  0.15682429  0.03023441  1
  O  O63  1  0.47507506  0.17014294  0.52650085  1
  O  O64  1  0.69603933  0.53269828  0.52407030  1
  O  O65  1  0.84317571  0.30260927  0.53023441  1
  O  O66  1  0.54688264  0.69525986  0.97055937  1
  O  O67  1  0.16292391  0.44979879  0.97589504  1
  O  O68  1  0.31208197  0.83569831  0.97558972  1
  O  O69  1  0.55020121  0.83707609  0.47589504  1
  O  O70  1  0.30474014  0.45311736  0.47055937  1
  O  O71  1  0.16430169  0.68791803  0.47558972  1
  O  O72  1  0.13396772  0.63729467  0.35740430  1
  O  O73  1  0.49652306  0.85825894  0.35983485  1
  O  O74  1  0.36405673  0.49015829  0.36356841  1
  O  O75  1  0.14174106  0.50347694  0.85983485  1
  O  O76  1  0.36270533  0.86603228  0.85740430  1
  O  O77  1  0.50984171  0.63594327  0.86356841  1
  O  O78  1  0.02473647  0.84492099  0.40886613  1
  O  O79  1  0.81537306  0.97684746  0.41221604  1
  O  O80  1  0.18213665  0.20038787  0.40925491  1
  O  O81  1  0.02315254  0.18462694  0.91221604  1
  O  O82  1  0.15507901  0.97526353  0.90886613  1
  O  O83  1  0.79961213  0.81786335  0.90925491  1
  O  O84  1  0.96617263  0.17062385  0.58840810  1
  O  O85  1  0.18106135  0.02622110  0.59085989  1
  O  O86  1  0.83127482  0.81614540  0.59098175  1
  O  O87  1  0.97377890  0.81893865  0.09085989  1
  O  O88  1  0.82937615  0.03382737  0.08840810  1
  O  O89  1  0.18385460  0.16872518  0.09098175  1
  O  O90  1  0.69140347  0.17825399  0.74219913  1
  O  O91  1  0.48204006  0.31018046  0.74554904  1
  O  O92  1  0.84880365  0.53372087  0.74258791  1
  O  O93  1  0.68981954  0.51795994  0.24554904  1
  O  O94  1  0.82174601  0.30859653  0.24219913  1
  O  O95  1  0.46627913  0.15119635  0.24258791  1
  O  O96  1  0.63283963  0.50395685  0.92174110  1
  O  O97  1  0.84772835  0.35955410  0.92419289  1
  O  O98  1  0.49794182  0.14947840  0.92431475  1
  O  O99  1  0.64044590  0.15227165  0.42419289  1
  O  O100  1  0.49604315  0.36716037  0.42174110  1
  O  O101  1  0.85052160  0.50205818  0.42431475  1
  O  O102  1  0.35806947  0.51158799  0.07553313  1
  O  O103  1  0.14870606  0.64351446  0.07888304  1
  O  O104  1  0.51546965  0.86705487  0.07592191  1
  O  O105  1  0.35648554  0.85129394  0.57888304  1
  O  O106  1  0.48841201  0.64193053  0.57553313  1
  O  O107  1  0.13294513  0.48453035  0.57592191  1
  O  O108  1  0.29950563  0.83729085  0.25507510  1
  O  O109  1  0.51439435  0.69288810  0.25752689  1
  O  O110  1  0.16460782  0.48281240  0.25764875  1
  O  O111  1  0.30711190  0.48560565  0.75752689  1
  O  O112  1  0.16270915  0.70049437  0.75507510  1
  O  O113  1  0.51718760  0.83539218  0.75764875  1
