# generated using pymatgen
data_Na6Zn6SiSn2S11O48
_symmetry_space_group_name_H-M   'P 1'
_cell_length_a   17.56737862
_cell_length_b   8.80356758
_cell_length_c   22.70318899
_cell_angle_alpha   89.92737089
_cell_angle_beta   89.88527912
_cell_angle_gamma   119.97919369
_symmetry_Int_Tables_number   1
_chemical_formula_structural   Na6Zn6SiSn2S11O48
_chemical_formula_sum   'Na18 Zn18 Si3 Sn6 S33 O144'
_cell_volume   3041.38791331
_cell_formula_units_Z   3
loop_
 _symmetry_equiv_pos_site_id
 _symmetry_equiv_pos_as_xyz
  1  'x, y, z'
loop_
 _atom_site_type_symbol
 _atom_site_label
 _atom_site_symmetry_multiplicity
 _atom_site_fract_x
 _atom_site_fract_y
 _atom_site_fract_z
 _atom_site_occupancy
  Na  Na0  1  0.68671476  0.36539977  0.24465264  1
  Na  Na1  1  0.99579954  0.63342354  0.25324734  1
  Na  Na2  1  0.33428040  0.96411858  0.58923250  1
  Na  Na3  1  0.83515018  0.96546104  0.58910821  1
  Na  Na4  1  0.33388809  0.69970685  0.08187339  1
  Na  Na5  1  0.34660287  0.66520279  0.41458493  1
  Na  Na6  1  0.00541815  0.99889149  0.49720219  1
  Na  Na7  1  0.50859743  0.01215280  0.50060060  1
  Na  Na8  1  0.99830550  0.99838298  0.99893040  1
  Na  Na9  1  0.50703857  0.01224646  0.00196623  1
  Na  Na10  1  0.33457063  0.32527081  0.83661815  1
  Na  Na11  1  0.83408385  0.32538814  0.83682204  1
  Na  Na12  1  0.32989116  0.32348094  0.33042801  1
  Na  Na13  1  0.83646174  0.33691651  0.33393737  1
  Na  Na14  1  0.16765476  0.66943219  0.16613617  1
  Na  Na15  1  0.66958721  0.67417394  0.16022459  1
  Na  Na16  1  0.16754972  0.66786414  0.67348115  1
  Na  Na17  1  0.66853259  0.66874258  0.67397325  1
  Zn  Zn18  1  0.99754137  0.98915378  0.34987581  1
  Zn  Zn19  1  0.49849204  0.00261306  0.34741199  1
  Zn  Zn20  1  0.99735992  0.99854107  0.65538298  1
  Zn  Zn21  1  0.49786160  0.99877129  0.65593316  1
  Zn  Zn22  1  0.50266502  0.00461453  0.14835800  1
  Zn  Zn23  1  0.33476266  0.33446393  0.18138276  1
  Zn  Zn24  1  0.83346644  0.33917257  0.18068419  1
  Zn  Zn25  1  0.33576394  0.33087193  0.98276755  1
  Zn  Zn26  1  0.83194209  0.33260204  0.98353335  1
  Zn  Zn27  1  0.32928608  0.32287440  0.48271605  1
  Zn  Zn28  1  0.83643200  0.33989529  0.48059531  1
  Zn  Zn29  1  0.16228550  0.66982192  0.01292448  1
  Zn  Zn30  1  0.66662324  0.66456544  0.01539565  1
  Zn  Zn31  1  0.16024283  0.65733438  0.51368264  1
  Zn  Zn32  1  0.66479466  0.66035565  0.51693665  1
  Zn  Zn33  1  0.16896794  0.66558753  0.31814548  1
  Zn  Zn34  1  0.17420711  0.68041046  0.81530452  1
  Zn  Zn35  1  0.67507488  0.68125487  0.81578739  1
  Si  Si36  1  0.85339843  0.70434036  0.25177014  1
  Si  Si37  1  0.35001994  0.99198065  0.74663576  1
  Si  Si38  1  0.84968295  0.99251514  0.74653360  1
  Sn  Sn39  1  0.99636690  0.00272894  0.85045906  1
  Sn  Sn40  1  0.49736623  0.00352088  0.85083733  1
  Sn  Sn41  1  0.99487085  0.99614085  0.14984383  1
  Sn  Sn42  1  0.33424627  0.32934763  0.68703878  1
  Sn  Sn43  1  0.83436202  0.32980523  0.68662397  1
  Sn  Sn44  1  0.66985653  0.67305192  0.31627253  1
  S  S45  1  0.14950333  0.00500787  0.25048735  1
  S  S46  1  0.64421282  0.99688020  0.25076572  1
  S  S47  1  0.35197739  0.70353452  0.25023175  1
  S  S48  1  0.00159434  0.29443070  0.25112891  1
  S  S49  1  0.49699738  0.29157969  0.25126349  1
  S  S50  1  0.14593477  0.29428680  0.74878373  1
  S  S51  1  0.64613352  0.29480903  0.74865381  1
  S  S52  1  0.00121575  0.70797121  0.74872394  1
  S  S53  1  0.50124330  0.70794777  0.74878131  1
  S  S54  1  0.48196081  0.33818277  0.58085456  1
  S  S55  1  0.98214259  0.33752904  0.58117864  1
  S  S56  1  0.18389295  0.03848814  0.58213363  1
  S  S57  1  0.68481367  0.04070560  0.58110583  1
  S  S58  1  0.33370583  0.62394937  0.58105737  1
  S  S59  1  0.83341915  0.62274672  0.58185955  1
  S  S60  1  0.48060420  0.62549492  0.08366207  1
  S  S61  1  0.98256013  0.62970407  0.08334921  1
  S  S62  1  0.33271086  0.03954993  0.08367433  1
  S  S63  1  0.83288890  0.04227246  0.08325554  1
  S  S64  1  0.18544410  0.33034430  0.08391667  1
  S  S65  1  0.68467556  0.33301005  0.08349357  1
  S  S66  1  0.31354863  0.66306052  0.91810326  1
  S  S67  1  0.81308326  0.66350218  0.91737985  1
  S  S68  1  0.02134645  0.37722321  0.91613644  1
  S  S69  1  0.52164725  0.37757442  0.91598111  1
  S  S70  1  0.16620937  0.96354089  0.91595190  1
  S  S71  1  0.66591187  0.96064020  0.91641732  1
  S  S72  1  0.31400639  0.96250293  0.41756743  1
  S  S73  1  0.81439032  0.96425625  0.41986240  1
  S  S74  1  0.16582489  0.37004986  0.41691575  1
  S  S75  1  0.66556706  0.36919711  0.41757173  1
  S  S76  1  0.01939054  0.66671287  0.41632426  1
  S  S77  1  0.52022253  0.66704923  0.41754563  1
  O  O78  1  0.10981039  0.03398388  0.30285905  1
  O  O79  1  0.60585282  0.02834302  0.30440136  1
  O  O80  1  0.40482009  0.78307559  0.30497436  1
  O  O81  1  0.91617159  0.78758427  0.30757937  1
  O  O82  1  0.48616882  0.18996630  0.30531092  1
  O  O83  1  0.98985332  0.18802734  0.30311527  1
  O  O84  1  0.11064634  0.18042491  0.80316536  1
  O  O85  1  0.61090739  0.18077694  0.80300035  1
  O  O86  1  0.48503361  0.78487627  0.80347173  1
  O  O87  1  0.98542094  0.78513709  0.80361102  1
  O  O88  1  0.41432027  0.03850910  0.80540413  1
  O  O89  1  0.91409192  0.04021617  0.80534148  1
  O  O90  1  0.39051756  0.97093468  0.68505901  1
  O  O91  1  0.89048423  0.97105327  0.68522004  1
  O  O92  1  0.09610116  0.21164316  0.69556130  1
  O  O93  1  0.59614986  0.21214488  0.69541708  1
  O  O94  1  0.01523920  0.81358532  0.69593453  1
  O  O95  1  0.51503107  0.81298802  0.69579053  1
  O  O96  1  0.39377888  0.81331277  0.19665025  1
  O  O97  1  0.89062896  0.82209703  0.19132248  1
  O  O98  1  0.01941186  0.22118898  0.19570919  1
  O  O99  1  0.51752946  0.21806203  0.19874827  1
  O  O100  1  0.09189661  0.96902532  0.19590919  1
  O  O101  1  0.59161287  0.96814153  0.19772809  1
  O  O102  1  0.44202949  0.36764378  0.63607312  1
  O  O103  1  0.94221334  0.36781381  0.63641941  1
  O  O104  1  0.24297003  0.11983085  0.63589627  1
  O  O105  1  0.74255128  0.11973970  0.63565782  1
  O  O106  1  0.31971458  0.51338820  0.63584924  1
  O  O107  1  0.81868790  0.51507925  0.63769843  1
  O  O108  1  0.44110567  0.52043890  0.13741899  1
  O  O109  1  0.94501750  0.53191738  0.13931057  1
  O  O110  1  0.31929707  0.11771732  0.13711937  1
  O  O111  1  0.82295343  0.12218271  0.13803263  1
  O  O112  1  0.23896496  0.36004382  0.13742816  1
  O  O113  1  0.73521435  0.35745644  0.13923656  1
  O  O114  1  0.22344332  0.30015616  0.03075325  1
  O  O115  1  0.72772156  0.30686105  0.03149585  1
  O  O116  1  0.42326353  0.54593764  0.03115041  1
  O  O117  1  0.92715466  0.54949185  0.03170490  1
  O  O118  1  0.34580602  0.14495867  0.03002053  1
  O  O119  1  0.84737450  0.14896794  0.03014468  1
  O  O120  1  0.22478367  0.14727992  0.52979227  1
  O  O121  1  0.72657894  0.14958039  0.52917625  1
  O  O122  1  0.34476192  0.54144185  0.52789109  1
  O  O123  1  0.84358755  0.53691306  0.53028017  1
  O  O124  1  0.42399305  0.30647435  0.52991205  1
  O  O125  1  0.92348039  0.30375835  0.53058132  1
  O  O126  1  0.27669262  0.69470916  0.97298236  1
  O  O127  1  0.77555612  0.69692299  0.97034200  1
  O  O128  1  0.07381811  0.45153711  0.97018054  1
  O  O129  1  0.57319745  0.45244303  0.96988585  1
  O  O130  1  0.14956758  0.85775728  0.97008424  1
  O  O131  1  0.64998717  0.85498856  0.97001631  1
  O  O132  1  0.27582047  0.85430208  0.47207799  1
  O  O133  1  0.77234496  0.85417135  0.47241832  1
  O  O134  1  0.15400134  0.45015802  0.47089543  1
  O  O135  1  0.65213692  0.45512249  0.46853734  1
  O  O136  1  0.07365270  0.69022773  0.46918700  1
  O  O137  1  0.57491487  0.69398637  0.46906950  1
  O  O138  1  0.05883899  0.64174362  0.36121077  1
  O  O139  1  0.55987529  0.63715923  0.36216703  1
  O  O140  1  0.26001329  0.87980830  0.36480923  1
  O  O141  1  0.75769004  0.88311669  0.36503483  1
  O  O142  1  0.18357786  0.48428357  0.36433606  1
  O  O143  1  0.67923918  0.47589043  0.36090649  1
  O  O144  1  0.06235282  0.47929626  0.86273576  1
  O  O145  1  0.56238292  0.47876259  0.86224370  1
  O  O146  1  0.17724195  0.88196350  0.86286124  1
  O  O147  1  0.67677493  0.88161597  0.86270959  1
  O  O148  1  0.26125813  0.64128646  0.86552029  1
  O  O149  1  0.76284318  0.64033596  0.86356319  1
  O  O150  1  0.01226536  0.82783124  0.41339392  1
  O  O151  1  0.50982828  0.82442869  0.41042418  1
  O  O152  1  0.40225495  0.97361368  0.41176439  1
  O  O153  1  0.90109001  0.97959484  0.41248577  1
  O  O154  1  0.08744211  0.19401177  0.41032696  1
  O  O155  1  0.58576916  0.19474166  0.41066540  1
  O  O156  1  0.01408502  0.19522469  0.91287686  1
  O  O157  1  0.51395419  0.19496914  0.91294227  1
  O  O158  1  0.08283632  0.97956323  0.91031306  1
  O  O159  1  0.58261176  0.97838293  0.91082875  1
  O  O160  1  0.40486570  0.82718429  0.91326223  1
  O  O161  1  0.90532860  0.82772772  0.91286466  1
  O  O162  1  0.48914151  0.17781805  0.58686805  1
  O  O163  1  0.98940911  0.17721586  0.58753614  1
  O  O164  1  0.09693706  0.02076646  0.59081593  1
  O  O165  1  0.59722561  0.02177034  0.58982915  1
  O  O166  1  0.41346694  0.79990473  0.58620160  1
  O  O167  1  0.91293159  0.79938874  0.58675832  1
  O  O168  1  0.48653801  0.80174371  0.08913779  1
  O  O169  1  0.99249133  0.81224969  0.08770219  1
  O  O170  1  0.41169455  0.01611303  0.08891810  1
  O  O171  1  0.91726446  0.02952678  0.08657162  1
  O  O172  1  0.09475750  0.16910420  0.09031135  1
  O  O173  1  0.59634099  0.17311447  0.08856892  1
  O  O174  1  0.34393758  0.17762010  0.74565000  1
  O  O175  1  0.84355042  0.17810878  0.74543824  1
  O  O176  1  0.23733456  0.31663474  0.74453630  1
  O  O177  1  0.73734024  0.31670170  0.74431273  1
  O  O178  1  0.41577924  0.53336940  0.74427091  1
  O  O179  1  0.91606262  0.53364726  0.74434534  1
  O  O180  1  0.34359578  0.52813681  0.24476131  1
  O  O181  1  0.84008292  0.50620941  0.24420131  1
  O  O182  1  0.42042279  0.31386076  0.24472195  1
  O  O183  1  0.92174156  0.31077943  0.24346823  1
  O  O184  1  0.23714304  0.15889842  0.24188508  1
  O  O185  1  0.73374902  0.15147046  0.24514707  1
  O  O186  1  0.32483942  0.50816591  0.92372654  1
  O  O187  1  0.82536408  0.50904839  0.92344236  1
  O  O188  1  0.43133182  0.35084728  0.92121069  1
  O  O189  1  0.93147995  0.35140747  0.92220820  1
  O  O190  1  0.24340537  0.14094324  0.92211851  1
  O  O191  1  0.74338871  0.14012127  0.92218928  1
  O  O192  1  0.32488475  0.13982148  0.42276607  1
  O  O193  1  0.82035038  0.13727326  0.42303032  1
  O  O194  1  0.24866014  0.35883246  0.42203223  1
  O  O195  1  0.74564674  0.35582393  0.42137618  1
  O  O196  1  0.43128426  0.50990077  0.42112782  1
  O  O197  1  0.93131797  0.50680696  0.42146342  1
  O  O198  1  0.17657733  0.49053448  0.07805010  1
  O  O199  1  0.67642706  0.49252851  0.07762444  1
  O  O200  1  0.07141070  0.65034132  0.07763227  1
  O  O201  1  0.56935873  0.64681018  0.07682490  1
  O  O202  1  0.25424407  0.85750972  0.07814735  1
  O  O203  1  0.75623607  0.86367575  0.07819306  1
  O  O204  1  0.18025179  0.86603928  0.57772812  1
  O  O205  1  0.68007411  0.86663719  0.57732559  1
  O  O206  1  0.25471684  0.64512493  0.57824853  1
  O  O207  1  0.75429319  0.64485765  0.57888407  1
  O  O208  1  0.06913231  0.49615782  0.57686945  1
  O  O209  1  0.56900099  0.49681532  0.57637684  1
  O  O210  1  0.15331507  0.83902706  0.25483455  1
  O  O211  1  0.65113042  0.83320491  0.25708425  1
  O  O212  1  0.26389937  0.68878028  0.25579420  1
  O  O213  1  0.75181911  0.67654424  0.25565790  1
  O  O214  1  0.07928969  0.47573765  0.25472745  1
  O  O215  1  0.58052544  0.47176096  0.25729746  1
  O  O216  1  0.15254419  0.46408931  0.75682476  1
  O  O217  1  0.65252879  0.46424477  0.75665052  1
  O  O218  1  0.07475030  0.67807783  0.75638956  1
  O  O219  1  0.57453217  0.67771138  0.75642039  1
  O  O220  1  0.25401952  0.82301400  0.75412879  1
  O  O221  1  0.75389196  0.82363567  0.75408081  1
