# generated using pymatgen
data_Na5Sc2Al2P5SO24
_symmetry_space_group_name_H-M   'P 1'
_cell_length_a   8.76679495
_cell_length_b   8.75951833
_cell_length_c   22.04359392
_cell_angle_alpha   90.24170831
_cell_angle_beta   89.82774029
_cell_angle_gamma   119.92003093
_symmetry_Int_Tables_number   1
_chemical_formula_structural   Na5Sc2Al2P5SO24
_chemical_formula_sum   'Na15 Sc6 Al6 P15 S3 O72'
_cell_volume   1467.16652190
_cell_formula_units_Z   3
loop_
 _symmetry_equiv_pos_site_id
 _symmetry_equiv_pos_as_xyz
  1  'x, y, z'
loop_
 _atom_site_type_symbol
 _atom_site_label
 _atom_site_symmetry_multiplicity
 _atom_site_fract_x
 _atom_site_fract_y
 _atom_site_fract_z
 _atom_site_occupancy
  Na  Na0  1  0.63856600  0.00022764  0.25039594  1
  Na  Na1  1  0.99724110  0.35784100  0.75005329  1
  Na  Na2  1  0.36008831  0.99864807  0.75008556  1
  Na  Na3  1  0.03469517  0.70031231  0.58090100  1
  Na  Na4  1  0.66488269  0.96560377  0.58245043  1
  Na  Na5  1  0.30620620  0.97697861  0.08339637  1
  Na  Na6  1  0.02583354  0.33351119  0.08514608  1
  Na  Na7  1  0.96993837  0.66513533  0.91785320  1
  Na  Na8  1  0.69764088  0.67082433  0.41720754  1
  Na  Na9  1  0.02329083  0.02258271  0.49440303  1
  Na  Na10  1  0.99429609  0.00622869  0.00356427  1
  Na  Na11  1  0.65289161  0.32417359  0.83603648  1
  Na  Na12  1  0.68321423  0.34092823  0.33164502  1
  Na  Na13  1  0.33728100  0.64630816  0.16996720  1
  Na  Na14  1  0.34770579  0.64782219  0.66465592  1
  Sc  Sc15  1  0.00447220  0.01094202  0.85638348  1
  Sc  Sc16  1  0.00467921  0.00411932  0.64418257  1
  Sc  Sc17  1  0.66641974  0.34058069  0.68382418  1
  Sc  Sc18  1  0.66365925  0.32627344  0.98661530  1
  Sc  Sc19  1  0.32970411  0.66706904  0.51216774  1
  Sc  Sc20  1  0.33657381  0.66882087  0.81575243  1
  Al  Al21  1  0.98614766  0.99083344  0.34765963  1
  Al  Al22  1  0.99137250  0.99950379  0.15159126  1
  Al  Al23  1  0.67825885  0.35140181  0.18407496  1
  Al  Al24  1  0.67511972  0.32772303  0.47832483  1
  Al  Al25  1  0.33315344  0.66717533  0.02359428  1
  Al  Al26  1  0.32455382  0.65925840  0.31467326  1
  P  P27  1  0.70659642  0.70475574  0.25054473  1
  P  P28  1  0.00254785  0.29196527  0.24982399  1
  P  P29  1  0.29623173  0.29564634  0.75050876  1
  P  P30  1  0.99652543  0.70396615  0.75186743  1
  P  P31  1  0.70469357  0.99718833  0.74766564  1
  P  P32  1  0.95904830  0.33447911  0.57984466  1
  P  P33  1  0.38098332  0.05014852  0.57812726  1
  P  P34  1  0.66329711  0.61891211  0.57554563  1
  P  P35  1  0.96197919  0.63536351  0.08569233  1
  P  P36  1  0.66646728  0.03468744  0.08937485  1
  P  P37  1  0.37282867  0.33462415  0.08888515  1
  P  P38  1  0.04625585  0.37782080  0.92245978  1
  P  P39  1  0.33583137  0.95803987  0.92165370  1
  P  P40  1  0.63018016  0.96698084  0.41120568  1
  P  P41  1  0.03679859  0.66946379  0.41259107  1
  S  S42  1  0.28482669  0.99910728  0.25071678  1
  S  S43  1  0.62019908  0.66650491  0.92240424  1
  S  S44  1  0.32734465  0.36432509  0.41101363  1
  O  O45  1  0.19380714  0.01920521  0.30367733  1
  O  O46  1  0.81530135  0.78499073  0.30918617  1
  O  O47  1  0.96493137  0.16166713  0.30266138  1
  O  O48  1  0.20793203  0.18364832  0.80708820  1
  O  O49  1  0.98467947  0.79389128  0.81022604  1
  O  O50  1  0.82285297  0.02064966  0.80223487  1
  O  O51  1  0.78635552  0.98196273  0.68749334  1
  O  O52  1  0.18254703  0.20713492  0.69405894  1
  O  O53  1  0.01820530  0.81276673  0.69410967  1
  O  O54  1  0.79925972  0.83612481  0.19790079  1
  O  O55  1  0.03106430  0.20987577  0.19125591  1
  O  O56  1  0.18333360  0.97679383  0.19416150  1
  O  O57  1  0.88397456  0.35853280  0.64057712  1
  O  O58  1  0.47822082  0.12114877  0.63913879  1
  O  O59  1  0.64668017  0.51838110  0.63409523  1
  O  O60  1  0.86884522  0.49925344  0.13689650  1
  O  O61  1  0.62823337  0.12321473  0.14471292  1
  O  O62  1  0.49510364  0.36246975  0.14295529  1
  O  O63  1  0.44564566  0.28991439  0.03201247  1
  O  O64  1  0.85914544  0.56698236  0.02600811  1
  O  O65  1  0.71085753  0.15731154  0.03400202  1
  O  O66  1  0.48248757  0.16520784  0.52405713  1
  O  O67  1  0.68224885  0.52592667  0.51849488  1
  O  O68  1  0.83945515  0.31595152  0.52607783  1
  O  O69  1  0.52627734  0.67847547  0.97605144  1
  O  O70  1  0.15811213  0.47780353  0.97866217  1
  O  O71  1  0.32243022  0.84219640  0.97690189  1
  O  O72  1  0.55540808  0.84896911  0.46845231  1
  O  O73  1  0.29543041  0.43589774  0.46755556  1
  O  O74  1  0.13695136  0.70010303  0.47316739  1
  O  O75  1  0.13783063  0.64074109  0.36062894  1
  O  O76  1  0.50829793  0.86879269  0.35627345  1
  O  O77  1  0.36197900  0.48960115  0.36013569  1
  O  O78  1  0.12925823  0.47851248  0.86277516  1
  O  O79  1  0.34990579  0.87594287  0.86106577  1
  O  O80  1  0.52731869  0.65139434  0.86519384  1
  O  O81  1  0.01408411  0.83411317  0.40350438  1
  O  O82  1  0.81574620  0.98461352  0.40333310  1
  O  O83  1  0.17266987  0.18807056  0.40116630  1
  O  O84  1  0.02325573  0.19254337  0.92120825  1
  O  O85  1  0.16160592  0.96419781  0.92128769  1
  O  O86  1  0.79820310  0.82566341  0.92109533  1
  O  O87  1  0.97087492  0.16500881  0.58098453  1
  O  O88  1  0.19300304  0.02246246  0.58025784  1
  O  O89  1  0.83337941  0.80369947  0.57876135  1
  O  O90  1  0.99110265  0.82211144  0.09841358  1
  O  O91  1  0.83213625  0.01647945  0.09732457  1
  O  O92  1  0.18436677  0.16863667  0.09707547  1
  O  O93  1  0.68470641  0.16367083  0.74731701  1
  O  O94  1  0.47704676  0.30940383  0.74702939  1
  O  O95  1  0.83728010  0.51674529  0.74962729  1
  O  O96  1  0.68937730  0.52167897  0.24038059  1
  O  O97  1  0.83147270  0.30733246  0.24223563  1
  O  O98  1  0.46537406  0.15672790  0.24730740  1
  O  O99  1  0.64345139  0.51003585  0.92461991  1
  O  O100  1  0.86434893  0.36730536  0.92480427  1
  O  O101  1  0.49698095  0.14320319  0.92462707  1
  O  O102  1  0.64677477  0.14987229  0.42011996  1
  O  O103  1  0.49082451  0.35248749  0.41655625  1
  O  O104  1  0.84741031  0.50390506  0.41880391  1
  O  O105  1  0.34791781  0.49754750  0.07983528  1
  O  O106  1  0.14991650  0.65342440  0.07973770  1
  O  O107  1  0.49833252  0.85307990  0.07900134  1
  O  O108  1  0.36072657  0.86258017  0.57370659  1
  O  O109  1  0.50470812  0.64889891  0.57287180  1
  O  O110  1  0.14197554  0.50020971  0.57466165  1
  O  O111  1  0.30687796  0.83934921  0.25566045  1
  O  O112  1  0.52021164  0.68940794  0.25794838  1
  O  O113  1  0.16684851  0.47644592  0.25996141  1
  O  O114  1  0.31160801  0.47770502  0.75418050  1
  O  O115  1  0.16467171  0.68559109  0.75281856  1
  O  O116  1  0.51847401  0.83621540  0.75196473  1
