# generated using pymatgen
data_MgFe4(OF)4
_symmetry_space_group_name_H-M   'P 1'
_cell_length_a   5.85914646
_cell_length_b   5.40981597
_cell_length_c   5.42221729
_cell_angle_alpha   105.73625860
_cell_angle_beta   69.81517038
_cell_angle_gamma   73.64358439
_symmetry_Int_Tables_number   1
_chemical_formula_structural   MgFe4(OF)4
_chemical_formula_sum   'Mg1 Fe4 O4 F4'
_cell_volume   141.24268018
_cell_formula_units_Z   1
loop_
 _symmetry_equiv_pos_site_id
 _symmetry_equiv_pos_as_xyz
  1  'x, y, z'
loop_
 _atom_site_type_symbol
 _atom_site_label
 _atom_site_symmetry_multiplicity
 _atom_site_fract_x
 _atom_site_fract_y
 _atom_site_fract_z
 _atom_site_occupancy
  Mg  Mg0  1  0.74703844  0.43317227  0.69282736  1
  Fe  Fe1  1  0.25761751  0.94143882  0.12438931  1
  Fe  Fe2  1  0.77596081  0.71666721  0.30845680  1
  Fe  Fe3  1  0.24188587  0.38701019  0.68103649  1
  Fe  Fe4  1  0.73347776  0.08030360  0.98028986  1
  O  O5  1  0.59904054  0.84698071  0.78546239  1
  O  O6  1  0.90897266  0.36263881  0.95468137  1
  O  O7  1  0.02337751  0.80330129  0.97597398  1
  O  O8  1  0.48269875  0.00719065  0.32781132  1
  F  F9  1  0.44592631  0.39486407  0.95199708  1
  F  F10  1  0.05806883  0.42028358  0.39065431  1
  F  F11  1  0.55752018  0.46341094  0.44876943  1
  F  F12  1  0.93602383  0.00100686  0.49044630  1
