# generated using pymatgen
data_Na6Ga4Si3(SO8)3
_symmetry_space_group_name_H-M   'P 1'
_cell_length_a   8.91032345
_cell_length_b   8.81086398
_cell_length_c   21.97968391
_cell_angle_alpha   90.54847768
_cell_angle_beta   89.79583956
_cell_angle_gamma   120.30084614
_symmetry_Int_Tables_number   1
_chemical_formula_structural   Na6Ga4Si3(SO8)3
_chemical_formula_sum   'Na18 Ga12 Si9 S9 O72'
_cell_volume   1489.76957527
_cell_formula_units_Z   3
loop_
 _symmetry_equiv_pos_site_id
 _symmetry_equiv_pos_as_xyz
  1  'x, y, z'
loop_
 _atom_site_type_symbol
 _atom_site_label
 _atom_site_symmetry_multiplicity
 _atom_site_fract_x
 _atom_site_fract_y
 _atom_site_fract_z
 _atom_site_occupancy
  Na  Na0  1  0.63087510  0.00309593  0.25594417  1
  Na  Na1  1  0.35716276  0.35895853  0.25268158  1
  Na  Na2  1  0.64063476  0.64031982  0.74244784  1
  Na  Na3  1  0.99134731  0.36686517  0.74737356  1
  Na  Na4  1  0.02491336  0.69226257  0.58789390  1
  Na  Na5  1  0.67340345  0.96598865  0.58265723  1
  Na  Na6  1  0.30601181  0.96818329  0.09043146  1
  Na  Na7  1  0.02910928  0.32737463  0.08294305  1
  Na  Na8  1  0.96925618  0.66344933  0.90691249  1
  Na  Na9  1  0.71071357  0.03981818  0.91198484  1
  Na  Na10  1  0.95810605  0.29168789  0.41945364  1
  Na  Na11  1  0.34057431  0.03229857  0.41508219  1
  Na  Na12  1  0.98502707  0.99528187  0.50364766  1
  Na  Na13  1  0.99623287  0.00756846  0.99880232  1
  Na  Na14  1  0.66283882  0.32634326  0.82657053  1
  Na  Na15  1  0.67379282  0.33664287  0.33485424  1
  Na  Na16  1  0.33037707  0.67054136  0.17042440  1
  Na  Na17  1  0.33300945  0.66622227  0.66511940  1
  Ga  Ga18  1  0.98972284  0.00619635  0.34861081  1
  Ga  Ga19  1  0.99543608  0.01921825  0.84166194  1
  Ga  Ga20  1  0.97206985  0.98253028  0.64777035  1
  Ga  Ga21  1  0.99325986  0.00853837  0.15554945  1
  Ga  Ga22  1  0.69406969  0.35087929  0.68404815  1
  Ga  Ga23  1  0.66134186  0.30517571  0.18948035  1
  Ga  Ga24  1  0.68623511  0.32708735  0.98280113  1
  Ga  Ga25  1  0.67834389  0.32352142  0.48983051  1
  Ga  Ga26  1  0.34350084  0.66416221  0.01493514  1
  Ga  Ga27  1  0.35452258  0.65675004  0.52342396  1
  Ga  Ga28  1  0.31912174  0.68387700  0.31346466  1
  Ga  Ga29  1  0.31525489  0.67241809  0.80844295  1
  Si  Si30  1  0.27890385  0.99670222  0.24881626  1
  Si  Si31  1  0.00533518  0.30488655  0.25073554  1
  Si  Si32  1  0.00325532  0.72116960  0.75026962  1
  Si  Si33  1  0.69364393  0.99954213  0.75031569  1
  Si  Si34  1  0.97350076  0.33432806  0.58281351  1
  Si  Si35  1  0.66299952  0.61199841  0.58400058  1
  Si  Si36  1  0.66517240  0.02661552  0.08259572  1
  Si  Si37  1  0.05171237  0.37591759  0.91711890  1
  Si  Si38  1  0.62450411  0.95326309  0.41711951  1
  S  S39  1  0.71080679  0.70437356  0.24905343  1
  S  S40  1  0.29152231  0.28695415  0.74997775  1
  S  S41  1  0.37460317  0.04630237  0.58321831  1
  S  S42  1  0.95202590  0.62498512  0.08358758  1
  S  S43  1  0.38572747  0.33841736  0.08247280  1
  S  S44  1  0.62344234  0.65802240  0.91783866  1
  S  S45  1  0.33444619  0.96376423  0.91882007  1
  S  S46  1  0.33731313  0.37716673  0.41502002  1
  S  S47  1  0.03833697  0.66840109  0.41691192  1
  O  O48  1  0.19287975  0.03101411  0.30954928  1
  O  O49  1  0.81788235  0.78159840  0.30394088  1
  O  O50  1  0.95476302  0.17185190  0.30817487  1
  O  O51  1  0.21556530  0.18479706  0.80732095  1
  O  O52  1  0.97302543  0.80786775  0.81361656  1
  O  O53  1  0.81944139  0.04996743  0.81153105  1
  O  O54  1  0.77824033  0.95464916  0.69227156  1
  O  O55  1  0.17793819  0.20765642  0.69726495  1
  O  O56  1  0.03467357  0.83803330  0.69019657  1
  O  O57  1  0.78695775  0.81855418  0.19449087  1
  O  O58  1  0.04691145  0.22560708  0.18866766  1
  O  O59  1  0.16593979  0.96825834  0.18627626  1
  O  O60  1  0.89092127  0.37948275  0.64219068  1
  O  O61  1  0.49062994  0.12959644  0.63554924  1
  O  O62  1  0.63113498  0.49958898  0.64599101  1
  O  O63  1  0.86518994  0.51100206  0.13593861  1
  O  O64  1  0.61828958  0.11212361  0.14100367  1
  O  O65  1  0.48572542  0.36320440  0.13887511  1
  O  O66  1  0.47231247  0.31411689  0.02827330  1
  O  O67  1  0.85063935  0.54857366  0.02578228  1
  O  O68  1  0.70732480  0.15427429  0.02301774  1
  O  O69  1  0.45019521  0.14549989  0.52499919  1
  O  O70  1  0.69806848  0.52278364  0.52407052  1
  O  O71  1  0.84603474  0.28237368  0.52243526  1
  O  O72  1  0.54594361  0.69704036  0.97233134  1
  O  O73  1  0.15951212  0.46453561  0.98098874  1
  O  O74  1  0.30524486  0.85406057  0.97466720  1
  O  O75  1  0.52830569  0.83898691  0.47716347  1
  O  O76  1  0.30047645  0.45607940  0.46877781  1
  O  O77  1  0.14650175  0.69808461  0.47104268  1
  O  O78  1  0.11621315  0.63059408  0.36196194  1
  O  O79  1  0.50272526  0.87028703  0.35540549  1
  O  O80  1  0.35849242  0.47904096  0.35928112  1
  O  O81  1  0.14015994  0.50738680  0.85975316  1
  O  O82  1  0.37263540  0.88476358  0.86554570  1
  O  O83  1  0.52148198  0.63400073  0.86294364  1
  O  O84  1  0.02854377  0.83055401  0.40902215  1
  O  O85  1  0.82261689  0.98138240  0.41064157  1
  O  O86  1  0.17586914  0.19628216  0.41212489  1
  O  O87  1  0.01983119  0.17499044  0.91142176  1
  O  O88  1  0.17739208  0.97592271  0.91308862  1
  O  O89  1  0.80132252  0.81617066  0.91578504  1
  O  O90  1  0.98640947  0.15779702  0.59185056  1
  O  O91  1  0.20130384  0.02654255  0.58775046  1
  O  O92  1  0.84207499  0.80806503  0.58562254  1
  O  O93  1  0.97840151  0.80410839  0.08712937  1
  O  O94  1  0.84525070  0.01892857  0.09129537  1
  O  O95  1  0.20895424  0.17611111  0.08395797  1
  O  O96  1  0.67927076  0.17523621  0.74167382  1
  O  O97  1  0.46529996  0.30851101  0.74614483  1
  O  O98  1  0.82415592  0.52541020  0.74920720  1
  O  O99  1  0.68789380  0.52771941  0.24059103  1
  O  O100  1  0.82956467  0.31880745  0.24366487  1
  O  O101  1  0.47428364  0.17999722  0.24520464  1
  O  O102  1  0.64061808  0.49951873  0.92618981  1
  O  O103  1  0.85394842  0.36006594  0.92152556  1
  O  O104  1  0.49403864  0.14173170  0.92516679  1
  O  O105  1  0.64240394  0.15372636  0.42193419  1
  O  O106  1  0.48928089  0.35457930  0.42099058  1
  O  O107  1  0.86377942  0.50878892  0.42006212  1
  O  O108  1  0.35905490  0.49220628  0.07863278  1
  O  O109  1  0.12766637  0.63978875  0.07947045  1
  O  O110  1  0.48045666  0.83769191  0.07348456  1
  O  O111  1  0.35423519  0.86683737  0.57804830  1
  O  O112  1  0.50209285  0.65214903  0.58195657  1
  O  O113  1  0.15494998  0.52084278  0.57169732  1
  O  O114  1  0.31934508  0.83540423  0.25174164  1
  O  O115  1  0.53604247  0.68635021  0.25449166  1
  O  O116  1  0.18915640  0.48979943  0.25984064  1
  O  O117  1  0.31016419  0.46642270  0.75673949  1
  O  O118  1  0.16429243  0.68097013  0.75258724  1
  O  O119  1  0.51284087  0.81248647  0.76204350  1
