# generated using pymatgen
data_Na2Ca2(SO4)3
_symmetry_space_group_name_H-M   'P 1'
_cell_length_a   9.33345464
_cell_length_b   9.33345431
_cell_length_c   24.10290368
_cell_angle_alpha   89.83238223
_cell_angle_beta   90.16761778
_cell_angle_gamma   120.55438092
_symmetry_Int_Tables_number   1
_chemical_formula_structural   Na2Ca2(SO4)3
_chemical_formula_sum   'Na12 Ca12 S18 O72'
_cell_volume   1808.12748761
_cell_formula_units_Z   6
loop_
 _symmetry_equiv_pos_site_id
 _symmetry_equiv_pos_as_xyz
  1  'x, y, z'
loop_
 _atom_site_type_symbol
 _atom_site_label
 _atom_site_symmetry_multiplicity
 _atom_site_fract_x
 _atom_site_fract_y
 _atom_site_fract_z
 _atom_site_occupancy
  Na  Na0  1  0.36285872  0.36285872  0.25000000  1
  Na  Na1  1  0.63714128  0.63714128  0.75000000  1
  Na  Na2  1  0.02952572  0.69619172  0.58333300  1
  Na  Na3  1  0.30380828  0.97047428  0.08333300  1
  Na  Na4  1  0.69619172  0.02952572  0.91666700  1
  Na  Na5  1  0.97047428  0.30380828  0.41666700  1
  Na  Na6  1  -0.00000000  -0.00000000  0.50000000  1
  Na  Na7  1  -0.00000000  -0.00000000  0.00000000  1
  Na  Na8  1  0.66666700  0.33333300  0.83333300  1
  Na  Na9  1  0.66666700  0.33333300  0.33333300  1
  Na  Na10  1  0.33333300  0.66666700  0.16666700  1
  Na  Na11  1  0.33333300  0.66666700  0.66666700  1
  Ca  Ca12  1  0.99585295  0.98644658  0.34910083  1
  Ca  Ca13  1  0.01355342  0.00414705  0.84910083  1
  Ca  Ca14  1  0.00414705  0.01355342  0.65089917  1
  Ca  Ca15  1  0.98644658  0.99585295  0.15089917  1
  Ca  Ca16  1  0.66251995  0.31977958  0.68243383  1
  Ca  Ca17  1  0.68022042  0.33748005  0.18243383  1
  Ca  Ca18  1  0.67081405  0.34688642  0.98423217  1
  Ca  Ca19  1  0.65311358  0.32918595  0.48423217  1
  Ca  Ca20  1  0.32918595  0.65311358  0.01576783  1
  Ca  Ca21  1  0.34688642  0.67081405  0.51576783  1
  Ca  Ca22  1  0.33748005  0.68022042  0.31756617  1
  Ca  Ca23  1  0.31977958  0.66251995  0.81756617  1
  S  S24  1  0.29895148  0.00310016  0.24768714  1
  S  S25  1  0.69414452  0.69414452  0.25000000  1
  S  S26  1  0.00310016  0.29895148  0.25231286  1
  S  S27  1  0.30585548  0.30585548  0.75000000  1
  S  S28  1  0.99689984  0.70104852  0.74768714  1
  S  S29  1  0.70104852  0.99689984  0.75231286  1
  S  S30  1  0.96561848  0.33643316  0.58102014  1
  S  S31  1  0.36081152  0.02747752  0.58333300  1
  S  S32  1  0.66976716  0.63228448  0.58564586  1
  S  S33  1  0.97252248  0.63918848  0.08333300  1
  S  S34  1  0.66356684  0.03438152  0.08102014  1
  S  S35  1  0.36771552  0.33023284  0.08564586  1
  S  S36  1  0.63228448  0.66976716  0.91435414  1
  S  S37  1  0.02747752  0.36081152  0.91666700  1
  S  S38  1  0.33643316  0.96561848  0.91897986  1
  S  S39  1  0.63918848  0.97252248  0.41666700  1
  S  S40  1  0.33023284  0.36771552  0.41435414  1
  S  S41  1  0.03438152  0.66356684  0.41897986  1
  O  O42  1  0.21295164  0.02191820  0.29642487  1
  O  O43  1  0.79206651  0.77542517  0.30018319  1
  O  O44  1  0.98489131  0.20433595  0.30413849  1
  O  O45  1  0.22457483  0.20793349  0.80018319  1
  O  O46  1  0.97808180  0.78704836  0.79642487  1
  O  O47  1  0.79566405  0.01510869  0.80413849  1
  O  O48  1  0.78704836  0.97808180  0.70357513  1
  O  O49  1  0.20793349  0.22457483  0.69981681  1
  O  O50  1  0.01510869  0.79566405  0.69586151  1
  O  O51  1  0.77542517  0.79206651  0.19981681  1
  O  O52  1  0.02191820  0.21295164  0.20357513  1
  O  O53  1  0.20433595  0.98489131  0.19586151  1
  O  O54  1  0.87961864  0.35525120  0.62975787  1
  O  O55  1  0.45873351  0.10875817  0.63351619  1
  O  O56  1  0.65155831  0.53766895  0.63747149  1
  O  O57  1  0.89124183  0.54126649  0.13351619  1
  O  O58  1  0.64474880  0.12038136  0.12975787  1
  O  O59  1  0.46233105  0.34844169  0.13747149  1
  O  O60  1  0.45371536  0.31141480  0.03690813  1
  O  O61  1  0.87460049  0.55790783  0.03314981  1
  O  O62  1  0.68177569  0.12899705  0.02919451  1
  O  O63  1  0.44209217  0.12539951  0.53314981  1
  O  O64  1  0.68858520  0.54628464  0.53690813  1
  O  O65  1  0.87100295  0.31822431  0.52919451  1
  O  O66  1  0.54628464  0.68858520  0.96309187  1
  O  O67  1  0.12539951  0.44209217  0.96685019  1
  O  O68  1  0.31822431  0.87100295  0.97080549  1
  O  O69  1  0.55790783  0.87460049  0.46685019  1
  O  O70  1  0.31141480  0.45371536  0.46309187  1
  O  O71  1  0.12899705  0.68177569  0.47080549  1
  O  O72  1  0.12038136  0.64474880  0.37024213  1
  O  O73  1  0.54126649  0.89124183  0.36648381  1
  O  O74  1  0.34844169  0.46233105  0.36252851  1
  O  O75  1  0.10875817  0.45873351  0.86648381  1
  O  O76  1  0.35525120  0.87961864  0.87024213  1
  O  O77  1  0.53766895  0.65155831  0.86252851  1
  O  O78  1  0.01354330  0.80998456  0.41351775  1
  O  O79  1  0.81061914  0.99600750  0.41334606  1
  O  O80  1  0.17228028  0.20134551  0.41179434  1
  O  O81  1  0.00399250  0.18938086  0.91334606  1
  O  O82  1  0.19001544  0.98645670  0.91351775  1
  O  O83  1  0.79865449  0.82771972  0.91179434  1
  O  O84  1  0.98645670  0.19001544  0.58648225  1
  O  O85  1  0.18938086  0.00399250  0.58665394  1
  O  O86  1  0.82771972  0.79865449  0.58820566  1
  O  O87  1  0.99600750  0.81061914  0.08665394  1
  O  O88  1  0.80998456  0.01354330  0.08648225  1
  O  O89  1  0.20134551  0.17228028  0.08820566  1
  O  O90  1  0.68021030  0.14331756  0.74685075  1
  O  O91  1  0.47728614  0.32934050  0.74667906  1
  O  O92  1  0.83894728  0.53467851  0.74512734  1
  O  O93  1  0.67065950  0.52271386  0.24667906  1
  O  O94  1  0.85668244  0.31978970  0.24685075  1
  O  O95  1  0.46532149  0.16105272  0.24512734  1
  O  O96  1  0.65312370  0.52334844  0.91981525  1
  O  O97  1  0.85604786  0.33732550  0.91998694  1
  O  O98  1  0.49438672  0.13198749  0.92153866  1
  O  O99  1  0.66267450  0.14395214  0.41998694  1
  O  O100  1  0.47665156  0.34687630  0.41981525  1
  O  O101  1  0.86801251  0.50561328  0.42153866  1
  O  O102  1  0.34687630  0.47665156  0.08018475  1
  O  O103  1  0.14395214  0.66267450  0.08001306  1
  O  O104  1  0.50561328  0.86801251  0.07846134  1
  O  O105  1  0.33732550  0.85604786  0.58001306  1
  O  O106  1  0.52334844  0.65312370  0.58018475  1
  O  O107  1  0.13198749  0.49438672  0.57846134  1
  O  O108  1  0.31978970  0.85668244  0.25314925  1
  O  O109  1  0.52271386  0.67065950  0.25332094  1
  O  O110  1  0.16105272  0.46532149  0.25487266  1
  O  O111  1  0.32934050  0.47728614  0.75332094  1
  O  O112  1  0.14331756  0.68021030  0.75314925  1
  O  O113  1  0.53467851  0.83894728  0.75487266  1
