# generated using pymatgen
data_Na8La2Zn2Si3(SO8)3
_symmetry_space_group_name_H-M   'P 1'
_cell_length_a   9.59923009
_cell_length_b   9.65485983
_cell_length_c   23.11500696
_cell_angle_alpha   89.35298437
_cell_angle_beta   88.87331420
_cell_angle_gamma   120.29315223
_symmetry_Int_Tables_number   1
_chemical_formula_structural   Na8La2Zn2Si3(SO8)3
_chemical_formula_sum   'Na24 La6 Zn6 Si9 S9 O72'
_cell_volume   1848.84897304
_cell_formula_units_Z   3
loop_
 _symmetry_equiv_pos_site_id
 _symmetry_equiv_pos_as_xyz
  1  'x, y, z'
loop_
 _atom_site_type_symbol
 _atom_site_label
 _atom_site_symmetry_multiplicity
 _atom_site_fract_x
 _atom_site_fract_y
 _atom_site_fract_z
 _atom_site_occupancy
  Na  Na0  1  0.63896061  0.02910305  0.26109332  1
  Na  Na1  1  0.35383631  0.34182615  0.25254093  1
  Na  Na2  1  0.99677178  0.61979466  0.24178684  1
  Na  Na3  1  0.62427209  0.61439050  0.72977018  1
  Na  Na4  1  0.98364508  0.34682487  0.73266983  1
  Na  Na5  1  0.40249063  0.03731971  0.75002849  1
  Na  Na6  1  0.30480004  0.36040305  0.59334495  1
  Na  Na7  1  0.01956839  0.67558621  0.58350659  1
  Na  Na8  1  0.66502795  0.95127171  0.57987934  1
  Na  Na9  1  0.28589739  0.93632374  0.08260722  1
  Na  Na10  1  0.67123826  0.69322084  0.07956173  1
  Na  Na11  1  0.03725749  0.35480132  0.09664982  1
  Na  Na12  1  0.98238881  0.70443012  0.91587500  1
  Na  Na13  1  0.69117370  0.02143953  0.89790514  1
  Na  Na14  1  0.30634036  0.25797485  0.90033088  1
  Na  Na15  1  0.95188814  0.26591457  0.41712129  1
  Na  Na16  1  0.33507429  0.02742537  0.40755094  1
  Na  Na17  1  0.70771410  0.69533798  0.43088520  1
  Na  Na18  1  0.96863006  0.99613855  0.50055416  1
  Na  Na19  1  0.00768204  0.97934139  0.99140198  1
  Na  Na20  1  0.64486122  0.31315917  0.81628336  1
  Na  Na21  1  0.66306393  0.30205159  0.32738941  1
  Na  Na22  1  0.30368672  0.66348223  0.16789603  1
  Na  Na23  1  0.33873559  0.65090824  0.65832499  1
  La  La24  1  0.99699982  0.00926935  0.65162752  1
  La  La25  1  0.00850591  0.00192956  0.15790327  1
  La  La26  1  0.66264100  0.32934375  0.98782301  1
  La  La27  1  0.67345545  0.33088653  0.49071713  1
  La  La28  1  0.33368687  0.67530920  0.32029470  1
  La  La29  1  0.34267356  0.67574052  0.81798390  1
  Zn  Zn30  1  0.00893136  0.02749357  0.34162222  1
  Zn  Zn31  1  0.01116460  0.02395395  0.82389944  1
  Zn  Zn32  1  0.68037163  0.34877661  0.67652002  1
  Zn  Zn33  1  0.69201574  0.33140437  0.19014010  1
  Zn  Zn34  1  0.26457573  0.66874735  0.01060593  1
  Zn  Zn35  1  0.36700053  0.66738747  0.52272952  1
  Si  Si36  1  0.31347305  0.01530099  0.24994082  1
  Si  Si37  1  0.99751405  0.30603010  0.24910901  1
  Si  Si38  1  0.31758207  0.30543850  0.74920218  1
  Si  Si39  1  0.70357060  0.01216286  0.75359153  1
  Si  Si40  1  0.98653218  0.35281260  0.58174926  1
  Si  Si41  1  0.66582525  0.63350477  0.58291101  1
  Si  Si42  1  0.96409445  0.62784755  0.08497041  1
  Si  Si43  1  0.32510738  0.97251512  0.91913085  1
  Si  Si44  1  0.64313583  0.96487173  0.41644893  1
  S  S45  1  0.69763857  0.68561741  0.25137399  1
  S  S46  1  0.98955220  0.69511490  0.75440992  1
  S  S47  1  0.36482876  0.01806308  0.58536647  1
  S  S48  1  0.65785948  0.01893647  0.08584250  1
  S  S49  1  0.36326446  0.34783020  0.08492714  1
  S  S50  1  0.63790359  0.67343763  0.92274767  1
  S  S51  1  0.03659629  0.35767059  0.92251964  1
  S  S52  1  0.32544421  0.35545311  0.41763911  1
  S  S53  1  0.02730940  0.67771555  0.41792969  1
  O  O54  1  0.21038101  0.03311915  0.30533438  1
  O  O55  1  0.79935659  0.77796912  0.29953764  1
  O  O56  1  0.97368535  0.18864871  0.30491850  1
  O  O57  1  0.22805782  0.18967900  0.80799473  1
  O  O58  1  0.98163695  0.78493021  0.80548971  1
  O  O59  1  0.81051723  0.01801230  0.81101944  1
  O  O60  1  0.77744637  0.97320017  0.69630007  1
  O  O61  1  0.20369771  0.22380594  0.69393151  1
  O  O62  1  0.01613834  0.78927307  0.70029327  1
  O  O63  1  0.76282802  0.77730021  0.19525446  1
  O  O64  1  0.01860128  0.23071583  0.18825908  1
  O  O65  1  0.21096045  0.97987490  0.19017176  1
  O  O66  1  0.88683738  0.37038716  0.63825677  1
  O  O67  1  0.46458345  0.10981904  0.63405600  1
  O  O68  1  0.64801057  0.51784136  0.63870280  1
  O  O69  1  0.86492838  0.50996402  0.14102717  1
  O  O70  1  0.64389315  0.10590566  0.13551468  1
  O  O71  1  0.45578475  0.35282034  0.13545574  1
  O  O72  1  0.43905386  0.32659972  0.03098150  1
  O  O73  1  0.87193887  0.55397895  0.02404025  1
  O  O74  1  0.67984899  0.11271053  0.03094179  1
  O  O75  1  0.42967732  0.11064411  0.52960266  1
  O  O76  1  0.67990451  0.55542655  0.52192481  1
  O  O77  1  0.87948612  0.31656842  0.52328920  1
  O  O78  1  0.54675918  0.67548884  0.97497471  1
  O  O79  1  0.13460241  0.44833730  0.97324595  1
  O  O80  1  0.31011630  0.86847133  0.97921406  1
  O  O81  1  0.54176222  0.84407676  0.47264043  1
  O  O82  1  0.31382957  0.44434497  0.46739765  1
  O  O83  1  0.12285016  0.68262106  0.46793084  1
  O  O84  1  0.09988584  0.65657011  0.36325727  1
  O  O85  1  0.54437993  0.89247762  0.35649360  1
  O  O86  1  0.34470855  0.44560067  0.36238303  1
  O  O87  1  0.11318122  0.45268480  0.86812217  1
  O  O88  1  0.35783547  0.88996254  0.86316372  1
  O  O89  1  0.54516553  0.65460886  0.87004842  1
  O  O90  1  0.02129991  0.82904129  0.41455592  1
  O  O91  1  0.82455859  0.97987804  0.41300269  1
  O  O92  1  0.17531979  0.19363680  0.41687882  1
  O  O93  1  0.02448109  0.20071349  0.92178933  1
  O  O94  1  0.15859760  0.97939174  0.91591749  1
  O  O95  1  0.79863262  0.82466488  0.91901933  1
  O  O96  1  0.01741400  0.19919357  0.58527210  1
  O  O97  1  0.19572769  0.98606494  0.59047082  1
  O  O98  1  0.82832016  0.81464264  0.58343307  1
  O  O99  1  0.99023152  0.81148301  0.08675738  1
  O  O100  1  0.80446660  0.00043452  0.08811749  1
  O  O101  1  0.19429232  0.20502848  0.08596678  1
  O  O102  1  0.70347095  0.18189359  0.74956552  1
  O  O103  1  0.49598739  0.32013635  0.74284400  1
  O  O104  1  0.83674951  0.53766704  0.75307890  1
  O  O105  1  0.68959178  0.52780833  0.24884686  1
  O  O106  1  0.83338380  0.32123122  0.25029287  1
  O  O107  1  0.49158112  0.18483390  0.24450279  1
  O  O108  1  0.66582117  0.53355414  0.92357381  1
  O  O109  1  0.87141603  0.33765288  0.92540144  1
  O  O110  1  0.48622372  0.15760490  0.92057858  1
  O  O111  1  0.66077797  0.14610627  0.41914273  1
  O  O112  1  0.46888031  0.33296741  0.42017921  1
  O  O113  1  0.85884945  0.53670935  0.42004422  1
  O  O114  1  0.35587424  0.49789622  0.08045351  1
  O  O115  1  0.14479410  0.63849035  0.08410966  1
  O  O116  1  0.51130794  0.85656558  0.08366148  1
  O  O117  1  0.35932829  0.86137086  0.58270758  1
  O  O118  1  0.50187092  0.64992259  0.58486892  1
  O  O119  1  0.16373327  0.52311571  0.57600848  1
  O  O120  1  0.34267772  0.86046322  0.25478466  1
  O  O121  1  0.52881001  0.65547148  0.25669936  1
  O  O122  1  0.15906385  0.48824898  0.25136197  1
  O  O123  1  0.33687942  0.48574246  0.75415851  1
  O  O124  1  0.12753601  0.66474253  0.75821926  1
  O  O125  1  0.51545929  0.86215714  0.75593016  1
