# generated using pymatgen
data_Na3Y2Ge2P5SO24
_symmetry_space_group_name_H-M   'P 1'
_cell_length_a   8.82716620
_cell_length_b   8.80585219
_cell_length_c   22.47073580
_cell_angle_alpha   90.25712898
_cell_angle_beta   90.08406054
_cell_angle_gamma   119.38694004
_symmetry_Int_Tables_number   1
_chemical_formula_structural   Na3Y2Ge2P5SO24
_chemical_formula_sum   'Na9 Y6 Ge6 P15 S3 O72'
_cell_volume   1521.88655537
_cell_formula_units_Z   3
loop_
 _symmetry_equiv_pos_site_id
 _symmetry_equiv_pos_as_xyz
  1  'x, y, z'
loop_
 _atom_site_type_symbol
 _atom_site_label
 _atom_site_symmetry_multiplicity
 _atom_site_fract_x
 _atom_site_fract_y
 _atom_site_fract_z
 _atom_site_occupancy
  Na  Na0  1  0.00595801  0.36012158  0.75065799  1
  Na  Na1  1  0.67131231  0.95326431  0.58320075  1
  Na  Na2  1  0.05012932  0.33046605  0.08332999  1
  Na  Na3  1  0.01403024  0.99499165  0.49435946  1
  Na  Na4  1  0.00678427  0.98897121  0.99370583  1
  Na  Na5  1  0.65372359  0.32411950  0.83539245  1
  Na  Na6  1  0.67639063  0.33468919  0.33397250  1
  Na  Na7  1  0.35373317  0.67460136  0.16902413  1
  Na  Na8  1  0.33626447  0.66763261  0.66857153  1
  Y  Y9  1  0.01222990  0.99777272  0.64209292  1
  Y  Y10  1  0.99724006  0.98808995  0.14279958  1
  Y  Y11  1  0.33534275  0.67557125  0.01668496  1
  Y  Y12  1  0.32142712  0.66616896  0.51683936  1
  Y  Y13  1  0.32769843  0.66512269  0.31921825  1
  Y  Y14  1  0.33656830  0.67781255  0.82121009  1
  Ge  Ge15  1  0.96463817  0.98028367  0.34770931  1
  Ge  Ge16  1  0.01576207  0.01372347  0.84580635  1
  Ge  Ge17  1  0.66395224  0.33787669  0.68805802  1
  Ge  Ge18  1  0.67726079  0.34247182  0.18630547  1
  Ge  Ge19  1  0.66233801  0.32226685  0.98185907  1
  Ge  Ge20  1  0.67691120  0.33909105  0.48181423  1
  P  P21  1  0.70439956  0.69050190  0.24853158  1
  P  P22  1  0.98281304  0.28247935  0.24814559  1
  P  P23  1  0.30456991  0.29114898  0.74987219  1
  P  P24  1  0.98322815  0.69926822  0.75178967  1
  P  P25  1  0.71278980  0.01017859  0.74685510  1
  P  P26  1  0.94589156  0.34272413  0.58628616  1
  P  P27  1  0.40208799  0.06771234  0.58140225  1
  P  P28  1  0.65985962  0.60463977  0.58293364  1
  P  P29  1  0.93805525  0.60240389  0.08033435  1
  P  P30  1  0.65894183  0.05603268  0.08550476  1
  P  P31  1  0.39843294  0.33907238  0.08444209  1
  P  P32  1  0.01187305  0.34437120  0.91656518  1
  P  P33  1  0.33222946  0.99059398  0.91677580  1
  P  P34  1  0.64753456  0.98596528  0.41945285  1
  P  P35  1  0.01015373  0.66931248  0.41564876  1
  S  S36  1  0.30359352  0.01689963  0.25190136  1
  S  S37  1  0.65498902  0.66790119  0.91710596  1
  S  S38  1  0.33055922  0.34487781  0.41645709  1
  O  O39  1  0.20976823  0.03160857  0.30520669  1
  O  O40  1  0.81967827  0.77985266  0.30593319  1
  O  O41  1  0.95699506  0.15628641  0.30270446  1
  O  O42  1  0.21710413  0.17333578  0.80595295  1
  O  O43  1  0.96650061  0.79913180  0.80760593  1
  O  O44  1  0.84616979  0.04550030  0.79993351  1
  O  O45  1  0.78299039  0.98522269  0.68818198  1
  O  O46  1  0.18914670  0.21657751  0.69577351  1
  O  O47  1  0.01481621  0.79989504  0.69513128  1
  O  O48  1  0.78752226  0.79821908  0.19421198  1
  O  O49  1  0.01247728  0.21326887  0.18991832  1
  O  O50  1  0.20738518  0.99386121  0.19658246  1
  O  O51  1  0.86064442  0.35739658  0.64602089  1
  O  O52  1  0.50732719  0.15054555  0.64009211  1
  O  O53  1  0.64679863  0.50434202  0.64144203  1
  O  O54  1  0.85955327  0.50050966  0.13955194  1
  O  O55  1  0.64411887  0.14673031  0.14320584  1
  O  O56  1  0.50223592  0.35677751  0.14294922  1
  O  O57  1  0.48813909  0.32714861  0.02695512  1
  O  O58  1  0.83436416  0.50751310  0.02384954  1
  O  O59  1  0.67720588  0.15836296  0.02730995  1
  O  O60  1  0.49395878  0.16620794  0.52413051  1
  O  O61  1  0.67059138  0.51353311  0.52540666  1
  O  O62  1  0.84018926  0.32644926  0.52908642  1
  O  O63  1  0.57330164  0.69732590  0.96997316  1
  O  O64  1  0.12565668  0.42143570  0.97248438  1
  O  O65  1  0.29688113  0.87504842  0.97123203  1
  O  O66  1  0.57878975  0.87817347  0.47638992  1
  O  O67  1  0.30105313  0.42588633  0.46979689  1
  O  O68  1  0.12431777  0.70941729  0.47119385  1
  O  O69  1  0.08723271  0.62632574  0.36209030  1
  O  O70  1  0.52868497  0.89968309  0.36630968  1
  O  O71  1  0.36292386  0.45608666  0.36403735  1
  O  O72  1  0.09221084  0.45974727  0.86196602  1
  O  O73  1  0.37752378  0.91800560  0.86227941  1
  O  O74  1  0.54528157  0.63554735  0.86393095  1
  O  O75  1  0.99612836  0.83924799  0.40458220  1
  O  O76  1  0.83317137  0.00601429  0.40763257  1
  O  O77  1  0.17403244  0.17089876  0.40788606  1
  O  O78  1  0.99196765  0.15873275  0.90494603  1
  O  O79  1  0.16245952  0.00184734  0.90601232  1
  O  O80  1  0.82772763  0.82500878  0.90963432  1
  O  O81  1  0.95553865  0.17339079  0.58459815  1
  O  O82  1  0.22316806  0.05291785  0.57942526  1
  O  O83  1  0.82167639  0.78735505  0.58201673  1
  O  O84  1  0.95421314  0.78220314  0.07860917  1
  O  O85  1  0.82815465  0.04593401  0.08473527  1
  O  O86  1  0.21583107  0.17646546  0.08440820  1
  O  O87  1  0.70353813  0.18562213  0.74552872  1
  O  O88  1  0.48501444  0.30118166  0.74400050  1
  O  O89  1  0.81280019  0.51573705  0.74815218  1
  O  O90  1  0.69648856  0.50836640  0.24476257  1
  O  O91  1  0.81060147  0.29491289  0.24516428  1
  O  O92  1  0.47636523  0.17904789  0.24958653  1
  O  O93  1  0.67473122  0.50993075  0.92424254  1
  O  O94  1  0.82471889  0.32062807  0.92504277  1
  O  O95  1  0.49011879  0.17834053  0.92655252  1
  O  O96  1  0.67632041  0.17575463  0.42599689  1
  O  O97  1  0.48810650  0.32480498  0.42369927  1
  O  O98  1  0.82390862  0.50968806  0.42562527  1
  O  O99  1  0.37325223  0.50074545  0.08269441  1
  O  O100  1  0.11821794  0.61404007  0.07951686  1
  O  O101  1  0.49739526  0.87615026  0.08416823  1
  O  O102  1  0.38760531  0.88527814  0.58136384  1
  O  O103  1  0.49740294  0.62742084  0.58186969  1
  O  O104  1  0.12534986  0.50513095  0.58484174  1
  O  O105  1  0.32924289  0.86315585  0.25619836  1
  O  O106  1  0.52285926  0.66675415  0.25656979  1
  O  O107  1  0.13706387  0.46317089  0.25897933  1
  O  O108  1  0.32362283  0.47188675  0.75985242  1
  O  O109  1  0.13539911  0.66152678  0.75916807  1
  O  O110  1  0.53320508  0.85522239  0.75716588  1
