# generated using pymatgen
data_Na5Mg3GeP3(SO8)3
_symmetry_space_group_name_H-M   'P 1'
_cell_length_a   8.81285963
_cell_length_b   8.78026449
_cell_length_c   22.02200005
_cell_angle_alpha   90.48709538
_cell_angle_beta   89.78107668
_cell_angle_gamma   119.94968754
_symmetry_Int_Tables_number   1
_chemical_formula_structural   Na5Mg3GeP3(SO8)3
_chemical_formula_sum   'Na15 Mg9 Ge3 P9 S9 O72'
_cell_volume   1476.44084872
_cell_formula_units_Z   3
loop_
 _symmetry_equiv_pos_site_id
 _symmetry_equiv_pos_as_xyz
  1  'x, y, z'
loop_
 _atom_site_type_symbol
 _atom_site_label
 _atom_site_symmetry_multiplicity
 _atom_site_fract_x
 _atom_site_fract_y
 _atom_site_fract_z
 _atom_site_occupancy
  Na  Na0  1  -0.00022910  0.63694019  0.25751654  1
  Na  Na1  1  0.29957627  0.33918848  0.58882345  1
  Na  Na2  1  0.03123580  0.69555926  0.58151834  1
  Na  Na3  1  0.67041041  0.96138102  0.57955463  1
  Na  Na4  1  0.66814773  0.69970962  0.08137445  1
  Na  Na5  1  0.03509825  0.33814963  0.08531909  1
  Na  Na6  1  0.97916066  0.67730655  0.91131240  1
  Na  Na7  1  0.32688579  0.29801086  0.90726425  1
  Na  Na8  1  0.69526203  0.67734991  0.41765858  1
  Na  Na9  1  0.00065591  0.00701868  0.49506520  1
  Na  Na10  1  0.00083221  0.99509518  0.99478134  1
  Na  Na11  1  0.65884476  0.32030694  0.82527595  1
  Na  Na12  1  0.65284102  0.29992599  0.33501468  1
  Na  Na13  1  0.33742268  0.68085804  0.17162709  1
  Na  Na14  1  0.33152225  0.65346554  0.66938575  1
  Mg  Mg15  1  0.00123081  0.00546175  0.35429321  1
  Mg  Mg16  1  0.99882788  0.00599027  0.84843806  1
  Mg  Mg17  1  0.00011048  0.00813584  0.65366699  1
  Mg  Mg18  1  0.00496069  0.99359830  0.15099672  1
  Mg  Mg19  1  0.66578848  0.33979095  0.68820253  1
  Mg  Mg20  1  0.66513509  0.33022672  0.18782572  1
  Mg  Mg21  1  0.32894307  0.67028320  0.01642457  1
  Mg  Mg22  1  0.33188364  0.66705512  0.51355589  1
  Mg  Mg23  1  0.33659346  0.67593501  0.32209887  1
  Ge  Ge24  1  0.67229817  0.33600762  0.97657386  1
  Ge  Ge25  1  0.69054160  0.33916160  0.48045894  1
  Ge  Ge26  1  0.33604802  0.66341412  0.81683581  1
  P  P27  1  0.30056749  0.30464513  0.75336303  1
  P  P28  1  0.95840308  0.33343030  0.58510181  1
  P  P29  1  0.66565670  0.62059207  0.58219313  1
  P  P30  1  0.95625106  0.62294269  0.08318679  1
  P  P31  1  0.62544539  0.66666537  0.92029872  1
  P  P32  1  0.03939813  0.37436619  0.91914566  1
  P  P33  1  0.34184028  0.95982432  0.91713935  1
  P  P34  1  0.63030482  0.97070030  0.42002140  1
  P  P35  1  0.03407542  0.66562746  0.41742135  1
  S  S36  1  0.29560890  0.00082732  0.25039268  1
  S  S37  1  0.69890878  0.70435676  0.24904439  1
  S  S38  1  0.00315715  0.29582029  0.24813274  1
  S  S39  1  0.00925097  0.70459525  0.75261314  1
  S  S40  1  0.69433876  0.99182345  0.75135203  1
  S  S41  1  0.37938859  0.04674161  0.58308615  1
  S  S42  1  0.66408314  0.04531637  0.08196345  1
  S  S43  1  0.37551076  0.32840797  0.08145366  1
  S  S44  1  0.33732758  0.36843692  0.41853194  1
  O  O45  1  0.20954818  0.02061476  0.30404461  1
  O  O46  1  0.81206303  0.79163999  0.30208335  1
  O  O47  1  0.98704107  0.18755572  0.29994457  1
  O  O48  1  0.21062645  0.20014868  0.81004464  1
  O  O49  1  0.98938756  0.78964729  0.80782404  1
  O  O50  1  0.80052464  0.00941076  0.80459032  1
  O  O51  1  0.76719497  0.96243318  0.69449273  1
  O  O52  1  0.19224793  0.22847292  0.69436936  1
  O  O53  1  0.03036136  0.80692661  0.69704759  1
  O  O54  1  0.77873743  0.80415651  0.19202160  1
  O  O55  1  0.01763211  0.21535923  0.18970513  1
  O  O56  1  0.18968893  0.97434139  0.19469019  1
  O  O57  1  0.86857112  0.36320653  0.63870582  1
  O  O58  1  0.48701616  0.12429966  0.63714718  1
  O  O59  1  0.63063481  0.50024633  0.63516839  1
  O  O60  1  0.86730660  0.50845573  0.13815362  1
  O  O61  1  0.64249275  0.12769017  0.13566951  1
  O  O62  1  0.48701032  0.35075556  0.13348489  1
  O  O63  1  0.45250365  0.30239249  0.02305361  1
  O  O64  1  0.83140716  0.53209211  0.02348480  1
  O  O65  1  0.69480899  0.15704618  0.02573877  1
  O  O66  1  0.45943859  0.16001983  0.52797276  1
  O  O67  1  0.69900214  0.53464369  0.52164901  1
  O  O68  1  0.83822404  0.29412108  0.52605368  1
  O  O69  1  0.54856349  0.68660718  0.97949690  1
  O  O70  1  0.14336743  0.44877547  0.97764258  1
  O  O71  1  0.30882729  0.84952129  0.97273638  1
  O  O72  1  0.55327247  0.86160389  0.47763178  1
  O  O73  1  0.31592880  0.44545382  0.47541687  1
  O  O74  1  0.13456335  0.68244776  0.47570710  1
  O  O75  1  0.10968604  0.63331961  0.35902201  1
  O  O76  1  0.51766422  0.88775423  0.36384330  1
  O  O77  1  0.36820721  0.48476446  0.36606180  1
  O  O78  1  0.12637906  0.50755971  0.86499568  1
  O  O79  1  0.37583312  0.87382914  0.85931893  1
  O  O80  1  0.49576748  0.62379897  0.86567761  1
  O  O81  1  -0.00148200  0.81984619  0.41228202  1
  O  O82  1  0.81531027  0.99726430  0.41250515  1
  O  O83  1  0.18603973  0.19346132  0.41132508  1
  O  O84  1  0.01453491  0.19155174  0.90965942  1
  O  O85  1  0.18424147  0.98791716  0.90926814  1
  O  O86  1  0.81197323  0.81661565  0.91028522  1
  O  O87  1  0.97573728  0.16641015  0.58760959  1
  O  O88  1  0.20138630  0.02671235  0.58807555  1
  O  O89  1  0.83518285  0.80212684  0.58669981  1
  O  O90  1  0.96530194  0.80334415  0.08456497  1
  O  O91  1  0.82690268  0.03004208  0.08460211  1
  O  O92  1  0.19608738  0.17609064  0.08541489  1
  O  O93  1  0.67129866  0.14581261  0.74687830  1
  O  O94  1  0.48578903  0.33384186  0.74884024  1
  O  O95  1  0.85797307  0.52615116  0.74889790  1
  O  O96  1  0.68819954  0.52872238  0.24473769  1
  O  O97  1  0.84489721  0.31767489  0.24629627  1
  O  O98  1  0.47165604  0.15703019  0.24462727  1
  O  O99  1  0.63609608  0.48698755  0.92202539  1
  O  O100  1  0.85425445  0.36552340  0.92231466  1
  O  O101  1  0.51111462  0.15185064  0.92299061  1
  O  O102  1  0.63910221  0.15651556  0.42629534  1
  O  O103  1  0.50436794  0.35759650  0.42238931  1
  O  O104  1  0.84082652  0.49348549  0.42152211  1
  O  O105  1  0.36254143  0.49195429  0.07849509  1
  O  O106  1  0.13525448  0.63600559  0.07671130  1
  O  O107  1  0.51142083  0.86621527  0.07663046  1
  O  O108  1  0.35811319  0.86822815  0.57644672  1
  O  O109  1  0.50522747  0.64498843  0.57498391  1
  O  O110  1  0.14132153  0.49775687  0.57705125  1
  O  O111  1  0.31030475  0.83784658  0.25402492  1
  O  O112  1  0.52271859  0.68275653  0.25466103  1
  O  O113  1  0.16055489  0.47570701  0.25197529  1
  O  O114  1  0.31120364  0.49456088  0.76042967  1
  O  O115  1  0.17743174  0.69556196  0.75762958  1
  O  O116  1  0.51467505  0.82565157  0.75752430  1
