# generated using pymatgen
data_Na9CaNb5(SiO4)9
_symmetry_space_group_name_H-M   'P 1'
_cell_length_a   9.17084433
_cell_length_b   27.45477767
_cell_length_c   22.56216262
_cell_angle_alpha   89.97408819
_cell_angle_beta   89.97952911
_cell_angle_gamma   120.08290655
_symmetry_Int_Tables_number   1
_chemical_formula_structural   Na9CaNb5(SiO4)9
_chemical_formula_sum   'Na54 Ca6 Nb30 Si54 O216'
_cell_volume   4915.58308324
_cell_formula_units_Z   6
loop_
 _symmetry_equiv_pos_site_id
 _symmetry_equiv_pos_as_xyz
  1  'x, y, z'
loop_
 _atom_site_type_symbol
 _atom_site_label
 _atom_site_symmetry_multiplicity
 _atom_site_fract_x
 _atom_site_fract_y
 _atom_site_fract_z
 _atom_site_occupancy
  Na  Na0  1  0.00177440  0.00112611  0.49463034  1
  Na  Na1  1  0.99052594  0.33018800  0.49774461  1
  Na  Na2  1  0.00379064  0.66849952  0.50464507  1
  Na  Na3  1  0.98773225  0.99682020  0.99824551  1
  Na  Na4  1  0.99929051  0.32985391  0.99840788  1
  Na  Na5  1  0.01221024  0.66840206  0.00801295  1
  Na  Na6  1  0.66607026  0.11042997  0.83151226  1
  Na  Na7  1  0.66844415  0.44176267  0.83580103  1
  Na  Na8  1  0.66639527  0.78604218  0.83425820  1
  Na  Na9  1  0.66432344  0.10992764  0.33001050  1
  Na  Na10  1  0.65888245  0.44269273  0.33621654  1
  Na  Na11  1  0.68052100  0.78184504  0.33485177  1
  Na  Na12  1  0.34123004  0.22455566  0.16856752  1
  Na  Na13  1  0.34003266  0.55352824  0.16901370  1
  Na  Na14  1  0.33410586  0.88909178  0.16688382  1
  Na  Na15  1  0.33321227  0.22497238  0.66869625  1
  Na  Na16  1  0.32214231  0.55346950  0.66632981  1
  Na  Na17  1  0.34358487  0.88805705  0.66925813  1
  Na  Na18  1  0.62403164  0.00492060  0.24517559  1
  Na  Na19  1  0.64537886  0.66467171  0.24852415  1
  Na  Na20  1  0.38671203  0.12294031  0.24458186  1
  Na  Na21  1  0.35427359  0.78745868  0.24703314  1
  Na  Na22  1  0.98206973  0.20296709  0.24427976  1
  Na  Na23  1  0.00656883  0.54889749  0.24637957  1
  Na  Na24  1  0.62809177  0.20351270  0.74433273  1
  Na  Na25  1  0.63860924  0.54820669  0.74472218  1
  Na  Na26  1  0.98190620  0.12357828  0.74603020  1
  Na  Na27  1  0.00829929  0.78832406  0.74702311  1
  Na  Na28  1  0.39123402  0.00518394  0.74572234  1
  Na  Na29  1  0.34923214  0.66428145  0.74694143  1
  Na  Na30  1  0.31845341  0.11274449  0.58509887  1
  Na  Na31  1  0.31470157  0.44227547  0.57848644  1
  Na  Na32  1  0.27538077  0.77223345  0.58818937  1
  Na  Na33  1  0.02179503  0.22719551  0.58739046  1
  Na  Na34  1  0.02401698  0.57273563  0.58676682  1
  Na  Na35  1  0.02908754  0.90021181  0.58060836  1
  Na  Na36  1  0.67296745  0.32747069  0.57774559  1
  Na  Na37  1  0.68522134  0.65546825  0.59099895  1
  Na  Na38  1  0.65886833  0.99212975  0.58569699  1
  Na  Na39  1  0.30885932  0.32699387  0.07832516  1
  Na  Na40  1  0.28401364  0.65630492  0.09300567  1
  Na  Na41  1  0.31342114  0.99135786  0.08615606  1
  Na  Na42  1  0.65917350  0.22653545  0.08767213  1
  Na  Na43  1  0.69383200  0.57292394  0.08864870  1
  Na  Na44  1  0.02123555  0.11224618  0.08691091  1
  Na  Na45  1  0.01009110  0.44170906  0.07972956  1
  Na  Na46  1  0.04448356  0.77362675  0.08860054  1
  Na  Na47  1  0.94112304  0.54911372  0.92481968  1
  Na  Na48  1  0.70165508  0.34966272  0.92221753  1
  Na  Na49  1  0.70413033  0.68049424  0.91851889  1
  Na  Na50  1  0.34899567  0.43117596  0.92151637  1
  Na  Na51  1  0.94679910  0.43230808  0.42130532  1
  Na  Na52  1  0.34814345  0.35021160  0.42180856  1
  Na  Na53  1  0.70913016  0.55010550  0.42323968  1
  Ca  Ca54  1  0.00393946  0.66819325  0.65153290  1
  Ca  Ca55  1  0.00221579  0.66861658  0.15212847  1
  Ca  Ca56  1  0.66834094  0.11131396  0.68397733  1
  Ca  Ca57  1  0.66537134  0.11106609  0.18373141  1
  Ca  Ca58  1  0.65763267  0.44014118  0.98186963  1
  Ca  Ca59  1  0.66441378  0.44067686  0.48141667  1
  Nb  Nb60  1  0.99601003  0.99741035  0.35765517  1
  Nb  Nb61  1  0.00063344  0.33409958  0.35510412  1
  Nb  Nb62  1  0.00428819  0.66857573  0.35359653  1
  Nb  Nb63  1  0.99800182  0.99787513  0.85854735  1
  Nb  Nb64  1  0.00079245  0.33375502  0.85536256  1
  Nb  Nb65  1  0.00534211  0.66871082  0.85290294  1
  Nb  Nb66  1  0.99666296  0.99992929  0.64679814  1
  Nb  Nb67  1  0.00114501  0.33256410  0.65041753  1
  Nb  Nb68  1  0.99689941  0.99831885  0.14573238  1
  Nb  Nb69  1  0.99646786  0.33252430  0.15055886  1
  Nb  Nb70  1  0.66423799  0.44309046  0.68621606  1
  Nb  Nb71  1  0.66768768  0.77928794  0.68815903  1
  Nb  Nb72  1  0.66502223  0.44328231  0.18645597  1
  Nb  Nb73  1  0.66969088  0.77967330  0.18808891  1
  Nb  Nb74  1  0.66779820  0.11072430  0.97918788  1
  Nb  Nb75  1  0.67119099  0.78262689  0.97653985  1
  Nb  Nb76  1  0.66533988  0.11125564  0.47849736  1
  Nb  Nb77  1  0.66977023  0.77952925  0.47433530  1
  Nb  Nb78  1  0.33017300  0.22227146  0.01598428  1
  Nb  Nb79  1  0.33195433  0.55586675  0.02184740  1
  Nb  Nb80  1  0.33796858  0.88794758  0.01946612  1
  Nb  Nb81  1  0.33725350  0.22249630  0.51584007  1
  Nb  Nb82  1  0.33441258  0.55616777  0.52065132  1
  Nb  Nb83  1  0.32843963  0.88770212  0.51779777  1
  Nb  Nb84  1  0.33120643  0.22007390  0.31138599  1
  Nb  Nb85  1  0.33601899  0.55536431  0.31402410  1
  Nb  Nb86  1  0.33117957  0.89121090  0.31410167  1
  Nb  Nb87  1  0.32940788  0.22031205  0.81160960  1
  Nb  Nb88  1  0.32909595  0.55436028  0.81335241  1
  Nb  Nb89  1  0.34225189  0.89153710  0.81454547  1
  Si  Si90  1  0.28192878  0.99718409  0.25207880  1
  Si  Si91  1  0.29156273  0.33324791  0.25133952  1
  Si  Si92  1  0.30034636  0.66697591  0.24929601  1
  Si  Si93  1  0.70439612  0.23690427  0.25323692  1
  Si  Si94  1  0.70400769  0.56698853  0.24898313  1
  Si  Si95  1  0.70854220  0.90401954  0.25153466  1
  Si  Si96  1  0.00382749  0.09500779  0.25184354  1
  Si  Si97  1  0.99885423  0.43119798  0.25202340  1
  Si  Si98  1  0.00152377  0.76720117  0.24862339  1
  Si  Si99  1  0.28307287  0.09555256  0.75262351  1
  Si  Si100  1  0.29421917  0.43069202  0.75220272  1
  Si  Si101  1  0.30066080  0.76797516  0.74805406  1
  Si  Si102  1  0.00670095  0.23703576  0.75316017  1
  Si  Si103  1  0.99595832  0.56673434  0.74900990  1
  Si  Si104  1  0.00386887  0.90423482  0.75056335  1
  Si  Si105  1  0.70893096  0.99736578  0.75337718  1
  Si  Si106  1  0.70833033  0.33332630  0.75137426  1
  Si  Si107  1  0.70044444  0.66698488  0.74980480  1
  Si  Si108  1  0.96497142  0.11169867  0.58365285  1
  Si  Si109  1  0.96356853  0.44417788  0.58278343  1
  Si  Si110  1  0.95757339  0.78017331  0.58086641  1
  Si  Si111  1  0.37102057  0.01230558  0.58469884  1
  Si  Si112  1  0.36498378  0.34352739  0.58188597  1
  Si  Si113  1  0.38550047  0.68231156  0.58106035  1
  Si  Si114  1  0.66682661  0.21070293  0.58444948  1
  Si  Si115  1  0.66433403  0.54239473  0.58003249  1
  Si  Si116  1  0.66030484  0.87335675  0.58213833  1
  Si  Si117  1  0.96531336  0.21066884  0.08443137  1
  Si  Si118  1  0.96158752  0.54236739  0.07998113  1
  Si  Si119  1  0.96036504  0.87431737  0.08273144  1
  Si  Si120  1  0.66611035  0.01190588  0.08495210  1
  Si  Si121  1  0.66550767  0.34342871  0.08200560  1
  Si  Si122  1  0.66255535  0.68266874  0.08010416  1
  Si  Si123  1  0.36981584  0.11158201  0.08369664  1
  Si  Si124  1  0.36911904  0.44406929  0.08255504  1
  Si  Si125  1  0.38470704  0.78154730  0.08222357  1
  Si  Si126  1  0.62289846  0.22107017  0.91538530  1
  Si  Si127  1  0.62743554  0.55797817  0.91500435  1
  Si  Si128  1  0.62665125  0.88930409  0.91648399  1
  Si  Si129  1  0.03720054  0.12359439  0.91453891  1
  Si  Si130  1  0.04551867  0.45695679  0.91783379  1
  Si  Si131  1  0.04512745  0.79350170  0.91523978  1
  Si  Si132  1  0.32448801  0.31750351  0.91311945  1
  Si  Si133  1  0.33029569  0.65284819  0.91678179  1
  Si  Si134  1  0.33362000  0.98600059  0.91845582  1
  Si  Si135  1  0.62810742  0.31753209  0.41277836  1
  Si  Si136  1  0.62812299  0.65297613  0.41650577  1
  Si  Si137  1  0.62568477  0.98655432  0.41753472  1
  Si  Si138  1  0.33307676  0.12352487  0.41455657  1
  Si  Si139  1  0.32583568  0.45715491  0.41766322  1
  Si  Si140  1  0.33407186  0.79276451  0.41468306  1
  Si  Si141  1  0.04116489  0.22147836  0.41538650  1
  Si  Si142  1  0.04871681  0.55929418  0.41502117  1
  Si  Si143  1  0.03948438  0.88914780  0.41687967  1
  O  O144  1  0.16881185  0.99734533  0.30844261  1
  O  O145  1  0.20026316  0.34247908  0.31025680  1
  O  O146  1  0.19082473  0.67610251  0.30273173  1
  O  O147  1  0.83248743  0.27671229  0.30701042  1
  O  O148  1  0.83641196  0.60198469  0.30429008  1
  O  O149  1  0.81858827  0.93361465  0.31095350  1
  O  O150  1  0.99327105  0.05461104  0.30737265  1
  O  O151  1  0.98613554  0.39502017  0.31209827  1
  O  O152  1  0.96874982  0.71996395  0.30118955  1
  O  O153  1  0.17140952  0.05498697  0.80747550  1
  O  O154  1  0.19906403  0.39501084  0.81240009  1
  O  O155  1  0.18906841  0.72092660  0.80124374  1
  O  O156  1  0.99781851  0.27677483  0.80694655  1
  O  O157  1  0.97035837  0.60280758  0.80439128  1
  O  O158  1  0.98349103  0.93472666  0.80914730  1
  O  O159  1  0.82376263  0.99767502  0.80872564  1
  O  O160  1  0.82723541  0.34255258  0.81027651  1
  O  O161  1  0.83066502  0.67601213  0.80591255  1
  O  O162  1  0.80140619  0.32319488  0.69349458  1
  O  O163  1  0.75802400  0.65001140  0.69053224  1
  O  O164  1  0.80474975  0.99310743  0.69108827  1
  O  O165  1  0.17084354  0.06370986  0.69084136  1
  O  O166  1  0.17343403  0.39630280  0.69557198  1
  O  O167  1  0.20028571  0.75234379  0.68663514  1
  O  O168  1  0.01075258  0.27172177  0.69252938  1
  O  O169  1  0.05980775  0.60328565  0.68936229  1
  O  O170  1  0.02539868  0.94299208  0.69062537  1
  O  O171  1  0.80468245  0.27173040  0.19264303  1
  O  O172  1  0.75084256  0.60307655  0.18875487  1
  O  O173  1  0.80940150  0.94521558  0.19398731  1
  O  O174  1  0.02347887  0.06454172  0.19030135  1
  O  O175  1  0.01598315  0.39644619  0.19545447  1
  O  O176  1  0.05801836  0.75265038  0.18693394  1
  O  O177  1  0.16831666  0.32321474  0.19344556  1
  O  O178  1  0.19434936  0.64963810  0.18920674  1
  O  O179  1  0.17434017  0.99309634  0.19041525  1
  O  O180  1  0.92093039  0.13124077  0.64491610  1
  O  O181  1  0.85337916  0.45262644  0.63634574  1
  O  O182  1  0.86307762  0.78671659  0.64188869  1
  O  O183  1  0.47333899  0.02795496  0.64590299  1
  O  O184  1  0.50157863  0.38055117  0.63505154  1
  O  O185  1  0.49785006  0.71264817  0.64291839  1
  O  O186  1  0.60808785  0.17553532  0.64519310  1
  O  O187  1  0.64127838  0.50048006  0.63900723  1
  O  O188  1  0.63597320  0.83246961  0.64018102  1
  O  O189  1  0.91863513  0.17578379  0.14532879  1
  O  O190  1  0.86012046  0.50039575  0.13851990  1
  O  O191  1  0.85789224  0.83293625  0.13963029  1
  O  O192  1  0.61116960  0.02771978  0.14626735  1
  O  O193  1  0.63995341  0.38066676  0.13478674  1
  O  O194  1  0.64159603  0.71349476  0.14090815  1
  O  O195  1  0.47556290  0.13234361  0.14436606  1
  O  O196  1  0.50473058  0.45284137  0.13591884  1
  O  O197  1  0.49208389  0.78485637  0.14320865  1
  O  O198  1  0.47782349  0.10174975  0.03107449  1
  O  O199  1  0.40957249  0.42260867  0.02190374  1
  O  O200  1  0.49907957  0.78081744  0.02580312  1
  O  O201  1  0.82869013  0.17541868  0.03136039  1
  O  O202  1  0.86187991  0.51630220  0.01963379  1
  O  O203  1  0.84928324  0.84355508  0.02293190  1
  O  O204  1  0.69833655  0.05824259  0.03174361  1
  O  O205  1  0.72217040  0.37734539  0.02066666  1
  O  O206  1  0.67260735  0.72122289  0.02248605  1
  O  O207  1  0.47492390  0.05830616  0.53161123  1
  O  O208  1  0.41136408  0.37745109  0.52063235  1
  O  O209  1  0.49712954  0.72387899  0.52644674  1
  O  O210  1  0.69781033  0.17529067  0.53150076  1
  O  O211  1  0.68663030  0.51613078  0.51990340  1
  O  O212  1  0.69277739  0.84495935  0.52415992  1
  O  O213  1  0.82657046  0.10091022  0.53125865  1
  O  O214  1  0.85722813  0.42210724  0.52248379  1
  O  O215  1  0.84468058  0.78032793  0.52483231  1
  O  O216  1  0.53210698  0.23240670  0.97320668  1
  O  O217  1  0.52829128  0.56457617  0.97440523  1
  O  O218  1  0.51893739  0.89219408  0.97309362  1
  O  O219  1  0.16032707  0.15958861  0.97079357  1
  O  O220  1  0.15910958  0.48933759  0.97813218  1
  O  O221  1  0.15683053  0.82235353  0.97528624  1
  O  O222  1  0.32256726  0.28422048  0.97447743  1
  O  O223  1  0.30132160  0.61099098  0.97462697  1
  O  O224  1  0.30590296  0.94490565  0.97581511  1
  O  O225  1  0.52962205  0.28406795  0.47424893  1
  O  O226  1  0.52891279  0.61102841  0.47427047  1
  O  O227  1  0.52639923  0.94577577  0.47574812  1
  O  O228  1  0.31869878  0.15949377  0.47114122  1
  O  O229  1  0.30935295  0.48921035  0.47832508  1
  O  O230  1  0.30828589  0.82288315  0.47480960  1
  O  O231  1  0.16457519  0.23211638  0.47352291  1
  O  O232  1  0.16112545  0.56285543  0.47555411  1
  O  O233  1  0.15210933  0.89267491  0.47575935  1
  O  O234  1  0.13341691  0.21270202  0.35662755  1
  O  O235  1  0.15456550  0.55747976  0.35706469  1
  O  O236  1  0.15036324  0.88557818  0.36178100  1
  O  O237  1  0.49965987  0.27780929  0.35947694  1
  O  O238  1  0.51535366  0.62104995  0.35803014  1
  O  O239  1  0.51057901  0.95620972  0.35829941  1
  O  O240  1  0.35004564  0.16080963  0.35490429  1
  O  O241  1  0.32568814  0.49740946  0.36381007  1
  O  O242  1  0.36352585  0.83333215  0.35716517  1
  O  O243  1  0.13273764  0.16077571  0.85470712  1
  O  O244  1  0.16694568  0.49734779  0.86389960  1
  O  O245  1  0.13635328  0.83293878  0.85681000  1
  O  O246  1  0.33381630  0.27794122  0.85948571  1
  O  O247  1  0.35301258  0.62112775  0.85916497  1
  O  O248  1  0.35829952  0.95580146  0.85855912  1
  O  O249  1  0.50467310  0.21278531  0.85647278  1
  O  O250  1  0.51882085  0.55705732  0.85658740  1
  O  O251  1  0.50782714  0.88495706  0.85995588  1
  O  O252  1  0.03723201  0.28075753  0.41011497  1
  O  O253  1  0.02911586  0.61569690  0.41165078  1
  O  O254  1  0.02301162  0.94536327  0.41575011  1
  O  O255  1  0.81491767  0.32294815  0.41278786  1
  O  O256  1  0.80944691  0.65467344  0.41069639  1
  O  O257  1  0.81122867  0.99233803  0.41336551  1
  O  O258  1  0.16475025  0.06136592  0.41229323  1
  O  O259  1  0.14973604  0.39574174  0.41630102  1
  O  O260  1  0.16168781  0.73145137  0.40714291  1
  O  O261  1  0.01942638  0.06136006  0.91198868  1
  O  O262  1  0.03733768  0.39562321  0.91635589  1
  O  O263  1  0.02570898  0.73043085  0.90764713  1
  O  O264  1  0.15412648  0.32308502  0.91286398  1
  O  O265  1  0.15506677  0.65519614  0.91017508  1
  O  O266  1  0.16571893  0.99206682  0.91219025  1
  O  O267  1  0.80489675  0.28056583  0.90982546  1
  O  O268  1  0.81340694  0.61650719  0.91194752  1
  O  O269  1  0.81270084  0.94484824  0.91505876  1
  O  O270  1  0.97431637  0.05255916  0.58675271  1
  O  O271  1  0.00240622  0.39274420  0.59910355  1
  O  O272  1  0.97448467  0.72517330  0.57902908  1
  O  O273  1  0.18108813  0.00654669  0.58669480  1
  O  O274  1  0.17625397  0.33352460  0.59751737  1
  O  O275  1  0.20188864  0.67552757  0.57948968  1
  O  O276  1  0.83894689  0.27401834  0.58663626  1
  O  O277  1  0.82314524  0.60468424  0.58627368  1
  O  O278  1  0.82953872  0.93587096  0.59092301  1
  O  O279  1  0.98345867  0.27408365  0.08662548  1
  O  O280  1  0.99163423  0.60496731  0.08601310  1
  O  O281  1  0.98392927  0.93728929  0.08985116  1
  O  O282  1  0.84319928  0.00948311  0.08733220  1
  O  O283  1  0.82425058  0.33344926  0.09772047  1
  O  O284  1  0.82599179  0.67574213  0.07802498  1
  O  O285  1  0.18470635  0.05286987  0.08682490  1
  O  O286  1  0.17595158  0.39279691  0.09877397  1
  O  O287  1  0.20440094  0.72533414  0.07880923  1
  O  O288  1  0.69789576  0.05382616  0.75472319  1
  O  O289  1  0.68749362  0.38846337  0.74139332  1
  O  O290  1  0.69518418  0.72648777  0.74737133  1
  O  O291  1  0.46600103  0.10177741  0.75410846  1
  O  O292  1  0.47980192  0.43651528  0.74316134  1
  O  O293  1  0.48164859  0.76837638  0.74708506  1
  O  O294  1  0.83869747  0.17680929  0.75735476  1
  O  O295  1  0.81647942  0.50675972  0.74484504  1
  O  O296  1  0.83849458  0.84076069  0.74271006  1
  O  O297  1  0.69159966  0.17668673  0.25739209  1
  O  O298  1  0.70260086  0.50664910  0.24389307  1
  O  O299  1  0.68345028  0.84076354  0.24271386  1
  O  O300  1  0.83976304  0.10148737  0.25407879  1
  O  O301  1  0.82955524  0.43644889  0.24281999  1
  O  O302  1  0.82262028  0.76830854  0.24605836  1
  O  O303  1  0.46265800  0.05374351  0.25444744  1
  O  O304  1  0.47764150  0.38844009  0.24120751  1
  O  O305  1  0.48450815  0.72619806  0.24740395  1
  O  O306  1  0.64303354  0.16599631  0.92483241  1
  O  O307  1  0.64072021  0.50212127  0.91305340  1
  O  O308  1  0.64325325  0.83266154  0.91795435  1
  O  O309  1  0.85496655  0.12006240  0.92417923  1
  O  O310  1  0.86432828  0.45135237  0.91142489  1
  O  O311  1  0.85158457  0.78254109  0.91994037  1
  O  O312  1  0.50472314  0.04775159  0.92627240  1
  O  O313  1  0.49147373  0.37782473  0.90742496  1
  O  O314  1  0.50149350  0.71438307  0.92210666  1
  O  O315  1  0.63900220  0.04809099  0.42643483  1
  O  O316  1  0.64226473  0.37784932  0.40729970  1
  O  O317  1  0.64867449  0.71543115  0.42295440  1
  O  O318  1  0.50540137  0.12018840  0.42460432  1
  O  O319  1  0.48997345  0.45133834  0.41138117  1
  O  O320  1  0.50045545  0.78586677  0.42245577  1
  O  O321  1  0.85556006  0.16621713  0.42529095  1
  O  O322  1  0.86833852  0.50246358  0.41287863  1
  O  O323  1  0.85397786  0.83263869  0.41797921  1
  O  O324  1  0.33323096  0.16367953  0.06819145  1
  O  O325  1  0.36908695  0.50441066  0.07978358  1
  O  O326  1  0.36112231  0.83715205  0.07991489  1
  O  O327  1  0.15583693  0.22160565  0.06915963  1
  O  O328  1  0.14772362  0.54339968  0.08031379  1
  O  O329  1  0.14678500  0.87955336  0.08050100  1
  O  O330  1  0.49252326  0.28094015  0.08103467  1
  O  O331  1  0.48547108  0.62057153  0.07732977  1
  O  O332  1  0.50111785  0.95066334  0.06851050  1
  O  O333  1  0.35011413  0.28093741  0.58103930  1
  O  O334  1  0.37747366  0.62064143  0.57775580  1
  O  O335  1  0.34347682  0.94938082  0.56978787  1
  O  O336  1  0.50926194  0.22167454  0.56915042  1
  O  O337  1  0.48190764  0.54349010  0.58076671  1
  O  O338  1  0.49193813  0.88016947  0.57985833  1
  O  O339  1  0.15801226  0.16334034  0.56848172  1
  O  O340  1  0.14415992  0.50430784  0.58036544  1
  O  O341  1  0.14591850  0.83813210  0.58009548  1
  O  O342  1  0.29387455  0.27369889  0.25631477  1
  O  O343  1  0.33940999  0.61499657  0.25965885  1
  O  O344  1  0.30777025  0.94171985  0.25386607  1
  O  O345  1  0.51780451  0.23176785  0.25359068  1
  O  O346  1  0.51463188  0.55622217  0.26477501  1
  O  O347  1  0.52075674  0.89825439  0.25313694  1
  O  O348  1  0.17982498  0.15710532  0.25262630  1
  O  O349  1  0.16010675  0.49614213  0.25394524  1
  O  O350  1  0.16555925  0.82805774  0.26573901  1
  O  O351  1  0.29139774  0.15712736  0.75203649  1
  O  O352  1  0.32719509  0.49583450  0.75394070  1
  O  O353  1  0.31796518  0.82854128  0.76459251  1
  O  O354  1  0.17772457  0.23181180  0.75360318  1
  O  O355  1  0.15318445  0.55664242  0.76641290  1
  O  O356  1  0.17420148  0.89825389  0.75250530  1
  O  O357  1  0.52720988  0.27377727  0.75628761  1
  O  O358  1  0.50469172  0.61505358  0.75941972  1
  O  O359  1  0.51723008  0.94181206  0.75363506  1
