# generated using pymatgen
data_Na15Ca10Ta2P9(SO8)9
_symmetry_space_group_name_H-M   'P 1'
_cell_length_a   9.29727178
_cell_length_b   9.28858107
_cell_length_c   23.29379393
_cell_angle_alpha   90.05407529
_cell_angle_beta   89.79748075
_cell_angle_gamma   119.84980393
_symmetry_Int_Tables_number   1
_chemical_formula_structural   Na15Ca10Ta2P9(SO8)9
_chemical_formula_sum   'Na15 Ca10 Ta2 P9 S9 O72'
_cell_volume   1744.72974319
_cell_formula_units_Z   1
loop_
 _symmetry_equiv_pos_site_id
 _symmetry_equiv_pos_as_xyz
  1  'x, y, z'
loop_
 _atom_site_type_symbol
 _atom_site_label
 _atom_site_symmetry_multiplicity
 _atom_site_fract_x
 _atom_site_fract_y
 _atom_site_fract_z
 _atom_site_occupancy
  Na  Na0  1  0.98698554  0.33705634  0.75100797  1
  Na  Na1  1  0.30186569  0.33365116  0.58548132  1
  Na  Na2  1  0.66716797  0.96844883  0.58857357  1
  Na  Na3  1  0.30191652  0.96887559  0.08704206  1
  Na  Na4  1  0.66862967  0.69770114  0.09136973  1
  Na  Na5  1  0.97515913  0.67419260  0.90882322  1
  Na  Na6  1  0.32240682  0.28587275  0.90854549  1
  Na  Na7  1  0.33396177  0.04475147  0.40603383  1
  Na  Na8  1  0.69841730  0.67011888  0.40923099  1
  Na  Na9  1  0.99975232  0.01255314  0.49501493  1
  Na  Na10  1  0.99483998  0.02673701  0.99541621  1
  Na  Na11  1  0.65288732  0.30991474  0.82600010  1
  Na  Na12  1  0.65954990  0.32569052  0.32509628  1
  Na  Na13  1  0.31805537  0.65621729  0.17043307  1
  Na  Na14  1  0.33474789  0.68022864  0.66991241  1
  Ca  Ca15  1  0.00019422  0.00846741  0.34521402  1
  Ca  Ca16  1  0.99645853  0.99846414  0.84508793  1
  Ca  Ca17  1  0.99732818  0.98921162  0.66204354  1
  Ca  Ca18  1  0.00209404  0.00107022  0.16234004  1
  Ca  Ca19  1  0.66344734  0.34046259  0.68749922  1
  Ca  Ca20  1  0.66494022  0.33003175  0.18823991  1
  Ca  Ca21  1  0.67422623  0.31809693  0.97689765  1
  Ca  Ca22  1  0.67338240  0.33178909  0.47778466  1
  Ca  Ca23  1  0.32622921  0.66366027  0.01563629  1
  Ca  Ca24  1  0.32488029  0.66168320  0.51491739  1
  Ta  Ta25  1  0.34453190  0.66870634  0.31538958  1
  Ta  Ta26  1  0.33298089  0.67561355  0.81489868  1
  P  P27  1  0.30800733  0.99048655  0.25383920  1
  P  P28  1  0.69028725  0.69153143  0.25340654  1
  P  P29  1  0.30644473  0.31863951  0.75391848  1
  P  P30  1  0.00437109  0.69072953  0.75610811  1
  P  P31  1  0.68807959  0.99392383  0.74937649  1
  P  P32  1  0.04606242  0.37757110  0.91347489  1
  P  P33  1  0.33066051  0.96113464  0.91672822  1
  P  P34  1  0.62289609  0.95584506  0.41701962  1
  P  P35  1  0.33398824  0.37289710  0.41671598  1
  S  S36  1  0.01350971  0.32056913  0.25313959  1
  S  S37  1  0.96742871  0.32774242  0.58559852  1
  S  S38  1  0.36684709  0.03713348  0.58150164  1
  S  S39  1  0.66766059  0.63823598  0.58019092  1
  S  S40  1  0.96486044  0.63830719  0.08210968  1
  S  S41  1  0.66821885  0.02801270  0.08407302  1
  S  S42  1  0.36994239  0.33075824  0.08132919  1
  S  S43  1  0.62345468  0.66518602  0.91624573  1
  S  S44  1  0.04224667  0.66892310  0.41293141  1
  O  O45  1  0.22049266  0.00959189  0.30645226  1
  O  O46  1  0.79047592  0.78034125  0.30654031  1
  O  O47  1  0.99033369  0.21779381  0.30357925  1
  O  O48  1  0.22059119  0.21460129  0.80691780  1
  O  O49  1  0.98034093  0.76276340  0.81137989  1
  O  O50  1  0.81020814  0.02075245  0.79687570  1
  O  O51  1  0.73845059  0.95159183  0.69131343  1
  O  O52  1  0.19564853  0.25357075  0.69946208  1
  O  O53  1  0.03727880  0.79750945  0.70280025  1
  O  O54  1  0.75236065  0.79204036  0.19744662  1
  O  O55  1  0.04670102  0.25347161  0.20077132  1
  O  O56  1  0.20936656  0.95699296  0.19750464  1
  O  O57  1  0.88754467  0.33838325  0.63880565  1
  O  O58  1  0.47409816  0.12676772  0.63059887  1
  O  O59  1  0.65473140  0.53424186  0.62956932  1
  O  O60  1  0.87529970  0.53610723  0.13194883  1
  O  O61  1  0.65280533  0.11446116  0.13446975  1
  O  O62  1  0.47525878  0.34520351  0.13072555  1
  O  O63  1  0.44632930  0.31485947  0.02715683  1
  O  O64  1  0.87576478  0.56059260  0.02801228  1
  O  O65  1  0.68124211  0.11995169  0.03097354  1
  O  O66  1  0.44368623  0.12894457  0.52715072  1
  O  O67  1  0.67952238  0.56111592  0.52588492  1
  O  O68  1  0.86773318  0.31737512  0.53478215  1
  O  O69  1  0.55451407  0.68143105  0.97120155  1
  O  O70  1  0.14603928  0.45797248  0.96731408  1
  O  O71  1  0.32213808  0.87491116  0.97350610  1
  O  O72  1  0.54645181  0.86604931  0.47326345  1
  O  O73  1  0.31924939  0.44465889  0.47395227  1
  O  O74  1  0.13179503  0.68410634  0.46609959  1
  O  O75  1  0.13808271  0.65819475  0.36293980  1
  O  O76  1  0.50030102  0.83911277  0.36638411  1
  O  O77  1  0.33292407  0.49116425  0.36630653  1
  O  O78  1  0.15561889  0.49274214  0.86052252  1
  O  O79  1  0.33650916  0.84554417  0.86646615  1
  O  O80  1  0.51485095  0.65925187  0.86763994  1
  O  O81  1  0.02561753  0.81995793  0.40863472  1
  O  O82  1  0.79113010  0.96625378  0.40949414  1
  O  O83  1  0.19091606  0.19334563  0.41069056  1
  O  O84  1  0.02613657  0.20400263  0.90857421  1
  O  O85  1  0.17008271  0.97096223  0.91120902  1
  O  O86  1  0.79394292  0.80472062  0.91048409  1
  O  O87  1  0.98109935  0.17252475  0.58580251  1
  O  O88  1  0.20222814  0.02702405  0.58675297  1
  O  O89  1  0.81184742  0.80951684  0.58408047  1
  O  O90  1  0.97698065  0.80627127  0.08601399  1
  O  O91  1  0.81359771  0.00152891  0.08729654  1
  O  O92  1  0.20338691  0.17886204  0.08687366  1
  O  O93  1  0.66696507  0.14732551  0.74628455  1
  O  O94  1  0.48170386  0.34784778  0.74767681  1
  O  O95  1  0.87043425  0.50759472  0.74935772  1
  O  O96  1  0.65802223  0.51458587  0.24955978  1
  O  O97  1  0.87379388  0.35043507  0.24760088  1
  O  O98  1  0.48632068  0.13347182  0.24981691  1
  O  O99  1  0.62573992  0.50534140  0.91437076  1
  O  O100  1  0.88277353  0.38310822  0.91040704  1
  O  O101  1  0.48330958  0.13593995  0.91030685  1
  O  O102  1  0.62130482  0.12006751  0.41107550  1
  O  O103  1  0.50376974  0.37802287  0.41084862  1
  O  O104  1  0.87431630  0.52090470  0.41261038  1
  O  O105  1  0.35824738  0.48540625  0.08072377  1
  O  O106  1  0.13804153  0.66721613  0.08206498  1
  O  O107  1  0.51362418  0.85901982  0.08274623  1
  O  O108  1  0.35155539  0.86956628  0.58036388  1
  O  O109  1  0.51155655  0.65070585  0.58103889  1
  O  O110  1  0.13883171  0.47270226  0.58270584  1
  O  O111  1  0.32010656  0.82356961  0.26560220  1
  O  O112  1  0.50693224  0.67376803  0.26448649  1
  O  O113  1  0.16936404  0.49059880  0.26228472  1
  O  O114  1  0.32317661  0.49948038  0.76425990  1
  O  O115  1  0.17432310  0.68050505  0.76335176  1
  O  O116  1  0.51147860  0.83678687  0.76619327  1
