# generated using pymatgen
data_Na6Mg4Nb2Si3(SO6)6
_symmetry_space_group_name_H-M   'P 1'
_cell_length_a   8.88829465
_cell_length_b   8.88829435
_cell_length_c   22.62384714
_cell_angle_alpha   90.00000000
_cell_angle_beta   90.00000000
_cell_angle_gamma   120.00000108
_symmetry_Int_Tables_number   1
_chemical_formula_structural   Na6Mg4Nb2Si3(SO6)6
_chemical_formula_sum   'Na12 Mg8 Nb4 Si6 S12 O72'
_cell_volume   1547.86812320
_cell_formula_units_Z   2
loop_
 _symmetry_equiv_pos_site_id
 _symmetry_equiv_pos_as_xyz
  1  'x, y, z'
loop_
 _atom_site_type_symbol
 _atom_site_label
 _atom_site_symmetry_multiplicity
 _atom_site_fract_x
 _atom_site_fract_y
 _atom_site_fract_z
 _atom_site_occupancy
  Na  Na0  1  0.98288669  0.68968908  0.91689088  1
  Na  Na1  1  0.70680139  0.01711331  0.91689088  1
  Na  Na2  1  0.31031092  0.29319861  0.91689088  1
  Na  Na3  1  0.98288669  0.29319861  0.41689088  1
  Na  Na4  1  0.31031092  0.01711331  0.41689088  1
  Na  Na5  1  0.70680139  0.68968908  0.41689088  1
  Na  Na6  1  0.00000000  0.00000000  0.49752599  1
  Na  Na7  1  0.00000000  0.00000000  0.99752599  1
  Na  Na8  1  0.66666700  0.33333300  0.82431965  1
  Na  Na9  1  0.66666700  0.33333300  0.32431965  1
  Na  Na10  1  0.33333300  0.66666700  0.16180345  1
  Na  Na11  1  0.33333300  0.66666700  0.66180345  1
  Mg  Mg12  1  0.00000000  0.00000000  0.34981127  1
  Mg  Mg13  1  0.00000000  0.00000000  0.84981127  1
  Mg  Mg14  1  0.00000000  0.00000000  0.64935256  1
  Mg  Mg15  1  0.00000000  0.00000000  0.14935256  1
  Mg  Mg16  1  0.66666700  0.33333300  0.68415268  1
  Mg  Mg17  1  0.66666700  0.33333300  0.18415268  1
  Mg  Mg18  1  0.33333300  0.66666700  0.01676385  1
  Mg  Mg19  1  0.33333300  0.66666700  0.51676385  1
  Nb  Nb20  1  0.66666700  0.33333300  0.97919439  1
  Nb  Nb21  1  0.66666700  0.33333300  0.47919439  1
  Nb  Nb22  1  0.33333300  0.66666700  0.31728590  1
  Nb  Nb23  1  0.33333300  0.66666700  0.81728590  1
  Si  Si24  1  0.62625828  0.67201065  0.92017468  1
  Si  Si25  1  0.04575136  0.37374172  0.92017468  1
  Si  Si26  1  0.32798935  0.95424864  0.92017468  1
  Si  Si27  1  0.62625828  0.95424864  0.42017468  1
  Si  Si28  1  0.32798935  0.37374172  0.42017468  1
  Si  Si29  1  0.04575136  0.67201065  0.42017468  1
  S  S30  1  0.29491662  0.00156768  0.24918206  1
  S  S31  1  0.70665106  0.70508338  0.24918206  1
  S  S32  1  0.99843232  0.29334894  0.24918206  1
  S  S33  1  0.29491662  0.29334894  0.74918206  1
  S  S34  1  0.99843232  0.70508338  0.74918206  1
  S  S35  1  0.70665106  0.00156768  0.74918206  1
  S  S36  1  0.95932159  0.33303396  0.58581244  1
  S  S37  1  0.37371337  0.04067841  0.58581244  1
  S  S38  1  0.66696604  0.62628663  0.58581244  1
  S  S39  1  0.95932159  0.62628663  0.08581244  1
  S  S40  1  0.66696604  0.04067841  0.08581244  1
  S  S41  1  0.37371337  0.33303396  0.08581244  1
  O  O42  1  0.21789101  0.01950265  0.30456858  1
  O  O43  1  0.80161164  0.78210899  0.30456858  1
  O  O44  1  0.98049735  0.19838836  0.30456858  1
  O  O45  1  0.21789101  0.19838836  0.80456858  1
  O  O46  1  0.98049735  0.78210899  0.80456858  1
  O  O47  1  0.80161164  0.01950265  0.80456858  1
  O  O48  1  0.79111676  0.97695314  0.69715942  1
  O  O49  1  0.18583638  0.20888324  0.69715942  1
  O  O50  1  0.02304686  0.81416362  0.69715942  1
  O  O51  1  0.79111676  0.81416362  0.19715942  1
  O  O52  1  0.02304686  0.20888324  0.19715942  1
  O  O53  1  0.18583638  0.97695314  0.19715942  1
  O  O54  1  0.86640207  0.35017077  0.63641823  1
  O  O55  1  0.48376970  0.13359793  0.63641823  1
  O  O56  1  0.64982923  0.51623030  0.63641823  1
  O  O57  1  0.86640207  0.51623030  0.13641823  1
  O  O58  1  0.64982923  0.13359793  0.13641823  1
  O  O59  1  0.48376970  0.35017077  0.13641823  1
  O  O60  1  0.46568361  0.31588596  0.02970679  1
  O  O61  1  0.85020335  0.53431639  0.02970679  1
  O  O62  1  0.68411404  0.14979665  0.02970679  1
  O  O63  1  0.46568361  0.14979665  0.52970679  1
  O  O64  1  0.68411404  0.53431639  0.52970679  1
  O  O65  1  0.85020335  0.31588596  0.52970679  1
  O  O66  1  0.54522819  0.71181329  0.97558172  1
  O  O67  1  0.16658410  0.45477181  0.97558172  1
  O  O68  1  0.28818671  0.83341590  0.97558172  1
  O  O69  1  0.54522819  0.83341590  0.47558172  1
  O  O70  1  0.28818671  0.45477181  0.47558172  1
  O  O71  1  0.16658410  0.71181329  0.47558172  1
  O  O72  1  0.13160200  0.62235799  0.36071443  1
  O  O73  1  0.49075499  0.86839800  0.36071443  1
  O  O74  1  0.37764201  0.50924501  0.36071443  1
  O  O75  1  0.13160200  0.50924501  0.86071443  1
  O  O76  1  0.37764201  0.86839800  0.86071443  1
  O  O77  1  0.49075499  0.62235799  0.86071443  1
  O  O78  1  0.00603251  0.82493351  0.40627388  1
  O  O79  1  0.81890100  0.99396749  0.40627388  1
  O  O80  1  0.17506649  0.18109900  0.40627388  1
  O  O81  1  0.00603251  0.18109900  0.90627388  1
  O  O82  1  0.17506649  0.99396749  0.90627388  1
  O  O83  1  0.81890100  0.82493351  0.90627388  1
  O  O84  1  0.96860729  0.17207312  0.58772563  1
  O  O85  1  0.20346583  0.03139271  0.58772563  1
  O  O86  1  0.82792688  0.79653417  0.58772563  1
  O  O87  1  0.96860729  0.79653417  0.08772563  1
  O  O88  1  0.82792688  0.03139271  0.08772563  1
  O  O89  1  0.20346583  0.17207312  0.08772563  1
  O  O90  1  0.68228097  0.15417614  0.74313641  1
  O  O91  1  0.47189616  0.31771903  0.74313641  1
  O  O92  1  0.84582386  0.52810384  0.74313641  1
  O  O93  1  0.68228097  0.52810384  0.24313641  1
  O  O94  1  0.84582386  0.31771903  0.24313641  1
  O  O95  1  0.47189616  0.15417614  0.24313641  1
  O  O96  1  0.63481089  0.48850037  0.92637027  1
  O  O97  1  0.85369048  0.36518911  0.92637027  1
  O  O98  1  0.51149963  0.14630952  0.92637027  1
  O  O99  1  0.63481089  0.14630952  0.42637027  1
  O  O100  1  0.51149963  0.36518911  0.42637027  1
  O  O101  1  0.85369048  0.48850037  0.42637027  1
  O  O102  1  0.35974281  0.48996602  0.07997560  1
  O  O103  1  0.13022221  0.64025719  0.07997560  1
  O  O104  1  0.51003398  0.86977779  0.07997560  1
  O  O105  1  0.35974281  0.86977779  0.57997560  1
  O  O106  1  0.51003398  0.64025719  0.57997560  1
  O  O107  1  0.13022221  0.48996602  0.57997560  1
  O  O108  1  0.31034639  0.83755476  0.25357272  1
  O  O109  1  0.52720736  0.68965361  0.25357272  1
  O  O110  1  0.16244524  0.47279264  0.25357272  1
  O  O111  1  0.31034639  0.47279264  0.75357272  1
  O  O112  1  0.16244524  0.68965361  0.75357272  1
  O  O113  1  0.52720736  0.83755476  0.75357272  1
