# generated using pymatgen
data_Na6CaSn7(PO4)12
_symmetry_space_group_name_H-M   'P 1'
_cell_length_a   17.67927793
_cell_length_b   8.83210709
_cell_length_c   22.84953597
_cell_angle_alpha   90.04191138
_cell_angle_beta   89.98173865
_cell_angle_gamma   119.96644867
_symmetry_Int_Tables_number   1
_chemical_formula_structural   Na6CaSn7(PO4)12
_chemical_formula_sum   'Na18 Ca3 Sn21 P36 O144'
_cell_volume   3090.88949395
_cell_formula_units_Z   3
loop_
 _symmetry_equiv_pos_site_id
 _symmetry_equiv_pos_as_xyz
  1  'x, y, z'
loop_
 _atom_site_type_symbol
 _atom_site_label
 _atom_site_symmetry_multiplicity
 _atom_site_fract_x
 _atom_site_fract_y
 _atom_site_fract_z
 _atom_site_occupancy
  Na  Na0  1  0.68659644  0.36626145  0.24653884  1
  Na  Na1  1  0.99600834  0.62715184  0.24638147  1
  Na  Na2  1  0.99459261  0.36213758  0.74342711  1
  Na  Na3  1  0.49477804  0.36242502  0.74329616  1
  Na  Na4  1  0.18698689  0.00729278  0.74346870  1
  Na  Na5  1  0.68713748  0.00748299  0.74360088  1
  Na  Na6  1  0.99962382  0.99982302  0.50088393  1
  Na  Na7  1  0.50013272  0.99966008  0.50076356  1
  Na  Na8  1  0.99853087  0.99782796  0.00199018  1
  Na  Na9  1  0.50133068  0.00202097  0.00190036  1
  Na  Na10  1  0.33282150  0.34442016  0.83221583  1
  Na  Na11  1  0.83287839  0.34451011  0.83328935  1
  Na  Na12  1  0.33336566  0.33486423  0.33542617  1
  Na  Na13  1  0.83287343  0.31917932  0.33347486  1
  Na  Na14  1  0.16981121  0.66433831  0.16523800  1
  Na  Na15  1  0.66939748  0.68208266  0.16412052  1
  Na  Na16  1  0.17243314  0.66518775  0.65922960  1
  Na  Na17  1  0.67254344  0.66542744  0.65924927  1
  Ca  Ca18  1  0.33308127  0.34131048  0.68077499  1
  Ca  Ca19  1  0.83312667  0.34140930  0.68080143  1
  Ca  Ca20  1  0.83298463  0.32380774  0.18265385  1
  Sn  Sn21  1  0.00282344  0.00424235  0.35489252  1
  Sn  Sn22  1  0.49594400  0.99553253  0.35401713  1
  Sn  Sn23  1  0.99888739  0.99798441  0.85649765  1
  Sn  Sn24  1  0.49900459  0.99781016  0.85637600  1
  Sn  Sn25  1  0.99871739  0.99707757  0.64492840  1
  Sn  Sn26  1  0.49883406  0.99708846  0.64497269  1
  Sn  Sn27  1  0.99841558  0.00171584  0.14663538  1
  Sn  Sn28  1  0.50041939  0.99910346  0.14689247  1
  Sn  Sn29  1  0.33354366  0.33506251  0.18523568  1
  Sn  Sn30  1  0.33324484  0.33230480  0.98157568  1
  Sn  Sn31  1  0.83361567  0.33335272  0.98389168  1
  Sn  Sn32  1  0.33346551  0.33357405  0.48357475  1
  Sn  Sn33  1  0.83328603  0.33399127  0.48282309  1
  Sn  Sn34  1  0.16777746  0.66771584  0.01903302  1
  Sn  Sn35  1  0.66525751  0.66451566  0.01781079  1
  Sn  Sn36  1  0.16627771  0.66687436  0.51603324  1
  Sn  Sn37  1  0.66629465  0.66710741  0.51578740  1
  Sn  Sn38  1  0.17039959  0.66683847  0.31550935  1
  Sn  Sn39  1  0.66558150  0.67165765  0.31687641  1
  Sn  Sn40  1  0.16850665  0.66583119  0.81757264  1
  Sn  Sn41  1  0.66911343  0.66626023  0.81762321  1
  P  P42  1  0.14633318  0.00168908  0.25006199  1
  P  P43  1  0.64144671  0.99264334  0.25234153  1
  P  P44  1  0.35448822  0.70888427  0.24944263  1
  P  P45  1  0.85393755  0.71658114  0.25238999  1
  P  P46  1  0.00394399  0.29340862  0.25257300  1
  P  P47  1  0.49877634  0.29016243  0.25053196  1
  P  P48  1  0.14222148  0.28938453  0.75285305  1
  P  P49  1  0.64225828  0.28961224  0.75282246  1
  P  P50  1  0.00210305  0.71340780  0.75331348  1
  P  P51  1  0.50210640  0.71320707  0.75338001  1
  P  P52  1  0.35428225  0.99164659  0.75221089  1
  P  P53  1  0.85429447  0.99184278  0.75208176  1
  P  P54  1  0.48446259  0.33445305  0.58347571  1
  P  P55  1  0.98426774  0.33460845  0.58340414  1
  P  P56  1  0.18308538  0.03155123  0.58364677  1
  P  P57  1  0.68321195  0.03178626  0.58360676  1
  P  P58  1  0.33252761  0.63415850  0.58125515  1
  P  P59  1  0.83246272  0.63385795  0.58107465  1
  P  P60  1  0.47886183  0.62474074  0.08301149  1
  P  P61  1  0.98436016  0.63547369  0.08373362  1
  P  P62  1  0.33361534  0.04195412  0.08354628  1
  P  P63  1  0.83301745  0.03143872  0.08097357  1
  P  P64  1  0.18771572  0.33400095  0.08327110  1
  P  P65  1  0.68232562  0.33216496  0.08362654  1
  P  P66  1  0.31312186  0.66493086  0.91823269  1
  P  P67  1  0.81314711  0.66331088  0.91785632  1
  P  P68  1  0.01936914  0.37432580  0.91714630  1
  P  P69  1  0.51883250  0.37356043  0.91631625  1
  P  P70  1  0.16792529  0.96171726  0.91671125  1
  P  P71  1  0.66775550  0.96211693  0.91697638  1
  P  P72  1  0.31257200  0.96183442  0.41650765  1
  P  P73  1  0.81404588  0.96275087  0.41688703  1
  P  P74  1  0.16850624  0.37372626  0.41707114  1
  P  P75  1  0.66691844  0.37239072  0.41507883  1
  P  P76  1  0.01950224  0.66443235  0.41508815  1
  P  P77  1  0.51818107  0.66423604  0.41689607  1
  O  O78  1  0.10755208  0.03203637  0.30599618  1
  O  O79  1  0.59678096  0.02179961  0.30614066  1
  O  O80  1  0.40840671  0.78562068  0.30539439  1
  O  O81  1  0.91309672  0.80283386  0.30608957  1
  O  O82  1  0.48235067  0.17831847  0.30563033  1
  O  O83  1  0.99296133  0.18436185  0.30751782  1
  O  O84  1  0.09917417  0.17759121  0.80804076  1
  O  O85  1  0.59916942  0.17779920  0.80804947  1
  O  O86  1  0.49055505  0.79793095  0.80891195  1
  O  O87  1  0.99102736  0.79862057  0.80880957  1
  O  O88  1  0.41047951  0.02163964  0.80743080  1
  O  O89  1  0.91058294  0.02194098  0.80720552  1
  O  O90  1  0.39501569  0.96368473  0.69653982  1
  O  O91  1  0.89489776  0.96351919  0.69637334  1
  O  O92  1  0.08368898  0.20970472  0.69778793  1
  O  O93  1  0.58357930  0.20979084  0.69780441  1
  O  O94  1  0.02056984  0.82967942  0.69822201  1
  O  O95  1  0.52051828  0.82963739  0.69836041  1
  O  O96  1  0.39437269  0.82115254  0.19419388  1
  O  O97  1  0.89363066  0.82448474  0.19597194  1
  O  O98  1  0.01842832  0.21319607  0.19616929  1
  O  O99  1  0.51869285  0.21211829  0.19581726  1
  O  O100  1  0.08662412  0.96178687  0.19586880  1
  O  O101  1  0.58712740  0.96311545  0.19561158  1
  O  O102  1  0.45320921  0.36468040  0.64168121  1
  O  O103  1  0.95315830  0.36455351  0.64171205  1
  O  O104  1  0.22953112  0.09347558  0.64176703  1
  O  O105  1  0.72955018  0.09396923  0.64175608  1
  O  O106  1  0.31559715  0.53532541  0.63752024  1
  O  O107  1  0.81563786  0.53526756  0.63737339  1
  O  O108  1  0.43932553  0.51231713  0.13836869  1
  O  O109  1  0.95205425  0.54058526  0.14117007  1
  O  O110  1  0.31739273  0.12290984  0.13864524  1
  O  O111  1  0.81610942  0.09821304  0.13686496  1
  O  O112  1  0.24411327  0.36704896  0.13844888  1
  O  O113  1  0.72956380  0.36329138  0.14111139  1
  O  O114  1  0.22740867  0.30081395  0.02777895  1
  O  O115  1  0.72655835  0.30242124  0.02912189  1
  O  O116  1  0.42257465  0.54443611  0.02769212  1
  O  O117  1  0.92564145  0.54733324  0.02917082  1
  O  O118  1  0.34983713  0.15346213  0.02784191  1
  O  O119  1  0.84878006  0.14620770  0.02551590  1
  O  O120  1  0.22794073  0.15167166  0.52991775  1
  O  O121  1  0.72797863  0.15212874  0.52982234  1
  O  O122  1  0.34841957  0.54941172  0.52632858  1
  O  O123  1  0.84851580  0.54934605  0.52602032  1
  O  O124  1  0.42430348  0.30423270  0.52984057  1
  O  O125  1  0.92421876  0.30491641  0.52974068  1
  O  O126  1  0.27224917  0.69787553  0.97235211  1
  O  O127  1  0.77089801  0.69578014  0.97082482  1
  O  O128  1  0.07911713  0.45999039  0.96989855  1
  O  O129  1  0.57673934  0.45900669  0.96947811  1
  O  O130  1  0.15356049  0.84546697  0.96971402  1
  O  O131  1  0.65083046  0.84304934  0.96975069  1
  O  O132  1  0.27201873  0.84678760  0.47020072  1
  O  O133  1  0.77247970  0.84776903  0.47058551  1
  O  O134  1  0.15172740  0.45575465  0.47074178  1
  O  O135  1  0.65121318  0.45790504  0.46831356  1
  O  O136  1  0.07766769  0.69720480  0.46844346  1
  O  O137  1  0.57600974  0.69800810  0.47060280  1
  O  O138  1  0.05883485  0.63625072  0.35752495  1
  O  O139  1  0.55739521  0.63077616  0.36085824  1
  O  O140  1  0.25782565  0.88379300  0.36009363  1
  O  O141  1  0.75838092  0.88441033  0.36080753  1
  O  O142  1  0.18418943  0.48350706  0.36083217  1
  O  O143  1  0.68195546  0.48020145  0.35750153  1
  O  O144  1  0.05753061  0.48048475  0.85926818  1
  O  O145  1  0.55733448  0.47998639  0.85880553  1
  O  O146  1  0.18277854  0.88567945  0.85890930  1
  O  O147  1  0.68239371  0.88530053  0.85914512  1
  O  O148  1  0.25829569  0.63276654  0.86201456  1
  O  O149  1  0.75894871  0.63106358  0.86101175  1
  O  O150  1  0.01085675  0.83041773  0.41061791  1
  O  O151  1  0.50920747  0.82929694  0.41152460  1
  O  O152  1  0.40401529  0.97824612  0.41134374  1
  O  O153  1  0.90549994  0.98050349  0.41149331  1
  O  O154  1  0.08573634  0.19026252  0.41260009  1
  O  O155  1  0.58386813  0.18988405  0.41000257  1
  O  O156  1  0.01016684  0.19075862  0.91268833  1
  O  O157  1  0.50973858  0.19023318  0.91263942  1
  O  O158  1  0.08541125  0.97991645  0.91290463  1
  O  O159  1  0.58487603  0.97975195  0.91291307  1
  O  O160  1  0.40445021  0.83056646  0.91351584  1
  O  O161  1  0.90465901  0.82920368  0.91305015  1
  O  O162  1  0.49240528  0.16609464  0.58533264  1
  O  O163  1  0.99250687  0.16648495  0.58527190  1
  O  O164  1  0.09098426  0.01589629  0.58570759  1
  O  O165  1  0.59103295  0.01601286  0.58569165  1
  O  O166  1  0.41695730  0.81786772  0.58459521  1
  O  O167  1  0.91687252  0.81762607  0.58447486  1
  O  O168  1  0.48686126  0.80700862  0.08860227  1
  O  O169  1  0.99416854  0.82143736  0.08571418  1
  O  O170  1  0.41578370  0.02348912  0.08958117  1
  O  O171  1  0.91748853  0.01602600  0.08419770  1
  O  O172  1  0.09633916  0.17051857  0.08949475  1
  O  O173  1  0.58971239  0.16237989  0.08526894  1
  O  O174  1  0.34317991  0.15219537  0.74967517  1
  O  O175  1  0.84309500  0.15224035  0.74949880  1
  O  O176  1  0.23119407  0.30538235  0.75011284  1
  O  O177  1  0.73117615  0.30549560  0.75007120  1
  O  O178  1  0.42633588  0.52810641  0.75102838  1
  O  O179  1  0.92636638  0.52822534  0.75102017  1
  O  O180  1  0.34463732  0.52441125  0.24367782  1
  O  O181  1  0.84344412  0.53454924  0.24986349  1
  O  O182  1  0.41800400  0.31242812  0.24370935  1
  O  O183  1  0.92653112  0.32294279  0.25127088  1
  O  O184  1  0.23815052  0.16392339  0.24326532  1
  O  O185  1  0.73013916  0.15722868  0.25069679  1
  O  O186  1  0.32229220  0.50045444  0.92315616  1
  O  O187  1  0.82280960  0.49925044  0.92336665  1
  O  O188  1  0.42765892  0.35655585  0.92177336  1
  O  O189  1  0.92845973  0.35779898  0.92291450  1
  O  O190  1  0.25048039  0.14459077  0.92193968  1
  O  O191  1  0.74999092  0.14425267  0.92277615  1
  O  O192  1  0.32252763  0.14512642  0.42259691  1
  O  O193  1  0.82293880  0.14587347  0.42291692  1
  O  O194  1  0.25040250  0.35427706  0.42272831  1
  O  O195  1  0.74936109  0.35462436  0.42148588  1
  O  O196  1  0.42715355  0.49860397  0.42271595  1
  O  O197  1  0.92834294  0.49961892  0.42150158  1
  O  O198  1  0.17909852  0.49961810  0.07718912  1
  O  O199  1  0.66999257  0.49241971  0.07414650  1
  O  O200  1  0.07637611  0.65484648  0.07464550  1
  O  O201  1  0.57054327  0.64530322  0.07671052  1
  O  O202  1  0.25160850  0.85889159  0.07756104  1
  O  O203  1  0.75173526  0.84637438  0.07301765  1
  O  O204  1  0.17151592  0.84777252  0.57368818  1
  O  O205  1  0.67175393  0.84798613  0.57389779  1
  O  O206  1  0.25259495  0.65941029  0.57263168  1
  O  O207  1  0.75230114  0.65840732  0.57240498  1
  O  O208  1  0.07600868  0.49623286  0.57374152  1
  O  O209  1  0.57626040  0.49562478  0.57362433  1
  O  O210  1  0.15197883  0.83056376  0.25570387  1
  O  O211  1  0.64801220  0.82393366  0.25678342  1
  O  O212  1  0.26302241  0.69234273  0.25475529  1
  O  O213  1  0.76040661  0.69463976  0.25716171  1
  O  O214  1  0.08867749  0.48017085  0.25570742  1
  O  O215  1  0.58461024  0.47087065  0.25675354  1
  O  O216  1  0.14585472  0.47044844  0.75757802  1
  O  O217  1  0.64573353  0.47048635  0.75752594  1
  O  O218  1  0.08973271  0.70490065  0.75731255  1
  O  O219  1  0.58970397  0.70488987  0.75751980  1
  O  O220  1  0.26135117  0.82535883  0.75681675  1
  O  O221  1  0.76130111  0.82561327  0.75662596  1
