# generated using pymatgen
data_Na5Hf2Al2SiP5O24
_symmetry_space_group_name_H-M   'P 1'
_cell_length_a   8.80120653
_cell_length_b   8.78216261
_cell_length_c   22.21372333
_cell_angle_alpha   90.01529050
_cell_angle_beta   89.94134606
_cell_angle_gamma   119.85113354
_symmetry_Int_Tables_number   1
_chemical_formula_structural   Na5Hf2Al2SiP5O24
_chemical_formula_sum   'Na15 Hf6 Al6 Si3 P15 O72'
_cell_volume   1489.17231951
_cell_formula_units_Z   3
loop_
 _symmetry_equiv_pos_site_id
 _symmetry_equiv_pos_as_xyz
  1  'x, y, z'
loop_
 _atom_site_type_symbol
 _atom_site_label
 _atom_site_symmetry_multiplicity
 _atom_site_fract_x
 _atom_site_fract_y
 _atom_site_fract_z
 _atom_site_occupancy
  Na  Na0  1  0.00225349  0.63512421  0.25207183  1
  Na  Na1  1  0.63430133  0.64202984  0.75264263  1
  Na  Na2  1  0.36357453  0.99678060  0.75303690  1
  Na  Na3  1  0.66273056  0.96866903  0.58456594  1
  Na  Na4  1  0.29709786  0.96817575  0.08450215  1
  Na  Na5  1  0.67305916  0.69875208  0.08314947  1
  Na  Na6  1  0.02883371  0.33339998  0.08543227  1
  Na  Na7  1  0.96911628  0.30055212  0.41495951  1
  Na  Na8  1  0.33566279  0.03304305  0.41731694  1
  Na  Na9  1  0.00256191  0.99016984  0.49795785  1
  Na  Na10  1  0.00019180  0.99669674  0.99906512  1
  Na  Na11  1  0.67669734  0.33061350  0.83950477  1
  Na  Na12  1  0.65793030  0.33519972  0.33609692  1
  Na  Na13  1  0.34030766  0.66708870  0.17334544  1
  Na  Na14  1  0.31868107  0.65574578  0.66891261  1
  Hf  Hf15  1  0.99670931  0.00245462  0.85656289  1
  Hf  Hf16  1  0.00515738  0.00046223  0.64603542  1
  Hf  Hf17  1  0.66883139  0.32882873  0.68597324  1
  Hf  Hf18  1  0.66545671  0.33074780  0.19046702  1
  Hf  Hf19  1  0.33039170  0.66690584  0.01626681  1
  Hf  Hf20  1  0.33185088  0.66617413  0.51732792  1
  Al  Al21  1  0.99622941  0.99644945  0.35017149  1
  Al  Al22  1  0.99716108  0.99423777  0.15151424  1
  Al  Al23  1  0.67208120  0.34106764  0.97839263  1
  Al  Al24  1  0.66243341  0.33864961  0.48049498  1
  Al  Al25  1  0.34119708  0.66610963  0.31438515  1
  Al  Al26  1  0.33306667  0.66690738  0.81765285  1
  Si  Si27  1  0.69751234  0.99294740  0.75126735  1
  Si  Si28  1  0.37676039  0.04836652  0.57814775  1
  Si  Si29  1  0.95169440  0.62690615  0.08311822  1
  P  P30  1  0.28081058  0.99298404  0.25290117  1
  P  P31  1  0.70984221  0.72311689  0.25167634  1
  P  P32  1  0.01049473  0.28620215  0.25171721  1
  P  P33  1  0.28901339  0.30100289  0.75219099  1
  P  P34  1  0.00756016  0.70603338  0.75297512  1
  P  P35  1  0.95390805  0.33516834  0.57836816  1
  P  P36  1  0.66793042  0.61848599  0.58036332  1
  P  P37  1  0.67406835  0.04970475  0.08167184  1
  P  P38  1  0.37578958  0.32595710  0.08202774  1
  P  P39  1  0.62089314  0.65413311  0.91554205  1
  P  P40  1  0.03649199  0.38183019  0.91543675  1
  P  P41  1  0.34666849  0.96952656  0.91545084  1
  P  P42  1  0.62992937  0.95846019  0.41258873  1
  P  P43  1  0.33596572  0.37434779  0.41195582  1
  P  P44  1  0.03474972  0.66613232  0.41225551  1
  O  O45  1  0.19375621  0.01948632  0.30881609  1
  O  O46  1  0.83462752  0.80827171  0.30500022  1
  O  O47  1  0.98184784  0.17405090  0.30807537  1
  O  O48  1  0.21086418  0.17406631  0.80528374  1
  O  O49  1  0.97244750  0.79374376  0.80649977  1
  O  O50  1  0.82824854  0.02570529  0.80652448  1
  O  O51  1  0.78119615  0.95753058  0.68987711  1
  O  O52  1  0.17872288  0.21364072  0.69498701  1
  O  O53  1  0.04226237  0.82474505  0.69620974  1
  O  O54  1  0.79205477  0.82590168  0.19216104  1
  O  O55  1  0.02846291  0.19911591  0.19315696  1
  O  O56  1  0.16913668  0.96505244  0.19478217  1
  O  O57  1  0.87360632  0.36258442  0.63628221  1
  O  O58  1  0.49038274  0.12631239  0.64041653  1
  O  O59  1  0.64337548  0.52083390  0.64053641  1
  O  O60  1  0.87473821  0.50504557  0.14408682  1
  O  O61  1  0.62980684  0.12392280  0.13835281  1
  O  O62  1  0.49225393  0.36400773  0.13871211  1
  O  O63  1  0.46016341  0.29169192  0.02743152  1
  O  O64  1  0.82151095  0.52949310  0.02711741  1
  O  O65  1  0.70226370  0.16637853  0.02712039  1
  O  O66  1  0.47670863  0.16408046  0.51946109  1
  O  O67  1  0.69293006  0.52690979  0.52616880  1
  O  O68  1  0.84033950  0.30889936  0.52246209  1
  O  O69  1  0.54182996  0.68667610  0.97387645  1
  O  O70  1  0.14431934  0.45752855  0.97491132  1
  O  O71  1  0.31385780  0.85563332  0.97367276  1
  O  O72  1  0.55293488  0.85154774  0.47191548  1
  O  O73  1  0.29561455  0.45142569  0.46896808  1
  O  O74  1  0.15759220  0.70437410  0.46793434  1
  O  O75  1  0.12299557  0.62984778  0.35754602  1
  O  O76  1  0.49785089  0.86362069  0.36129922  1
  O  O77  1  0.36086332  0.49499516  0.35846376  1
  O  O78  1  0.13723232  0.50042565  0.86220516  1
  O  O79  1  0.36434617  0.87262871  0.86005602  1
  O  O80  1  0.50770111  0.63748811  0.86012214  1
  O  O81  1  0.02141687  0.83465924  0.40560916  1
  O  O82  1  0.81649796  0.98392019  0.40507828  1
  O  O83  1  0.16961215  0.18664551  0.40592579  1
  O  O84  1  0.02224784  0.19868294  0.91199224  1
  O  O85  1  0.17974718  0.98540268  0.91175813  1
  O  O86  1  0.80578767  0.82005445  0.91199937  1
  O  O87  1  0.96319708  0.16410500  0.58545129  1
  O  O88  1  0.18273823  0.02514511  0.58424982  1
  O  O89  1  0.82870364  0.80693239  0.58500017  1
  O  O90  1  0.97663591  0.82464144  0.09291415  1
  O  O91  1  0.83880220  0.03086556  0.09125005  1
  O  O92  1  0.18924971  0.16623575  0.09174763  1
  O  O93  1  0.67196516  0.16477547  0.74824546  1
  O  O94  1  0.47599685  0.32450611  0.74440614  1
  O  O95  1  0.83751509  0.52896169  0.74532733  1
  O  O96  1  0.69465831  0.53613454  0.24633686  1
  O  O97  1  0.84388993  0.31020728  0.24733452  1
  O  O98  1  0.46564881  0.15756808  0.24711089  1
  O  O99  1  0.63491935  0.48805200  0.92259555  1
  O  O100  1  0.85502977  0.36313702  0.92308463  1
  O  O101  1  0.51170011  0.14839114  0.92418955  1
  O  O102  1  0.64895181  0.14503546  0.41929002  1
  O  O103  1  0.49965971  0.35275496  0.42037841  1
  O  O104  1  0.85516866  0.49774607  0.42283230  1
  O  O105  1  0.35706340  0.49365341  0.07710664  1
  O  O106  1  0.15083422  0.65123766  0.07855637  1
  O  O107  1  0.51216581  0.86045889  0.07671901  1
  O  O108  1  0.36276623  0.85415368  0.57572648  1
  O  O109  1  0.50522221  0.64252818  0.57496986  1
  O  O110  1  0.13918009  0.49375874  0.57465133  1
  O  O111  1  0.29882691  0.82541378  0.25892215  1
  O  O112  1  0.52545456  0.69980109  0.25930675  1
  O  O113  1  0.17002742  0.47592476  0.25716561  1
  O  O114  1  0.30933178  0.48276847  0.76071864  1
  O  O115  1  0.17069089  0.68834515  0.76078185  1
  O  O116  1  0.50423597  0.81815832  0.75998097  1
