# generated using pymatgen
data_Rb2PbO3
_symmetry_space_group_name_H-M   'P 1'
_cell_length_a   6.05167787
_cell_length_b   6.60688635
_cell_length_c   6.60688850
_cell_angle_alpha   111.73076332
_cell_angle_beta   90.00000000
_cell_angle_gamma   90.00000000
_symmetry_Int_Tables_number   1
_chemical_formula_structural   Rb2PbO3
_chemical_formula_sum   'Rb4 Pb2 O6'
_cell_volume   245.38862881
_cell_formula_units_Z   2
loop_
 _symmetry_equiv_pos_site_id
 _symmetry_equiv_pos_as_xyz
  1  'x, y, z'
loop_
 _atom_site_type_symbol
 _atom_site_label
 _atom_site_symmetry_multiplicity
 _atom_site_fract_x
 _atom_site_fract_y
 _atom_site_fract_z
 _atom_site_occupancy
  Rb  Rb0  1  0.26574044  0.48177739  0.80637567  1
  Rb  Rb1  1  0.76574044  0.19362433  0.51822261  1
  Rb  Rb2  1  0.76574044  0.51822261  0.19362433  1
  Rb  Rb3  1  0.26574044  0.80637567  0.48177739  1
  Pb  Pb4  1  0.74002162  0.90613296  0.90613296  1
  Pb  Pb5  1  0.24002162  0.09386704  0.09386704  1
  O  O6  1  0.66951593  0.63747377  0.63747377  1
  O  O7  1  0.16951593  0.36252623  0.36252623  1
  O  O8  1  0.99949228  0.85005745  0.10974986  1
  O  O9  1  0.49949228  0.14994255  0.89025014  1
  O  O10  1  0.99949228  0.10974986  0.85005745  1
  O  O11  1  0.49949228  0.89025014  0.14994255  1
