# generated using pymatgen
data_Ba3MgV2O8
_symmetry_space_group_name_H-M   'P 1'
_cell_length_a   8.31238525
_cell_length_b   8.31238512
_cell_length_c   8.31238544
_cell_angle_alpha   41.66798258
_cell_angle_beta   41.66797997
_cell_angle_gamma   41.66798220
_symmetry_Int_Tables_number   1
_chemical_formula_structural   Ba3MgV2O8
_chemical_formula_sum   'Ba3 Mg1 V2 O8'
_cell_volume   229.47247510
_cell_formula_units_Z   1
loop_
 _symmetry_equiv_pos_site_id
 _symmetry_equiv_pos_as_xyz
  1  'x, y, z'
loop_
 _atom_site_type_symbol
 _atom_site_label
 _atom_site_symmetry_multiplicity
 _atom_site_fract_x
 _atom_site_fract_y
 _atom_site_fract_z
 _atom_site_occupancy
  Ba  Ba0  1  0.20397400  0.20397400  0.20397400  1
  Ba  Ba1  1  0.79602600  0.79602600  0.79602600  1
  Ba  Ba2  1  0.00000000  0.00000000  0.00000000  1
  Mg  Mg3  1  0.50000000  0.50000000  0.50000000  1
  V  V4  1  0.60669200  0.60669200  0.60669200  1
  V  V5  1  0.39330800  0.39330800  0.39330800  1
  O  O6  1  0.68387200  0.68387200  0.68387200  1
  O  O7  1  0.31612800  0.31612800  0.31612800  1
  O  O8  1  0.25564000  0.71737300  0.71737300  1
  O  O9  1  0.71737300  0.71737300  0.25564000  1
  O  O10  1  0.71737300  0.25564000  0.71737300  1
  O  O11  1  0.74436000  0.28262700  0.28262700  1
  O  O12  1  0.28262700  0.74436000  0.28262700  1
  O  O13  1  0.28262700  0.28262700  0.74436000  1
