# generated using pymatgen
data_MgCu2SnHgS4
_symmetry_space_group_name_H-M   'P 1'
_cell_length_a   6.01310000
_cell_length_b   6.45906700
_cell_length_c   6.85564607
_cell_angle_alpha   118.10419005
_cell_angle_beta   116.01145236
_cell_angle_gamma   90.00000000
_symmetry_Int_Tables_number   1
_chemical_formula_structural   MgCu2SnHgS4
_chemical_formula_sum   'Mg1 Cu2 Sn1 Hg1 S4'
_cell_volume   203.78703410
_cell_formula_units_Z   1
loop_
 _symmetry_equiv_pos_site_id
 _symmetry_equiv_pos_as_xyz
  1  'x, y, z'
loop_
 _atom_site_type_symbol
 _atom_site_label
 _atom_site_symmetry_multiplicity
 _atom_site_fract_x
 _atom_site_fract_y
 _atom_site_fract_z
 _atom_site_occupancy
  Mg  Mg0  1  0.50000000  0.00000000  0.00000000  1
  Cu  Cu1  1  0.24348000  0.74348000  0.48696000  1
  Cu  Cu2  1  0.75652000  0.25652000  0.51304000  1
  Sn  Sn3  1  0.50000000  0.50000000  0.00000000  1
  Hg  Hg4  1  0.00000000  0.00000000  0.00000000  1
  S  S5  1  0.40694000  0.36620100  0.29686900  1
  S  S6  1  0.88992900  0.93066700  0.29686900  1
  S  S7  1  0.11007100  0.63379900  0.70313100  1
  S  S8  1  0.59306000  0.06933300  0.70313100  1
