# generated using pymatgen
data_Nb3Cl7
_symmetry_space_group_name_H-M   'P 1'
_cell_length_a   9.27452651
_cell_length_b   9.27452667
_cell_length_c   11.15199965
_cell_angle_alpha   90.00000000
_cell_angle_beta   90.00000000
_cell_angle_gamma   94.64057696
_symmetry_Int_Tables_number   1
_chemical_formula_structural   Nb3Cl7
_chemical_formula_sum   'Nb12 Cl28'
_cell_volume   956.11519205
_cell_formula_units_Z   4
loop_
 _symmetry_equiv_pos_site_id
 _symmetry_equiv_pos_as_xyz
  1  'x, y, z'
loop_
 _atom_site_type_symbol
 _atom_site_label
 _atom_site_symmetry_multiplicity
 _atom_site_fract_x
 _atom_site_fract_y
 _atom_site_fract_z
 _atom_site_occupancy
  Nb  Nb0  1  0.13547374  0.13547374  0.90351301  1
  Nb  Nb1  1  0.36452626  0.36452626  0.40351301  1
  Nb  Nb2  1  0.63547374  0.63547374  0.59648699  1
  Nb  Nb3  1  0.86452626  0.86452626  0.09648699  1
  Nb  Nb4  1  0.95362147  0.17094364  0.11190945  1
  Nb  Nb5  1  0.54637853  0.32905636  0.61190945  1
  Nb  Nb6  1  0.67094364  0.45362147  0.38809055  1
  Nb  Nb7  1  0.82905636  0.04637853  0.88809055  1
  Nb  Nb8  1  0.04637853  0.82905636  0.88809055  1
  Nb  Nb9  1  0.45362147  0.67094364  0.38809055  1
  Nb  Nb10  1  0.32905636  0.54637853  0.61190945  1
  Nb  Nb11  1  0.17094364  0.95362147  0.11190945  1
  Cl  Cl12  1  0.89291406  0.39291406  0.25000000  1
  Cl  Cl13  1  0.60708594  0.10708594  0.75000000  1
  Cl  Cl14  1  0.10708594  0.60708594  0.75000000  1
  Cl  Cl15  1  0.39291406  0.89291406  0.25000000  1
  Cl  Cl16  1  0.11286102  0.36218993  0.01234887  1
  Cl  Cl17  1  0.38713898  0.13781007  0.51234887  1
  Cl  Cl18  1  0.86218993  0.61286102  0.48765113  1
  Cl  Cl19  1  0.63781007  0.88713898  0.98765113  1
  Cl  Cl20  1  0.88713898  0.63781007  0.98765113  1
  Cl  Cl21  1  0.61286102  0.86218993  0.48765113  1
  Cl  Cl22  1  0.13781007  0.38713898  0.51234887  1
  Cl  Cl23  1  0.36218993  0.11286102  0.01234887  1
  Cl  Cl24  1  0.25210281  0.74789719  0.00000000  1
  Cl  Cl25  1  0.24789719  0.75210281  0.50000000  1
  Cl  Cl26  1  0.74789719  0.25210281  0.00000000  1
  Cl  Cl27  1  0.75210281  0.24789719  0.50000000  1
  Cl  Cl28  1  0.14844651  0.14844651  0.26685279  1
  Cl  Cl29  1  0.35155349  0.35155349  0.76685279  1
  Cl  Cl30  1  0.64844651  0.64844651  0.23314721  1
  Cl  Cl31  1  0.85155349  0.85155349  0.73314721  1
  Cl  Cl32  1  0.53206540  0.28367349  0.25288442  1
  Cl  Cl33  1  0.96793460  0.21632651  0.75288442  1
  Cl  Cl34  1  0.78367349  0.03206540  0.24711558  1
  Cl  Cl35  1  0.71632651  0.46793460  0.74711558  1
  Cl  Cl36  1  0.46793460  0.71632651  0.74711558  1
  Cl  Cl37  1  0.03206540  0.78367349  0.24711558  1
  Cl  Cl38  1  0.21632651  0.96793460  0.75288442  1
  Cl  Cl39  1  0.28367349  0.53206540  0.25288442  1
