# generated using pymatgen
data_CsNaGe2
_symmetry_space_group_name_H-M   'P 1'
_cell_length_a   9.72585599
_cell_length_b   8.54394920
_cell_length_c   13.33475170
_cell_angle_alpha   68.65948400
_cell_angle_beta   90.00000000
_cell_angle_gamma   90.00000000
_symmetry_Int_Tables_number   1
_chemical_formula_structural   CsNaGe2
_chemical_formula_sum   'Cs8 Na8 Ge16'
_cell_volume   1032.10426134
_cell_formula_units_Z   8
loop_
 _symmetry_equiv_pos_site_id
 _symmetry_equiv_pos_as_xyz
  1  'x, y, z'
loop_
 _atom_site_type_symbol
 _atom_site_label
 _atom_site_symmetry_multiplicity
 _atom_site_fract_x
 _atom_site_fract_y
 _atom_site_fract_z
 _atom_site_occupancy
  Cs  Cs0  1  0.98077449  0.49171492  0.27789464  1
  Cs  Cs1  1  0.48077449  0.50828508  0.22210536  1
  Cs  Cs2  1  0.01922551  0.50828508  0.72210536  1
  Cs  Cs3  1  0.51922551  0.49171492  0.77789464  1
  Cs  Cs4  1  0.20398691  0.65385843  0.96562976  1
  Cs  Cs5  1  0.70398691  0.34614157  0.53437024  1
  Cs  Cs6  1  0.79601309  0.34614157  0.03437024  1
  Cs  Cs7  1  0.29601309  0.65385843  0.46562976  1
  Na  Na8  1  0.10065097  0.05419650  0.39634062  1
  Na  Na9  1  0.53587103  0.94980691  0.68569478  1
  Na  Na10  1  0.03587103  0.05019309  0.81430522  1
  Na  Na11  1  0.39934903  0.05419650  0.89634062  1
  Na  Na12  1  0.89934903  0.94580350  0.60365938  1
  Na  Na13  1  0.60065097  0.94580350  0.10365938  1
  Na  Na14  1  0.46412897  0.05019309  0.31430522  1
  Na  Na15  1  0.96412897  0.94980691  0.18569478  1
  Ge  Ge16  1  0.59823262  0.76627036  0.94095708  1
  Ge  Ge17  1  0.16489917  0.18658967  0.98896602  1
  Ge  Ge18  1  0.33510083  0.18658967  0.48896602  1
  Ge  Ge19  1  0.66489917  0.81341033  0.51103398  1
  Ge  Ge20  1  0.68963030  0.78515011  0.32881888  1
  Ge  Ge21  1  0.18963030  0.21484989  0.17118112  1
  Ge  Ge22  1  0.31036970  0.21484989  0.67118112  1
  Ge  Ge23  1  0.81036970  0.78515011  0.82881888  1
  Ge  Ge24  1  0.77742832  0.05563045  0.35415728  1
  Ge  Ge25  1  0.40176738  0.23372964  0.05904292  1
  Ge  Ge26  1  0.90176738  0.76627036  0.44095708  1
  Ge  Ge27  1  0.72257168  0.05563045  0.85415728  1
  Ge  Ge28  1  0.22257168  0.94436955  0.64584272  1
  Ge  Ge29  1  0.27742832  0.94436955  0.14584272  1
  Ge  Ge30  1  0.83510083  0.81341033  0.01103398  1
  Ge  Ge31  1  0.09823262  0.23372964  0.55904292  1
