# generated using pymatgen
data_MgV3O6
_symmetry_space_group_name_H-M   'P 1'
_cell_length_a   5.36754033
_cell_length_b   5.10286192
_cell_length_c   5.09448234
_cell_angle_alpha   112.74524437
_cell_angle_beta   75.28741384
_cell_angle_gamma   75.98912501
_symmetry_Int_Tables_number   1
_chemical_formula_structural   MgV3O6
_chemical_formula_sum   'Mg1 V3 O6'
_cell_volume   115.05249501
_cell_formula_units_Z   1
loop_
 _symmetry_equiv_pos_site_id
 _symmetry_equiv_pos_as_xyz
  1  'x, y, z'
loop_
 _atom_site_type_symbol
 _atom_site_label
 _atom_site_symmetry_multiplicity
 _atom_site_fract_x
 _atom_site_fract_y
 _atom_site_fract_z
 _atom_site_occupancy
  Mg  Mg0  1  0.95576300  0.61012400  0.33089100  1
  V  V1  1  0.99474600  0.00378600  0.98748100  1
  V  V2  1  0.49584300  0.82615600  0.17370500  1
  V  V3  1  0.48557100  0.18749000  0.80873200  1
  O  O4  1  0.23597300  0.19855300  0.18568000  1
  O  O5  1  0.26696700  0.59830600  0.96389000  1
  O  O6  1  0.28266900  0.96395500  0.61764800  1
  O  O7  1  0.73391800  0.40470400  0.06558200  1
  O  O8  1  0.73749100  0.02304700  0.37536700  1
  O  O9  1  0.74855800  0.82512400  0.78727700  1
