# generated using pymatgen
data_Na4Mg(BiO3)2
_symmetry_space_group_name_H-M   'P 1'
_cell_length_a   6.32272542
_cell_length_b   6.07815111
_cell_length_c   6.61360872
_cell_angle_alpha   78.55376451
_cell_angle_beta   109.51889610
_cell_angle_gamma   65.62573313
_symmetry_Int_Tables_number   1
_chemical_formula_structural   Na4Mg(BiO3)2
_chemical_formula_sum   'Na4 Mg1 Bi2 O6'
_cell_volume   200.76371009
_cell_formula_units_Z   1
loop_
 _symmetry_equiv_pos_site_id
 _symmetry_equiv_pos_as_xyz
  1  'x, y, z'
loop_
 _atom_site_type_symbol
 _atom_site_label
 _atom_site_symmetry_multiplicity
 _atom_site_fract_x
 _atom_site_fract_y
 _atom_site_fract_z
 _atom_site_occupancy
  Na  Na0  1  0.54629118  0.64390738  0.51733167  1
  Na  Na1  1  0.28463584  0.23877943  0.41154318  1
  Na  Na2  1  0.80288142  0.67842149  0.97160741  1
  Na  Na3  1  0.42658842  0.50497927  0.02863943  1
  Mg  Mg4  1  0.35482022  0.14007428  0.86463939  1
  Bi  Bi5  1  0.93936641  0.88280692  0.49104201  1
  Bi  Bi6  1  0.98862336  0.08434895  -0.00058904  1
  O  O7  1  0.32395962  0.87629213  0.72884873  1
  O  O8  1  0.11883121  0.71132951  0.27671828  1
  O  O9  1  0.03408434  0.50345687  0.74879824  1
  O  O10  1  0.60876430  0.17341277  0.76697536  1
  O  O11  1  0.50194256  0.01046826  0.21465573  1
  O  O12  1  0.87306212  0.28953875  0.19830462  1
