# generated using pymatgen
data_Ba(YS2)2
_symmetry_space_group_name_H-M   'P 1'
_cell_length_a   4.05201593
_cell_length_b   12.30207801
_cell_length_c   14.56308398
_cell_angle_alpha   90.00000000
_cell_angle_beta   90.00000000
_cell_angle_gamma   90.00000000
_symmetry_Int_Tables_number   1
_chemical_formula_structural   Ba(YS2)2
_chemical_formula_sum   'Ba4 Y8 S16'
_cell_volume   725.94375686
_cell_formula_units_Z   4
loop_
 _symmetry_equiv_pos_site_id
 _symmetry_equiv_pos_as_xyz
  1  'x, y, z'
loop_
 _atom_site_type_symbol
 _atom_site_label
 _atom_site_symmetry_multiplicity
 _atom_site_fract_x
 _atom_site_fract_y
 _atom_site_fract_z
 _atom_site_occupancy
  Ba  Ba0  1  0.25000000  0.75765293  0.83828848  1
  Ba  Ba1  1  0.75000000  0.24234707  0.16171152  1
  Ba  Ba2  1  0.25000000  0.25765293  0.66171152  1
  Ba  Ba3  1  0.75000000  0.74234707  0.33828848  1
  Y  Y4  1  0.25000000  0.92124009  0.10171975  1
  Y  Y5  1  0.75000000  0.07875991  0.89828025  1
  Y  Y6  1  0.25000000  0.42124009  0.39828025  1
  Y  Y7  1  0.75000000  0.57875991  0.60171975  1
  Y  Y8  1  0.25000000  0.93284993  0.60879479  1
  Y  Y9  1  0.75000000  0.06715007  0.39120521  1
  Y  Y10  1  0.25000000  0.43284993  0.89120521  1
  Y  Y11  1  0.75000000  0.56715007  0.10879479  1
  S  S12  1  0.75000000  0.79275093  0.66306089  1
  S  S13  1  0.25000000  0.20724907  0.33693911  1
  S  S14  1  0.75000000  0.29275093  0.83693911  1
  S  S15  1  0.25000000  0.70724907  0.16306089  1
  S  S16  1  0.75000000  0.87617312  0.97709404  1
  S  S17  1  0.25000000  0.12382688  0.02290596  1
  S  S18  1  0.75000000  0.37617312  0.52290596  1
  S  S19  1  0.25000000  0.62382688  0.47709404  1
  S  S20  1  0.25000000  0.91918414  0.42327059  1
  S  S21  1  0.75000000  0.08081586  0.57672941  1
  S  S22  1  0.25000000  0.41918414  0.07672941  1
  S  S23  1  0.75000000  0.58081586  0.92327059  1
  S  S24  1  0.25000000  0.52229549  0.71690635  1
  S  S25  1  0.75000000  0.47770451  0.28309365  1
  S  S26  1  0.25000000  0.02229549  0.78309365  1
  S  S27  1  0.75000000  0.97770451  0.21690635  1
