# generated using pymatgen
data_Ca2SiO4
_symmetry_space_group_name_H-M   'P 1'
_cell_length_a   8.29517619
_cell_length_b   5.77237030
_cell_length_c   9.21125806
_cell_angle_alpha   61.77719936
_cell_angle_beta   90.00000000
_cell_angle_gamma   90.00000000
_symmetry_Int_Tables_number   1
_chemical_formula_structural   Ca2SiO4
_chemical_formula_sum   'Ca8 Si4 O16'
_cell_volume   388.62569024
_cell_formula_units_Z   4
loop_
 _symmetry_equiv_pos_site_id
 _symmetry_equiv_pos_as_xyz
  1  'x, y, z'
loop_
 _atom_site_type_symbol
 _atom_site_label
 _atom_site_symmetry_multiplicity
 _atom_site_fract_x
 _atom_site_fract_y
 _atom_site_fract_z
 _atom_site_occupancy
  Ca  Ca0  1  0.98756866  0.14670755  0.63690214  1
  Ca  Ca1  1  0.48756866  0.85329245  0.86309786  1
  Ca  Ca2  1  0.15813100  0.58217204  0.12747422  1
  Ca  Ca3  1  0.51243134  0.14670755  0.13690214  1
  Ca  Ca4  1  0.65813100  0.41782796  0.37252578  1
  Ca  Ca5  1  0.01243134  0.85329245  0.36309786  1
  Ca  Ca6  1  0.34186900  0.58217204  0.62747422  1
  Ca  Ca7  1  0.84186900  0.41782796  0.87252578  1
  Si  Si8  1  0.69451160  0.75856270  0.53662824  1
  Si  Si9  1  0.19451160  0.24143730  0.96337176  1
  Si  Si10  1  0.80548840  0.75856270  0.03662824  1
  Si  Si11  1  0.30548840  0.24143730  0.46337176  1
  O  O12  1  0.17924160  0.48372625  0.43479113  1
  O  O13  1  0.80688296  0.02550360  0.47653952  1
  O  O14  1  0.56287140  0.78788054  0.39505814  1
  O  O15  1  0.60292084  0.67131373  0.71174710  1
  O  O16  1  0.10292084  0.32868627  0.78825290  1
  O  O17  1  0.06287140  0.21211946  0.10494186  1
  O  O18  1  0.32075840  0.48372625  0.93479113  1
  O  O19  1  0.30688296  0.97449640  0.02346048  1
  O  O20  1  0.69311704  0.02550360  0.97653952  1
  O  O21  1  0.67924160  0.51627375  0.06520887  1
  O  O22  1  0.93712860  0.78788054  0.89505814  1
  O  O23  1  0.89707916  0.67131373  0.21174710  1
  O  O24  1  0.39707916  0.32868627  0.28825290  1
  O  O25  1  0.43712860  0.21211946  0.60494186  1
  O  O26  1  0.19311704  0.97449640  0.52346048  1
  O  O27  1  0.82075840  0.51627375  0.56520887  1
