# generated using pymatgen
data_Na42Nb4Zn20Si15(S7O48)3
_symmetry_space_group_name_H-M   'P 1'
_cell_length_a   18.39818574
_cell_length_b   9.10515971
_cell_length_c   22.00949326
_cell_angle_alpha   90.10010689
_cell_angle_beta   90.42806103
_cell_angle_gamma   119.67686209
_symmetry_Int_Tables_number   1
_chemical_formula_structural   Na42Nb4Zn20Si15(S7O48)3
_chemical_formula_sum   'Na42 Nb4 Zn20 Si15 S21 O144'
_cell_volume   3203.22561145
_cell_formula_units_Z   1
loop_
 _symmetry_equiv_pos_site_id
 _symmetry_equiv_pos_as_xyz
  1  'x, y, z'
loop_
 _atom_site_type_symbol
 _atom_site_label
 _atom_site_symmetry_multiplicity
 _atom_site_fract_x
 _atom_site_fract_y
 _atom_site_fract_z
 _atom_site_occupancy
  Na  Na0  1  0.30875774  0.99578339  0.23533119  1
  Na  Na1  1  0.80588766  0.99332734  0.23681766  1
  Na  Na2  1  0.19194570  0.37144532  0.25047919  1
  Na  Na3  1  0.69180706  0.37110630  0.24138341  1
  Na  Na4  1  0.99770620  0.62769958  0.24896961  1
  Na  Na5  1  0.49733167  0.63371990  0.24711467  1
  Na  Na6  1  0.30455218  0.62036546  0.74176882  1
  Na  Na7  1  0.81075203  0.62403754  0.73919269  1
  Na  Na8  1  0.00029327  0.36084120  0.75587439  1
  Na  Na9  1  0.49608757  0.36501471  0.75349103  1
  Na  Na10  1  0.18903947  0.01081720  0.75471679  1
  Na  Na11  1  0.69429256  0.01389446  0.75446407  1
  Na  Na12  1  0.16387387  0.34691976  0.58675507  1
  Na  Na13  1  0.66364762  0.35158350  0.58888000  1
  Na  Na14  1  0.31538695  0.95873900  0.58807681  1
  Na  Na15  1  0.16032099  0.96969599  0.07265955  1
  Na  Na16  1  0.66357869  0.97977703  0.08222437  1
  Na  Na17  1  0.81734548  0.67575857  0.08396971  1
  Na  Na18  1  0.48093948  0.66473014  0.92120500  1
  Na  Na19  1  0.99273377  0.67976691  0.92082621  1
  Na  Na20  1  0.34269343  0.03248702  0.91446446  1
  Na  Na21  1  0.85687146  0.04714180  0.91741637  1
  Na  Na22  1  0.16382252  0.28899957  0.90785485  1
  Na  Na23  1  0.66849667  0.29227072  0.91941449  1
  Na  Na24  1  0.48173045  0.29658258  0.41694593  1
  Na  Na25  1  0.98308774  0.29721668  0.41911960  1
  Na  Na26  1  0.16847116  0.04526411  0.41893385  1
  Na  Na27  1  0.66540982  0.03814807  0.40829935  1
  Na  Na28  1  0.35563714  0.66279415  0.41768990  1
  Na  Na29  1  0.85388106  0.66558823  0.41826086  1
  Na  Na30  1  0.99616354  0.96715879  0.50308678  1
  Na  Na31  1  0.49638193  0.96717577  0.49690371  1
  Na  Na32  1  0.00600333  0.02168131  0.99168312  1
  Na  Na33  1  0.49109067  0.02193662  0.00064982  1
  Na  Na34  1  0.31789222  0.30615128  0.83056133  1
  Na  Na35  1  0.83233944  0.32792247  0.82918534  1
  Na  Na36  1  0.32909073  0.33514614  0.32690445  1
  Na  Na37  1  0.82802140  0.33402401  0.32616249  1
  Na  Na38  1  0.17956633  0.67427580  0.16037747  1
  Na  Na39  1  0.66734514  0.65763056  0.16158829  1
  Na  Na40  1  0.16738918  0.67892375  0.66568429  1
  Na  Na41  1  0.68064160  0.68382227  0.66507268  1
  Nb  Nb42  1  0.99670417  0.00024789  0.64780952  1
  Nb  Nb43  1  0.49575800  0.00177032  0.65033997  1
  Nb  Nb44  1  0.99545176  0.98858143  0.15020958  1
  Nb  Nb45  1  0.49656933  0.99012338  0.14647941  1
  Zn  Zn46  1  0.00256955  0.98046192  0.33622917  1
  Zn  Zn47  1  0.49783393  0.97333591  0.33157693  1
  Zn  Zn48  1  0.00560218  0.01710528  0.84534801  1
  Zn  Zn49  1  0.50093176  0.02333868  0.83925599  1
  Zn  Zn50  1  0.31417483  0.31578275  0.68146386  1
  Zn  Zn51  1  0.82677357  0.32865151  0.68395028  1
  Zn  Zn52  1  0.32445279  0.32348020  0.18115129  1
  Zn  Zn53  1  0.81637699  0.31516728  0.17971546  1
  Zn  Zn54  1  0.32037622  0.29043257  0.98734461  1
  Zn  Zn55  1  0.82427776  0.31052625  0.00370526  1
  Zn  Zn56  1  0.32136180  0.33703322  0.50808766  1
  Zn  Zn57  1  0.83783532  0.35123340  0.50052114  1
  Zn  Zn58  1  0.18083732  0.70182336  0.01073621  1
  Zn  Zn59  1  0.66963054  0.66526733  0.02058091  1
  Zn  Zn60  1  0.17124999  0.67443961  0.52047722  1
  Zn  Zn61  1  0.67820055  0.67709138  0.51750287  1
  Zn  Zn62  1  0.17656506  0.68820681  0.30927046  1
  Zn  Zn63  1  0.67507965  0.68401898  0.30992708  1
  Zn  Zn64  1  0.17671619  0.68201895  0.81302825  1
  Zn  Zn65  1  0.67630662  0.66354755  0.81023892  1
  Si  Si66  1  0.15082901  0.00257585  0.25494810  1
  Si  Si67  1  0.64824606  0.99804768  0.25440916  1
  Si  Si68  1  0.35006523  0.69347030  0.25314490  1
  Si  Si69  1  0.84947576  0.69280652  0.25611869  1
  Si  Si70  1  0.14825055  0.30463067  0.75338883  1
  Si  Si71  1  0.65084297  0.29844683  0.75405076  1
  Si  Si72  1  0.34920193  0.00949439  0.75448637  1
  Si  Si73  1  0.85355068  0.00615340  0.75537330  1
  Si  Si74  1  0.17794012  0.02278435  0.58174277  1
  Si  Si75  1  0.33675108  0.63482310  0.58201051  1
  Si  Si76  1  0.83100127  0.63237479  0.58256518  1
  Si  Si77  1  0.33178754  0.03279805  0.08394287  1
  Si  Si78  1  0.83550576  0.03721543  0.08258123  1
  Si  Si79  1  0.67876923  0.33279212  0.08276059  1
  Si  Si80  1  0.16254299  0.96480248  0.91411949  1
  S  S81  1  0.00084374  0.29042845  0.25312554  1
  S  S82  1  0.50170750  0.29083560  0.25321765  1
  S  S83  1  0.99880222  0.70689513  0.75037378  1
  S  S84  1  0.50129301  0.71145062  0.75244164  1
  S  S85  1  0.48439424  0.33327243  0.58363240  1
  S  S86  1  0.98135147  0.32804244  0.58277837  1
  S  S87  1  0.68049437  0.02948583  0.58195740  1
  S  S88  1  0.48040137  0.62883232  0.08271180  1
  S  S89  1  0.98209177  0.62981780  0.08684223  1
  S  S90  1  0.17817178  0.33289649  0.08423084  1
  S  S91  1  0.32021086  0.66669284  0.91644448  1
  S  S92  1  0.81593665  0.65903652  0.91757731  1
  S  S93  1  0.01982812  0.38359808  0.91809250  1
  S  S94  1  0.52260792  0.38088463  0.91439661  1
  S  S95  1  0.66393788  0.95377793  0.91513915  1
  S  S96  1  0.31920940  0.97222969  0.41654005  1
  S  S97  1  0.81698867  0.97410223  0.41733969  1
  S  S98  1  0.16394524  0.37497380  0.41500485  1
  S  S99  1  0.66456338  0.36972220  0.41666567  1
  S  S100  1  0.02026732  0.65950291  0.41507914  1
  S  S101  1  0.52426638  0.66170306  0.41727468  1
  O  O102  1  0.11353070  0.04082083  0.31620202  1
  O  O103  1  0.61011538  0.03489949  0.31563277  1
  O  O104  1  0.39832876  0.76456613  0.31833289  1
  O  O105  1  0.90001680  0.78165607  0.31842800  1
  O  O106  1  0.49023429  0.19308085  0.31008212  1
  O  O107  1  0.99020476  0.19409883  0.30992166  1
  O  O108  1  0.11017340  0.18985043  0.81288358  1
  O  O109  1  0.61128595  0.18181752  0.81372233  1
  O  O110  1  0.49099481  0.78720639  0.80894166  1
  O  O111  1  0.98708331  0.77892311  0.80699310  1
  O  O112  1  0.40190365  0.02590969  0.81572946  1
  O  O113  1  0.90557813  0.02805884  0.81767762  1
  O  O114  1  0.41068030  0.99735324  0.69617050  1
  O  O115  1  0.90936042  0.98529259  0.69892610  1
  O  O116  1  0.08516208  0.19119228  0.69425466  1
  O  O117  1  0.58951644  0.18360915  0.69337849  1
  O  O118  1  0.00457357  0.81687584  0.69750704  1
  O  O119  1  0.50549721  0.82352384  0.69904315  1
  O  O120  1  0.41061395  0.83327084  0.20093009  1
  O  O121  1  0.90845642  0.82685637  0.19839482  1
  O  O122  1  0.00508320  0.18886807  0.20008124  1
  O  O123  1  0.50747209  0.19464598  0.20022534  1
  O  O124  1  0.08589671  0.99233508  0.19725326  1
  O  O125  1  0.58472499  0.98589521  0.19726051  1
  O  O126  1  0.44520725  0.34466175  0.63928413  1
  O  O127  1  0.93889347  0.34309326  0.63605785  1
  O  O128  1  0.24218370  0.10644750  0.63859417  1
  O  O129  1  0.72852952  0.10542912  0.63829206  1
  O  O130  1  0.32723590  0.52018624  0.64021485  1
  O  O131  1  0.81583220  0.50327045  0.63829129  1
  O  O132  1  0.44122665  0.53651891  0.13850330  1
  O  O133  1  0.93922372  0.54121784  0.14210468  1
  O  O134  1  0.31972750  0.12838575  0.14207433  1
  O  O135  1  0.82495415  0.12916857  0.14203834  1
  O  O136  1  0.22639196  0.35552662  0.14100667  1
  O  O137  1  0.73985773  0.37628288  0.14173225  1
  O  O138  1  0.21808294  0.30324633  0.03070793  1
  O  O139  1  0.71712008  0.28585115  0.02285389  1
  O  O140  1  0.43240866  0.54931373  0.02714335  1
  O  O141  1  0.93060330  0.55661019  0.03114150  1
  O  O142  1  0.35122341  0.13400932  0.01987014  1
  O  O143  1  0.85371443  0.14108768  0.01931638  1
  O  O144  1  0.21526201  0.14336812  0.52055321  1
  O  O145  1  0.72291996  0.13472242  0.52742053  1
  O  O146  1  0.35603603  0.56919854  0.51795694  1
  O  O147  1  0.84655033  0.56358619  0.51749888  1
  O  O148  1  0.43165252  0.30414592  0.52850603  1
  O  O149  1  0.93406451  0.30973652  0.52502530  1
  O  O150  1  0.27528937  0.68529749  0.96854228  1
  O  O151  1  0.77298532  0.67544904  0.97183458  1
  O  O152  1  0.07384179  0.47788189  0.97018607  1
  O  O153  1  0.57507166  0.47748199  0.96653961  1
  O  O154  1  0.14803519  0.85579130  0.97638312  1
  O  O155  1  0.66180697  0.86134634  0.97131422  1
  O  O156  1  0.27723468  0.87062245  0.47096637  1
  O  O157  1  0.77325708  0.86377893  0.46914712  1
  O  O158  1  0.16170038  0.46314585  0.47126831  1
  O  O159  1  0.66137945  0.45818553  0.47253888  1
  O  O160  1  0.07136624  0.66383438  0.46727875  1
  O  O161  1  0.57616300  0.67021908  0.47030419  1
  O  O162  1  0.05858575  0.65122474  0.35664630  1
  O  O163  1  0.56457071  0.65546927  0.35937126  1
  O  O164  1  0.26982506  0.89040305  0.36021586  1
  O  O165  1  0.76975410  0.90003313  0.35946823  1
  O  O166  1  0.16573109  0.47098514  0.35969923  1
  O  O167  1  0.67153715  0.46993205  0.36145061  1
  O  O168  1  0.05828385  0.46576253  0.85943242  1
  O  O169  1  0.56174314  0.46656585  0.85603259  1
  O  O170  1  0.17984467  0.87581333  0.85497462  1
  O  O171  1  0.66591229  0.86153034  0.85969241  1
  O  O172  1  0.27350567  0.64372588  0.85841319  1
  O  O173  1  0.76553076  0.63692689  0.86116301  1
  O  O174  1  0.01164170  0.81537933  0.41830837  1
  O  O175  1  0.51527327  0.81694458  0.41943573  1
  O  O176  1  0.40433324  0.98889233  0.41476980  1
  O  O177  1  0.90270857  0.99537890  0.41633955  1
  O  O178  1  0.08685555  0.20443936  0.41599573  1
  O  O179  1  0.58637969  0.20185013  0.41669240  1
  O  O180  1  0.00738483  0.20791500  0.92051643  1
  O  O181  1  0.51396435  0.20756916  0.91715289  1
  O  O182  1  0.07671572  0.98109084  0.91123055  1
  O  O183  1  0.58688512  0.97007406  0.91614734  1
  O  O184  1  0.40525288  0.82203869  0.91568566  1
  O  O185  1  0.89946321  0.81364447  0.91560936  1
  O  O186  1  0.49253385  0.16974149  0.58610294  1
  O  O187  1  0.98686904  0.16606057  0.58509594  1
  O  O188  1  0.08731666  0.02007740  0.59206810  1
  O  O189  1  0.59731686  0.02899443  0.58461991  1
  O  O190  1  0.42018455  0.83364712  0.59068000  1
  O  O191  1  0.91526225  0.82131439  0.59353723  1
  O  O192  1  0.48668085  0.80559274  0.08587941  1
  O  O193  1  0.99116812  0.81138225  0.08894384  1
  O  O194  1  0.41635479  0.01122809  0.09642288  1
  O  O195  1  0.91849612  0.00503899  0.09274160  1
  O  O196  1  0.09393774  0.16600324  0.08930469  1
  O  O197  1  0.58764640  0.15342647  0.09317202  1
  O  O198  1  0.34657651  0.18250308  0.74565167  1
  O  O199  1  0.84698418  0.17714902  0.74438883  1
  O  O200  1  0.24215005  0.33084940  0.74721192  1
  O  O201  1  0.74454191  0.32548000  0.74843840  1
  O  O202  1  0.42957820  0.54169099  0.74482673  1
  O  O203  1  0.92526904  0.53585163  0.74303182  1
  O  O204  1  0.34448918  0.51119121  0.24178931  1
  O  O205  1  0.84713581  0.51484624  0.24708148  1
  O  O206  1  0.42938906  0.31840995  0.24745139  1
  O  O207  1  0.92869083  0.31661333  0.24640914  1
  O  O208  1  0.24396862  0.16274122  0.24811881  1
  O  O209  1  0.74241861  0.15780319  0.24879692  1
  O  O210  1  0.33073429  0.51495902  0.92318751  1
  O  O211  1  0.82592620  0.50617457  0.92137558  1
  O  O212  1  0.43825616  0.36597525  0.91610962  1
  O  O213  1  0.93585588  0.37334040  0.92014997  1
  O  O214  1  0.24678733  0.15681344  0.91816874  1
  O  O215  1  0.74046364  0.12483242  0.91367979  1
  O  O216  1  0.32803047  0.14415543  0.41973022  1
  O  O217  1  0.82347194  0.14473183  0.42349784  1
  O  O218  1  0.24044299  0.35715680  0.41354421  1
  O  O219  1  0.73927902  0.34472637  0.41767744  1
  O  O220  1  0.43995682  0.50820630  0.41827366  1
  O  O221  1  0.93463909  0.50517139  0.41663867  1
  O  O222  1  0.16158352  0.47254529  0.07671177  1
  O  O223  1  0.66466260  0.49344821  0.07631858  1
  O  O224  1  0.06731329  0.65867498  0.08429365  1
  O  O225  1  0.56871702  0.66909720  0.08016434  1
  O  O226  1  0.24853339  0.84458416  0.08109784  1
  O  O227  1  0.75253952  0.84709905  0.07996487  1
  O  O228  1  0.16378901  0.83356255  0.57531523  1
  O  O229  1  0.66311141  0.85454818  0.57616974  1
  O  O230  1  0.25354759  0.65772711  0.57942615  1
  O  O231  1  0.74644012  0.65138012  0.58088654  1
  O  O232  1  0.06850010  0.46657720  0.57992529  1
  O  O233  1  0.57080153  0.47274630  0.57803911  1
  O  O234  1  0.14782165  0.82030267  0.25014437  1
  O  O235  1  0.64710193  0.81683044  0.25055172  1
  O  O236  1  0.25818632  0.68098494  0.24933782  1
  O  O237  1  0.75882782  0.68303219  0.24960058  1
  O  O238  1  0.08024969  0.45238406  0.25126747  1
  O  O239  1  0.58071689  0.45511606  0.25335779  1
  O  O240  1  0.14877469  0.48551347  0.75214798  1
  O  O241  1  0.64795084  0.47478502  0.74898587  1
  O  O242  1  0.07659866  0.69838778  0.74862933  1
  O  O243  1  0.58122215  0.71032200  0.74979649  1
  O  O244  1  0.26172459  0.83555311  0.74553289  1
  O  O245  1  0.76066554  0.83557731  0.75171256  1
