# generated using pymatgen
data_Pr2Te4O11
_symmetry_space_group_name_H-M   'P 1'
_cell_length_a   6.87977155
_cell_length_b   6.87977155
_cell_length_c   16.42291202
_cell_angle_alpha   75.64207828
_cell_angle_beta   75.64207828
_cell_angle_gamma   45.01871041
_symmetry_Int_Tables_number   1
_chemical_formula_structural   Pr2Te4O11
_chemical_formula_sum   'Pr4 Te8 O22'
_cell_volume   529.64686881
_cell_formula_units_Z   2
loop_
 _symmetry_equiv_pos_site_id
 _symmetry_equiv_pos_as_xyz
  1  'x, y, z'
loop_
 _atom_site_type_symbol
 _atom_site_label
 _atom_site_symmetry_multiplicity
 _atom_site_fract_x
 _atom_site_fract_y
 _atom_site_fract_z
 _atom_site_occupancy
  Pr  Pr0  1  0.13750229  0.62700731  0.53739517  1
  Pr  Pr1  1  0.37299269  0.86249771  0.96260483  1
  Pr  Pr2  1  0.86249771  0.37299269  0.46260483  1
  Pr  Pr3  1  0.62700731  0.13750229  0.03739517  1
  Te  Te4  1  0.60644656  0.15514342  0.70165263  1
  Te  Te5  1  0.84485658  0.39355344  0.79834737  1
  Te  Te6  1  0.39355344  0.84485658  0.29834737  1
  Te  Te7  1  0.15514342  0.60644656  0.20165263  1
  Te  Te8  1  0.14901580  0.58873399  0.87191690  1
  Te  Te9  1  0.41126601  0.85098420  0.62808310  1
  Te  Te10  1  0.85098420  0.41126601  0.12808310  1
  Te  Te11  1  0.58873399  0.14901580  0.37191690  1
  O  O12  1  0.84859697  0.15140303  0.75000000  1
  O  O13  1  0.15140303  0.84859697  0.25000000  1
  O  O14  1  0.19663821  0.09529897  0.82816486  1
  O  O15  1  0.90470103  0.80336179  0.67183514  1
  O  O16  1  0.80336179  0.90470103  0.17183514  1
  O  O17  1  0.09529897  0.19663821  0.32816486  1
  O  O18  1  0.62064735  0.42986831  0.89909710  1
  O  O19  1  0.57013169  0.37935265  0.60090290  1
  O  O20  1  0.37935265  0.57013169  0.10090290  1
  O  O21  1  0.42986831  0.62064735  0.39909710  1
  O  O22  1  0.04972401  0.80364461  0.95273650  1
  O  O23  1  0.19635539  0.95027599  0.54726350  1
  O  O24  1  0.67942029  0.81769837  0.37187397  1
  O  O25  1  0.18230163  0.32057971  0.12812603  1
  O  O26  1  0.32057971  0.18230163  0.62812603  1
  O  O27  1  0.81769837  0.67942029  0.87187397  1
  O  O28  1  0.25419564  0.33090262  0.44210684  1
  O  O29  1  0.66909738  0.74580436  0.05789316  1
  O  O30  1  0.74580436  0.66909738  0.55789316  1
  O  O31  1  0.33090262  0.25419564  0.94210684  1
  O  O32  1  0.80364461  0.04972401  0.45273650  1
  O  O33  1  0.95027599  0.19635539  0.04726350  1
