# generated using pymatgen
data_Na3Ga2(PO4)3
_symmetry_space_group_name_H-M   'P 1'
_cell_length_a   8.72820666
_cell_length_b   8.72820402
_cell_length_c   21.90140786
_cell_angle_alpha   89.98025934
_cell_angle_beta   90.01974747
_cell_angle_gamma   119.99790230
_symmetry_Int_Tables_number   1
_chemical_formula_structural   Na3Ga2(PO4)3
_chemical_formula_sum   'Na18 Ga12 P18 O72'
_cell_volume   1444.97961348
_cell_formula_units_Z   6
loop_
 _symmetry_equiv_pos_site_id
 _symmetry_equiv_pos_as_xyz
  1  'x, y, z'
loop_
 _atom_site_type_symbol
 _atom_site_label
 _atom_site_symmetry_multiplicity
 _atom_site_fract_x
 _atom_site_fract_y
 _atom_site_fract_z
 _atom_site_occupancy
  Na  Na0  1  0.00022519  0.99987411  0.50000891  1
  Na  Na1  1  0.00012596  0.99977519  0.00000890  1
  Na  Na2  1  0.65295501  0.32572007  0.83332661  1
  Na  Na3  1  0.67427978  0.34704486  0.33332665  1
  Na  Na4  1  0.33363741  0.66656831  0.16666287  1
  Na  Na5  1  0.33343146  0.66636207  0.66666295  1
  Na  Na6  1  0.63385109  0.99853443  0.24985427  1
  Na  Na7  1  0.36682075  0.36567724  0.24993718  1
  Na  Na8  1  0.63432243  0.63317909  0.74993719  1
  Na  Na9  1  0.00146549  0.36614886  0.74985430  1
  Na  Na10  1  0.03148044  0.69967288  0.58333535  1
  Na  Na11  1  0.66525108  0.96684685  0.58324463  1
  Na  Na12  1  0.30032762  0.96851998  0.08333533  1
  Na  Na13  1  0.03315281  0.33474911  0.08324459  1
  Na  Na14  1  0.96668513  0.66543689  0.91707531  1
  Na  Na15  1  0.69897792  0.03106209  0.91659974  1
  Na  Na16  1  0.96893770  0.30102215  0.41659983  1
  Na  Na17  1  0.33456286  0.03331453  0.41707509  1
  Ga  Ga18  1  0.99388972  0.99168236  0.35051480  1
  Ga  Ga19  1  0.00831772  0.00611033  0.85051480  1
  Ga  Ga20  1  0.00749357  0.00645070  0.64953120  1
  Ga  Ga21  1  0.99354921  0.99250645  0.14953125  1
  Ga  Ga22  1  0.65897286  0.32755490  0.68382855  1
  Ga  Ga23  1  0.67244501  0.34102720  0.18382850  1
  Ga  Ga24  1  0.66046503  0.33454386  0.98287811  1
  Ga  Ga25  1  0.66545605  0.33953488  0.48287813  1
  Ga  Ga26  1  0.33930147  0.66619715  0.01711449  1
  Ga  Ga27  1  0.33380294  0.66069868  0.51711453  1
  Ga  Ga28  1  0.32847538  0.66521094  0.31624561  1
  Ga  Ga29  1  0.33478911  0.67152468  0.81624567  1
  P  P30  1  0.28915208  0.99647369  0.24996210  1
  P  P31  1  0.71098400  0.70780898  0.25015318  1
  P  P32  1  -0.00007938  0.29341365  0.24990448  1
  P  P33  1  0.29219109  0.28901597  0.75015323  1
  P  P34  1  0.00352654  0.71084803  0.74996209  1
  P  P35  1  0.70658618  0.00007917  0.74990452  1
  P  P36  1  0.95986532  0.33332810  0.58335450  1
  P  P37  1  0.37423578  0.04402206  0.58258094  1
  P  P38  1  0.66343611  0.62285495  0.58402715  1
  P  P39  1  0.95597788  0.62576408  0.08258090  1
  P  P40  1  0.66667199  0.04013487  0.08335454  1
  P  P41  1  0.37714515  0.33656389  0.08402715  1
  P  P42  1  0.62252076  0.66343843  0.91594494  1
  P  P43  1  0.04395992  0.37381716  0.91681592  1
  P  P44  1  0.33358412  0.95992155  0.91720879  1
  P  P45  1  0.62618288  0.95604013  0.41681592  1
  P  P46  1  0.33656149  0.37747918  0.41594485  1
  P  P47  1  0.04007875  0.66641599  0.41720882  1
  O  O48  1  0.21104395  0.03758883  0.30722605  1
  O  O49  1  0.82493140  0.78951804  0.30711627  1
  O  O50  1  0.96216924  0.17493992  0.30733736  1
  O  O51  1  0.21048200  0.17506873  0.80711626  1
  O  O52  1  0.96241132  0.78895633  0.80722608  1
  O  O53  1  0.82505981  0.03783048  0.80733732  1
  O  O54  1  0.78751603  0.96187500  0.69260296  1
  O  O55  1  0.17083684  0.21150551  0.69383019  1
  O  O56  1  0.03298743  0.82225893  0.69194133  1
  O  O57  1  0.78849441  0.82916292  0.19383028  1
  O  O58  1  0.03812503  0.21248380  0.19260293  1
  O  O59  1  0.17774123  0.96701274  0.19194144  1
  O  O60  1  0.87906615  0.37157997  0.64074985  1
  O  O61  1  0.49692185  0.12381383  0.63844113  1
  O  O62  1  0.63311521  0.51226763  0.64239993  1
  O  O63  1  0.87618611  0.50307818  0.13844109  1
  O  O64  1  0.62841996  0.12093370  0.14074979  1
  O  O65  1  0.48773217  0.36688481  0.14239993  1
  O  O66  1  0.45686637  0.29363295  0.02821818  1
  O  O67  1  0.84536286  0.54549567  0.02419004  1
  O  O68  1  0.70500584  0.15916921  0.02596751  1
  O  O69  1  0.45450448  0.15463723  0.52419012  1
  O  O70  1  0.70636695  0.54313342  0.52821824  1
  O  O71  1  0.84083074  0.29499407  0.52596749  1
  O  O72  1  0.54295270  0.70636063  0.97180402  1
  O  O73  1  0.15561627  0.45608956  0.97476451  1
  O  O74  1  0.29433747  0.84185203  0.97502472  1
  O  O75  1  0.54391044  0.84438370  0.47476448  1
  O  O76  1  0.29363960  0.45704748  0.47180405  1
  O  O77  1  0.15814773  0.70566242  0.47502470  1
  O  O78  1  0.12285446  0.62682328  0.36135152  1
  O  O79  1  0.50725863  0.87771038  0.35946881  1
  O  O80  1  0.36761456  0.48848697  0.35757297  1
  O  O81  1  0.12228978  0.49274162  0.85946869  1
  O  O82  1  0.37317658  0.87714543  0.86135157  1
  O  O83  1  0.51151311  0.63238550  0.85757292  1
  O  O84  1  0.02901918  0.83700862  0.41043136  1
  O  O85  1  0.81418324  0.98213784  0.41070490  1
  O  O86  1  0.16705606  0.18983711  0.41028018  1
  O  O87  1  0.01786204  0.18581648  0.91070488  1
  O  O88  1  0.16299106  0.97098079  0.91043132  1
  O  O89  1  0.81016273  0.83294384  0.91028021  1
  O  O90  1  0.97121480  0.16282666  0.58978068  1
  O  O91  1  0.18657769  0.01860829  0.58922442  1
  O  O92  1  0.83282875  0.81058654  0.58955330  1
  O  O93  1  0.98139178  0.81342238  0.08922449  1
  O  O94  1  0.83717337  0.02878508  0.08978060  1
  O  O95  1  0.18941362  0.16717151  0.08955323  1
  O  O96  1  0.69532390  0.17072016  0.74339999  1
  O  O97  1  0.48032394  0.31490580  0.74377307  1
  O  O98  1  0.83421329  0.52355696  0.74425030  1
  O  O99  1  0.68509421  0.51967619  0.24377307  1
  O  O100  1  0.82927960  0.30467602  0.24340001  1
  O  O101  1  0.47644362  0.16578713  0.24425026  1
  O  O102  1  0.64776065  0.50113466  0.92254310  1
  O  O103  1  0.85678269  0.35600275  0.92246958  1
  O  O104  1  0.50407411  0.14232197  0.92350202  1
  O  O105  1  0.64399731  0.14321739  0.42246958  1
  O  O106  1  0.49886570  0.35223944  0.42254314  1
  O  O107  1  0.85767789  0.49592569  0.42350204  1
  O  O108  1  0.35207774  0.49900140  0.07732679  1
  O  O109  1  0.14363797  0.64418465  0.07716746  1
  O  O110  1  0.49624904  0.85818414  0.07689221  1
  O  O111  1  0.35581534  0.85636189  0.57716748  1
  O  O112  1  0.50099845  0.64792211  0.57732683  1
  O  O113  1  0.14181614  0.50375109  0.57689220  1
  O  O114  1  0.31472744  0.83418791  0.25626289  1
  O  O115  1  0.52335730  0.68970068  0.25612665  1
  O  O116  1  0.17023996  0.47555992  0.25619408  1
  O  O117  1  0.31029936  0.47664268  0.75612663  1
  O  O118  1  0.16581243  0.68527263  0.75626292  1
  O  O119  1  0.52444005  0.82975999  0.75619400  1
