# generated using pymatgen
data_Na10Al8Si5S7O48
_symmetry_space_group_name_H-M   'P 1'
_cell_length_a   17.20354206
_cell_length_b   8.64116981
_cell_length_c   21.66402952
_cell_angle_alpha   89.60969739
_cell_angle_beta   88.86030609
_cell_angle_gamma   119.95095161
_symmetry_Int_Tables_number   1
_chemical_formula_structural   Na10Al8Si5S7O48
_chemical_formula_sum   'Na30 Al24 Si15 S21 O144'
_cell_volume   2789.37992685
_cell_formula_units_Z   3
loop_
 _symmetry_equiv_pos_site_id
 _symmetry_equiv_pos_as_xyz
  1  'x, y, z'
loop_
 _atom_site_type_symbol
 _atom_site_label
 _atom_site_symmetry_multiplicity
 _atom_site_fract_x
 _atom_site_fract_y
 _atom_site_fract_z
 _atom_site_occupancy
  Na  Na0  1  0.32437996  0.99955453  0.24842120  1
  Na  Na1  1  0.82317107  0.99886724  0.24969158  1
  Na  Na2  1  0.18155837  0.37180345  0.23798621  1
  Na  Na3  1  0.68189387  0.37157176  0.23942411  1
  Na  Na4  1  0.99530007  0.62909472  0.26079705  1
  Na  Na5  1  0.49590673  0.63022623  0.26070637  1
  Na  Na6  1  0.82246655  0.64721058  0.74546212  1
  Na  Na7  1  0.99526780  0.35874067  0.76157499  1
  Na  Na8  1  0.49650977  0.35688121  0.76001308  1
  Na  Na9  1  0.17986551  0.98990066  0.74208695  1
  Na  Na10  1  0.01663587  0.70394002  0.58626809  1
  Na  Na11  1  0.32971263  0.96953644  0.59249329  1
  Na  Na12  1  0.02009019  0.33054205  0.08330457  1
  Na  Na13  1  0.51974767  0.33011756  0.08459714  1
  Na  Na14  1  0.16203382  0.29827492  0.92783229  1
  Na  Na15  1  0.66319732  0.30057400  0.92979949  1
  Na  Na16  1  0.16146414  0.02540036  0.42772166  1
  Na  Na17  1  0.66261676  0.02316720  0.42947785  1
  Na  Na18  1  0.99337360  0.00262196  0.49965636  1
  Na  Na19  1  0.51190485  0.98954510  0.50213490  1
  Na  Na20  1  0.99952734  0.99196318  0.99977090  1
  Na  Na21  1  0.49767094  0.98839147  0.00122625  1
  Na  Na22  1  0.34536427  0.33486125  0.83637361  1
  Na  Na23  1  0.84572135  0.31527910  0.83532316  1
  Na  Na24  1  0.35372010  0.37257951  0.33681967  1
  Na  Na25  1  0.85101391  0.36916507  0.33778201  1
  Na  Na26  1  0.17952882  0.66426984  0.16378766  1
  Na  Na27  1  0.67954592  0.66343493  0.16484238  1
  Na  Na28  1  0.17285426  0.66785948  0.66931868  1
  Na  Na29  1  0.68262021  0.72681155  0.66511716  1
  Al  Al30  1  0.98419317  0.97094100  0.35121513  1
  Al  Al31  1  0.48640557  0.97449906  0.35167493  1
  Al  Al32  1  0.98610999  0.99709400  0.85087371  1
  Al  Al33  1  0.49279347  0.01426869  0.85402732  1
  Al  Al34  1  0.99866016  0.99085161  0.64736928  1
  Al  Al35  1  0.50331590  0.99698688  0.64705603  1
  Al  Al36  1  0.00231429  0.01144276  0.14732797  1
  Al  Al37  1  0.50249251  0.01136598  0.14763088  1
  Al  Al38  1  0.32946873  0.31488232  0.68239134  1
  Al  Al39  1  0.83026691  0.31761619  0.68929696  1
  Al  Al40  1  0.33422998  0.34511976  0.18722110  1
  Al  Al41  1  0.83385074  0.34405833  0.18728028  1
  Al  Al42  1  0.33570340  0.33270692  0.98097238  1
  Al  Al43  1  0.83735960  0.33696619  0.98128354  1
  Al  Al44  1  0.33600070  0.34548724  0.48092412  1
  Al  Al45  1  0.83220044  0.34027830  0.48155149  1
  Al  Al46  1  0.16601815  0.64456007  0.01772948  1
  Al  Al47  1  0.66449259  0.64757730  0.02015667  1
  Al  Al48  1  0.15861856  0.67505910  0.51793115  1
  Al  Al49  1  0.66155011  0.69132600  0.52089058  1
  Al  Al50  1  0.15801313  0.64596075  0.31274407  1
  Al  Al51  1  0.65826963  0.64501782  0.31282548  1
  Al  Al52  1  0.16209956  0.66978696  0.81176855  1
  Al  Al53  1  0.66290204  0.67837764  0.81509687  1
  Si  Si54  1  0.35519912  0.71249517  0.24925119  1
  Si  Si55  1  0.85498734  0.71149245  0.24873716  1
  Si  Si56  1  0.99781565  0.28319410  0.24902603  1
  Si  Si57  1  0.49810519  0.28374272  0.24902707  1
  Si  Si58  1  0.99765956  0.71053961  0.74945955  1
  Si  Si59  1  0.35590623  0.99587576  0.74693577  1
  Si  Si60  1  0.85115159  0.99444427  0.74921078  1
  Si  Si61  1  0.18510248  0.04709145  0.58014348  1
  Si  Si62  1  0.68988822  0.05392456  0.58309824  1
  Si  Si63  1  0.18985961  0.32624768  0.08187833  1
  Si  Si64  1  0.68956684  0.32587371  0.08214257  1
  Si  Si65  1  0.01852606  0.36819059  0.91656260  1
  Si  Si66  1  0.51903198  0.37829814  0.91717918  1
  Si  Si67  1  0.01597419  0.66689641  0.41696299  1
  Si  Si68  1  0.51866843  0.66836459  0.41569997  1
  S  S69  1  0.14425274  0.00126641  0.25092460  1
  S  S70  1  0.64421521  0.00156091  0.25001328  1
  S  S71  1  0.14884853  0.29156455  0.74891017  1
  S  S72  1  0.64324974  0.28066190  0.75173341  1
  S  S73  1  0.49873685  0.71661348  0.75160633  1
  S  S74  1  0.48178027  0.34408480  0.58254322  1
  S  S75  1  0.97809706  0.32982543  0.58318069  1
  S  S76  1  0.33271540  0.61575119  0.58388646  1
  S  S77  1  0.82740558  0.61987652  0.58313207  1
  S  S78  1  0.47858945  0.62688658  0.08225593  1
  S  S79  1  0.97903032  0.62760890  0.08241025  1
  S  S80  1  0.32893333  0.03792130  0.08235638  1
  S  S81  1  0.82831930  0.03687293  0.08233582  1
  S  S82  1  0.31277814  0.67370986  0.91427787  1
  S  S83  1  0.81175210  0.67134586  0.91688738  1
  S  S84  1  0.16788643  0.94739375  0.91769111  1
  S  S85  1  0.66470178  0.94876699  0.91767372  1
  S  S86  1  0.31186586  0.95222660  0.41761001  1
  S  S87  1  0.81088099  0.95135203  0.41638153  1
  S  S88  1  0.16751304  0.38712896  0.41863990  1
  S  S89  1  0.66659234  0.38529041  0.41861797  1
  O  O90  1  0.10605701  0.03366738  0.30779749  1
  O  O91  1  0.60586308  0.03365264  0.30685285  1
  O  O92  1  0.41981187  0.78274636  0.30809122  1
  O  O93  1  0.91986069  0.77983322  0.30759375  1
  O  O94  1  0.47886281  0.14646205  0.30701716  1
  O  O95  1  0.97989836  0.14643249  0.30683191  1
  O  O96  1  0.11151755  0.18158608  0.80659292  1
  O  O97  1  0.60631116  0.17631985  0.81060696  1
  O  O98  1  0.49049852  0.80465000  0.80733468  1
  O  O99  1  0.98244396  0.81451077  0.80711128  1
  O  O100  1  0.42539547  0.04898174  0.80298614  1
  O  O101  1  0.91528968  0.04672876  0.80878366  1
  O  O102  1  0.40212418  0.97268194  0.68338258  1
  O  O103  1  0.90038692  0.95317133  0.69151647  1
  O  O104  1  0.09163022  0.20779578  0.69537533  1
  O  O105  1  0.58479828  0.19016865  0.69935980  1
  O  O106  1  0.02168122  0.83251801  0.68593965  1
  O  O107  1  0.51142062  0.82135670  0.69440474  1
  O  O108  1  0.40317866  0.84915558  0.19065210  1
  O  O109  1  0.90351432  0.84968329  0.19065522  1
  O  O110  1  0.02210755  0.21238010  0.18570635  1
  O  O111  1  0.52143771  0.21145994  0.18571698  1
  O  O112  1  0.08778514  0.97043035  0.19668762  1
  O  O113  1  0.58773077  0.97127019  0.19591355  1
  O  O114  1  0.44294996  0.37109670  0.64159748  1
  O  O115  1  0.94283494  0.37385274  0.63984960  1
  O  O116  1  0.24914932  0.13164277  0.63988246  1
  O  O117  1  0.75314281  0.16027431  0.63949884  1
  O  O118  1  0.32660074  0.50977536  0.63995673  1
  O  O119  1  0.81984964  0.52731036  0.64281504  1
  O  O120  1  0.44051590  0.51097003  0.13908068  1
  O  O121  1  0.94087586  0.51146818  0.13929070  1
  O  O122  1  0.31979002  0.11532327  0.14128140  1
  O  O123  1  0.81895825  0.11300885  0.14149660  1
  O  O124  1  0.24789627  0.34542511  0.14259962  1
  O  O125  1  0.74797181  0.34489618  0.14255421  1
  O  O126  1  0.23890582  0.31253002  0.01853643  1
  O  O127  1  0.73897081  0.31199510  0.01896109  1
  O  O128  1  0.42508603  0.53772351  0.02792494  1
  O  O129  1  0.92486753  0.53827979  0.02825030  1
  O  O130  1  0.34655899  0.16237738  0.02946363  1
  O  O131  1  0.84539165  0.16127699  0.02954980  1
  O  O132  1  0.23876118  0.16483338  0.51860934  1
  O  O133  1  0.73399647  0.16511270  0.51772605  1
  O  O134  1  0.34437939  0.53477041  0.52753254  1
  O  O135  1  0.84645299  0.53055635  0.53128153  1
  O  O136  1  0.42180027  0.31769103  0.53082025  1
  O  O137  1  0.92407901  0.31072520  0.52889395  1
  O  O138  1  0.27458979  0.70095436  0.97258466  1
  O  O139  1  0.76810546  0.69258927  0.97310255  1
  O  O140  1  0.08275034  0.45698828  0.97661049  1
  O  O141  1  0.58293826  0.46638746  0.97650464  1
  O  O142  1  0.16373640  0.83733006  0.97140208  1
  O  O143  1  0.65824316  0.84223606  0.97277900  1
  O  O144  1  0.26871170  0.84832409  0.47597274  1
  O  O145  1  0.76810735  0.84409829  0.47277608  1
  O  O146  1  0.16422178  0.48953744  0.47209232  1
  O  O147  1  0.66155735  0.48264628  0.47178218  1
  O  O148  1  0.07967993  0.70591430  0.47697034  1
  O  O149  1  0.58627304  0.71138693  0.47238967  1
  O  O150  1  0.06761695  0.64656512  0.35573855  1
  O  O151  1  0.56597268  0.64520790  0.35259716  1
  O  O152  1  0.25762505  0.86493736  0.36304114  1
  O  O153  1  0.75835358  0.86804921  0.36024683  1
  O  O154  1  0.17811828  0.48493592  0.35945728  1
  O  O155  1  0.67724115  0.48326599  0.35889410  1
  O  O156  1  0.07030060  0.48999557  0.85520089  1
  O  O157  1  0.56798332  0.49717779  0.85396002  1
  O  O158  1  0.17878674  0.87271079  0.85874202  1
  O  O159  1  0.67842465  0.87070318  0.86041798  1
  O  O160  1  0.25670910  0.65215994  0.86110382  1
  O  O161  1  0.75753818  0.64755577  0.86145905  1
  O  O162  1  0.01218567  0.85497781  0.41060396  1
  O  O163  1  0.51304999  0.85436162  0.40956759  1
  O  O164  1  0.40168112  0.96895078  0.41465700  1
  O  O165  1  0.90116531  0.96968982  0.41276681  1
  O  O166  1  0.08611258  0.20997053  0.41884339  1
  O  O167  1  0.58596799  0.20487180  0.41690222  1
  O  O168  1  0.01309592  0.17047012  0.90979241  1
  O  O169  1  0.51285282  0.17974754  0.91209552  1
  O  O170  1  0.08599255  0.96267884  0.91772969  1
  O  O171  1  0.58165943  0.96116262  0.91402486  1
  O  O172  1  0.40462701  0.83042082  0.90762767  1
  O  O173  1  0.90169793  0.83146172  0.91313657  1
  O  O174  1  0.48717022  0.17803420  0.58694608  1
  O  O175  1  0.98489940  0.16812711  0.59089942  1
  O  O176  1  0.08486071  0.02415753  0.58582945  1
  O  O177  1  0.58790256  0.02742985  0.59230257  1
  O  O178  1  0.41188371  0.79940124  0.58603862  1
  O  O179  1  0.90865652  0.80259572  0.58310451  1
  O  O180  1  0.48415929  0.80068120  0.08898209  1
  O  O181  1  0.98432392  0.80117456  0.08929640  1
  O  O182  1  0.41000946  0.01788009  0.08326493  1
  O  O183  1  0.90941983  0.01681476  0.08311849  1
  O  O184  1  0.08738095  0.14779284  0.08675502  1
  O  O185  1  0.58714265  0.14685222  0.08658693  1
  O  O186  1  0.34485502  0.17936098  0.74084680  1
  O  O187  1  0.84146859  0.17048846  0.74180414  1
  O  O188  1  0.23980108  0.31169805  0.74019508  1
  O  O189  1  0.73485506  0.31098502  0.74487043  1
  O  O190  1  0.41834794  0.53518811  0.74760668  1
  O  O191  1  0.90771648  0.51162910  0.74139005  1
  O  O192  1  0.33968073  0.51045428  0.24131612  1
  O  O193  1  0.83964007  0.50972507  0.24105766  1
  O  O194  1  0.40861971  0.30582105  0.24055071  1
  O  O195  1  0.90820775  0.30458194  0.24073134  1
  O  O196  1  0.23554906  0.15904294  0.24341834  1
  O  O197  1  0.73539582  0.15999133  0.24300188  1
  O  O198  1  0.31950635  0.50883215  0.91886757  1
  O  O199  1  0.82037584  0.50843755  0.92106681  1
  O  O200  1  0.42019746  0.35856675  0.92588197  1
  O  O201  1  0.91999742  0.35195223  0.92641845  1
  O  O202  1  0.24775736  0.13175374  0.92028264  1
  O  O203  1  0.74299918  0.13345034  0.91968884  1
  O  O204  1  0.32052741  0.13209811  0.42051101  1
  O  O205  1  0.81996933  0.13174125  0.41993053  1
  O  O206  1  0.24790135  0.36371750  0.42088145  1
  O  O207  1  0.74787756  0.36297054  0.41966499  1
  O  O208  1  0.42093791  0.48836700  0.42649882  1
  O  O209  1  0.91875824  0.48673877  0.42747189  1
  O  O210  1  0.17733553  0.50642033  0.07769496  1
  O  O211  1  0.67578565  0.50461044  0.07838471  1
  O  O212  1  0.07073463  0.65077585  0.07489748  1
  O  O213  1  0.57058193  0.65048458  0.07562526  1
  O  O214  1  0.24691322  0.86334239  0.07475724  1
  O  O215  1  0.74633316  0.86228620  0.07450370  1
  O  O216  1  0.17599173  0.84221006  0.57744808  1
  O  O217  1  0.68016947  0.85523903  0.57756720  1
  O  O218  1  0.25033795  0.63038907  0.58148369  1
  O  O219  1  0.74540080  0.62930055  0.57465575  1
  O  O220  1  0.07112089  0.48867856  0.57447161  1
  O  O221  1  0.57177620  0.49909728  0.57458489  1
  O  O222  1  0.15603990  0.84239493  0.25575876  1
  O  O223  1  0.65640393  0.84326041  0.25427463  1
  O  O224  1  0.25568778  0.69532880  0.25997807  1
  O  O225  1  0.75581169  0.69476857  0.25951710  1
  O  O226  1  0.08489841  0.48487703  0.25599323  1
  O  O227  1  0.58583168  0.48463106  0.25516491  1
  O  O228  1  0.15905645  0.47092605  0.75434576  1
  O  O229  1  0.64993096  0.45934170  0.75471217  1
  O  O230  1  0.08504657  0.68212784  0.75614203  1
  O  O231  1  0.57935408  0.69240009  0.75427369  1
  O  O232  1  0.25579180  0.82475354  0.75801828  1
  O  O233  1  0.75221918  0.80934435  0.75929803  1
