# generated using pymatgen
data_MgNb5(PO4)9
_symmetry_space_group_name_H-M   'P 1'
_cell_length_a   8.79900041
_cell_length_b   8.79900012
_cell_length_c   22.65376170
_cell_angle_alpha   90.00000000
_cell_angle_beta   90.00000000
_cell_angle_gamma   120.00000106
_symmetry_Int_Tables_number   1
_chemical_formula_structural   MgNb5(PO4)9
_chemical_formula_sum   'Mg2 Nb10 P18 O72'
_cell_volume   1518.92949818
_cell_formula_units_Z   2
loop_
 _symmetry_equiv_pos_site_id
 _symmetry_equiv_pos_as_xyz
  1  'x, y, z'
loop_
 _atom_site_type_symbol
 _atom_site_label
 _atom_site_symmetry_multiplicity
 _atom_site_fract_x
 _atom_site_fract_y
 _atom_site_fract_z
 _atom_site_occupancy
  Mg  Mg0  1  0.66666700  0.33333300  0.68998627  1
  Mg  Mg1  1  0.66666700  0.33333300  0.18998627  1
  Nb  Nb2  1  0.00000000  0.00000000  0.35522220  1
  Nb  Nb3  1  0.00000000  0.00000000  0.85522220  1
  Nb  Nb4  1  0.00000000  0.00000000  0.64304177  1
  Nb  Nb5  1  0.00000000  0.00000000  0.14304177  1
  Nb  Nb6  1  0.66666700  0.33333300  0.97786800  1
  Nb  Nb7  1  0.66666700  0.33333300  0.47786800  1
  Nb  Nb8  1  0.33333300  0.66666700  0.02499141  1
  Nb  Nb9  1  0.33333300  0.66666700  0.52499141  1
  Nb  Nb10  1  0.33333300  0.66666700  0.30664000  1
  Nb  Nb11  1  0.33333300  0.66666700  0.80664000  1
  P  P12  1  0.28963654  0.00538747  0.24930311  1
  P  P13  1  0.71575093  0.71036346  0.24930311  1
  P  P14  1  0.99461253  0.28424907  0.24930311  1
  P  P15  1  0.28963654  0.28424907  0.74930311  1
  P  P16  1  0.99461253  0.71036346  0.74930311  1
  P  P17  1  0.71575093  0.00538747  0.74930311  1
  P  P18  1  0.94959851  0.33285666  0.58520593  1
  P  P19  1  0.38325914  0.05040149  0.58520593  1
  P  P20  1  0.66714334  0.61674086  0.58520593  1
  P  P21  1  0.94959851  0.61674086  0.08520593  1
  P  P22  1  0.66714334  0.05040149  0.08520593  1
  P  P23  1  0.38325914  0.33285666  0.08520593  1
  P  P24  1  0.61755125  0.66644790  0.91625806  1
  P  P25  1  0.04889564  0.38244875  0.91625806  1
  P  P26  1  0.33355210  0.95110436  0.91625806  1
  P  P27  1  0.61755125  0.95110436  0.41625806  1
  P  P28  1  0.33355210  0.38244875  0.41625806  1
  P  P29  1  0.04889564  0.66644790  0.41625806  1
  O  O30  1  0.19252527  0.02279581  0.30514231  1
  O  O31  1  0.83027054  0.80747473  0.30514231  1
  O  O32  1  0.97720418  0.16972946  0.30514231  1
  O  O33  1  0.19252527  0.16972946  0.80514231  1
  O  O34  1  0.97720419  0.80747473  0.80514231  1
  O  O35  1  0.83027054  0.02279581  0.80514231  1
  O  O36  1  0.80068531  0.96668885  0.69531528  1
  O  O37  1  0.16600354  0.19931469  0.69531528  1
  O  O38  1  0.03331115  0.83399646  0.69531528  1
  O  O39  1  0.80068531  0.83399646  0.19531528  1
  O  O40  1  0.03331115  0.19931469  0.19531528  1
  O  O41  1  0.16600354  0.96668885  0.19531528  1
  O  O42  1  0.87609684  0.37027684  0.63850676  1
  O  O43  1  0.49418100  0.12390316  0.63850676  1
  O  O44  1  0.62972316  0.50581900  0.63850676  1
  O  O45  1  0.87609684  0.50581900  0.13850676  1
  O  O46  1  0.62972316  0.12390316  0.13850676  1
  O  O47  1  0.49418100  0.37027684  0.13850676  1
  O  O48  1  0.46754865  0.30346419  0.02814489  1
  O  O49  1  0.83591654  0.53245135  0.02814489  1
  O  O50  1  0.69653581  0.16408346  0.02814489  1
  O  O51  1  0.46754865  0.16408346  0.52814489  1
  O  O52  1  0.69653581  0.53245135  0.52814489  1
  O  O53  1  0.83591654  0.30346419  0.52814489  1
  O  O54  1  0.53299302  0.69651547  0.97125318  1
  O  O55  1  0.16352145  0.46700698  0.97125318  1
  O  O56  1  0.30348453  0.83647855  0.97125318  1
  O  O57  1  0.53299302  0.83647855  0.47125318  1
  O  O58  1  0.30348453  0.46700698  0.47125318  1
  O  O59  1  0.16352145  0.69651547  0.47125318  1
  O  O60  1  0.13331540  0.63498183  0.36163668  1
  O  O61  1  0.50166544  0.86668460  0.36163668  1
  O  O62  1  0.36501817  0.49833456  0.36163668  1
  O  O63  1  0.13331540  0.49833456  0.86163668  1
  O  O64  1  0.36501817  0.86668460  0.86163668  1
  O  O65  1  0.50166544  0.63498183  0.86163668  1
  O  O66  1  0.02589378  0.82766208  0.40692164  1
  O  O67  1  0.80176831  0.97410622  0.40692164  1
  O  O68  1  0.17233792  0.19823169  0.40692164  1
  O  O69  1  0.02589378  0.19823169  0.90692164  1
  O  O70  1  0.17233792  0.97410622  0.90692164  1
  O  O71  1  0.80176831  0.82766208  0.90692164  1
  O  O72  1  0.97439193  0.17061966  0.59209216  1
  O  O73  1  0.19622772  0.02560807  0.59209216  1
  O  O74  1  0.82938034  0.80377228  0.59209216  1
  O  O75  1  0.97439193  0.80377228  0.09209216  1
  O  O76  1  0.82938034  0.02560807  0.09209216  1
  O  O77  1  0.19622772  0.17061966  0.09209216  1
  O  O78  1  0.69420036  0.16070369  0.74295701  1
  O  O79  1  0.46650433  0.30579964  0.74295701  1
  O  O80  1  0.83929631  0.53349567  0.74295701  1
  O  O81  1  0.69420036  0.53349567  0.24295701  1
  O  O82  1  0.83929631  0.30579964  0.24295701  1
  O  O83  1  0.46650433  0.16070369  0.24295701  1
  O  O84  1  0.63950745  0.50441400  0.92674793  1
  O  O85  1  0.86490756  0.36049255  0.92674793  1
  O  O86  1  0.49558600  0.13509244  0.92674793  1
  O  O87  1  0.63950745  0.13509244  0.42674793  1
  O  O88  1  0.49558600  0.36049255  0.42674793  1
  O  O89  1  0.86490756  0.50441400  0.42674793  1
  O  O90  1  0.35467683  0.49249256  0.07090515  1
  O  O91  1  0.13781472  0.64532317  0.07090515  1
  O  O92  1  0.50750744  0.86218528  0.07090515  1
  O  O93  1  0.35467683  0.86218528  0.57090515  1
  O  O94  1  0.50750744  0.64532317  0.57090515  1
  O  O95  1  0.13781472  0.49249256  0.57090515  1
  O  O96  1  0.29955633  0.83283364  0.26036002  1
  O  O97  1  0.53327630  0.70044367  0.26036002  1
  O  O98  1  0.16716636  0.46672370  0.26036002  1
  O  O99  1  0.29955633  0.46672370  0.76036002  1
  O  O100  1  0.16716636  0.70044367  0.76036002  1
  O  O101  1  0.53327630  0.83283364  0.76036002  1
