# generated using pymatgen
data_Na2Mg4Ta4Si3(S3O16)3
_symmetry_space_group_name_H-M   'P 1'
_cell_length_a   17.54550862
_cell_length_b   8.78435605
_cell_length_c   22.78355403
_cell_angle_alpha   89.97348631
_cell_angle_beta   90.02267851
_cell_angle_gamma   120.09992026
_symmetry_Int_Tables_number   1
_chemical_formula_structural   Na2Mg4Ta4Si3(S3O16)3
_chemical_formula_sum   'Na6 Mg12 Ta12 Si9 S27 O144'
_cell_volume   3038.01409804
_cell_formula_units_Z   3
loop_
 _symmetry_equiv_pos_site_id
 _symmetry_equiv_pos_as_xyz
  1  'x, y, z'
loop_
 _atom_site_type_symbol
 _atom_site_label
 _atom_site_symmetry_multiplicity
 _atom_site_fract_x
 _atom_site_fract_y
 _atom_site_fract_z
 _atom_site_occupancy
  Na  Na0  1  0.99883396  0.99864378  0.49989623  1
  Na  Na1  1  0.49962664  0.00105133  0.99707528  1
  Na  Na2  1  0.33482505  0.33442682  0.83627828  1
  Na  Na3  1  0.83090566  0.33474622  0.83410102  1
  Na  Na4  1  0.33596080  0.33570060  0.33736664  1
  Na  Na5  1  0.83326169  0.33217780  0.33838976  1
  Mg  Mg6  1  0.99839066  0.99819623  0.35408062  1
  Mg  Mg7  1  0.50167258  0.00400951  0.85003435  1
  Mg  Mg8  1  0.00042245  0.99688523  0.64932550  1
  Mg  Mg9  1  0.50109738  0.00529992  0.14953876  1
  Mg  Mg10  1  0.33069667  0.33326661  0.97975475  1
  Mg  Mg11  1  0.83657466  0.33407544  0.98180677  1
  Mg  Mg12  1  0.33606299  0.34072109  0.48310325  1
  Mg  Mg13  1  0.83192128  0.32887521  0.48159190  1
  Mg  Mg14  1  0.16435251  0.66361653  0.31311041  1
  Mg  Mg15  1  0.66672315  0.66654115  0.31151326  1
  Mg  Mg16  1  0.16868459  0.66985465  0.81032108  1
  Mg  Mg17  1  0.66307872  0.65776645  0.80872983  1
  Ta  Ta18  1  0.49980674  0.01025059  0.35546009  1
  Ta  Ta19  1  0.99929863  0.98868500  0.85288464  1
  Ta  Ta20  1  0.50586458  0.01366347  0.64128547  1
  Ta  Ta21  1  0.99941098  0.99927189  0.13999882  1
  Ta  Ta22  1  0.33830320  0.34240034  0.68527653  1
  Ta  Ta23  1  0.82769871  0.33128837  0.69180743  1
  Ta  Ta24  1  0.33412594  0.33328412  0.18790006  1
  Ta  Ta25  1  0.83538239  0.33232277  0.18414560  1
  Ta  Ta26  1  0.16487085  0.65857106  0.02356889  1
  Ta  Ta27  1  0.66761406  0.67055363  0.02107006  1
  Ta  Ta28  1  0.16702082  0.66362224  0.52454148  1
  Ta  Ta29  1  0.66592170  0.67178385  0.52609556  1
  Si  Si30  1  0.50587617  0.29915610  0.24658698  1
  Si  Si31  1  0.63855153  0.29019429  0.75506519  1
  Si  Si32  1  0.00670950  0.71026955  0.74511370  1
  Si  Si33  1  0.47388619  0.32986916  0.57840810  1
  Si  Si34  1  0.69399429  0.05682355  0.58107527  1
  Si  Si35  1  0.33584868  0.62106585  0.58146952  1
  Si  Si36  1  0.97513655  0.61752530  0.07897234  1
  Si  Si37  1  0.83135176  0.04712381  0.08026127  1
  Si  Si38  1  0.19372539  0.33356469  0.08103870  1
  S  S39  1  0.14293055  0.99684610  0.25119790  1
  S  S40  1  0.64381882  0.99879347  0.24987850  1
  S  S41  1  0.35475673  0.71299431  0.24975287  1
  S  S42  1  0.85579511  0.71236484  0.25126194  1
  S  S43  1  0.00064754  0.28928639  0.25142301  1
  S  S44  1  0.14428043  0.28976812  0.74958816  1
  S  S45  1  0.50042848  0.71431386  0.75163280  1
  S  S46  1  0.35466544  0.99781494  0.75085375  1
  S  S47  1  0.85578206  0.99846868  0.74942760  1
  S  S48  1  0.97615240  0.32771701  0.58229966  1
  S  S49  1  0.18736113  0.04741387  0.58121795  1
  S  S50  1  0.83682470  0.62507430  0.58116668  1
  S  S51  1  0.47712479  0.62414279  0.08185954  1
  S  S52  1  0.33622853  0.04718317  0.08083487  1
  S  S53  1  0.68717475  0.32830060  0.08081951  1
  S  S54  1  0.31232233  0.66796156  0.91519046  1
  S  S55  1  0.80965808  0.66360720  0.91518983  1
  S  S56  1  0.02172205  0.37869298  0.91447356  1
  S  S57  1  0.51968952  0.37523964  0.91652534  1
  S  S58  1  0.16930409  0.95702717  0.91514905  1
  S  S59  1  0.66689263  0.95815272  0.91489429  1
  S  S60  1  0.30845305  0.95471738  0.41518902  1
  S  S61  1  0.81189896  0.95662317  0.41521327  1
  S  S62  1  0.16711524  0.37695158  0.41548509  1
  S  S63  1  0.67037973  0.38334569  0.41527022  1
  S  S64  1  0.02094725  0.66578391  0.41587380  1
  S  S65  1  0.52210145  0.66447844  0.41486356  1
  O  O66  1  0.10757478  0.03724930  0.30309334  1
  O  O67  1  0.60007394  0.02873866  0.30365320  1
  O  O68  1  0.41262908  0.79153769  0.30369915  1
  O  O69  1  0.91271173  0.78540854  0.30280521  1
  O  O70  1  0.48349978  0.15816055  0.30727024  1
  O  O71  1  0.98234495  0.17852230  0.30320076  1
  O  O72  1  0.09956810  0.17090328  0.80381376  1
  O  O73  1  0.60694166  0.16291569  0.81017897  1
  O  O74  1  0.47801200  0.77883148  0.80388462  1
  O  O75  1  0.98371336  0.80751099  0.80686075  1
  O  O76  1  0.40981261  0.03924417  0.80342034  1
  O  O77  1  0.91467212  0.03277768  0.80407161  1
  O  O78  1  0.39651643  0.97680700  0.69762164  1
  O  O79  1  0.89587896  0.97755267  0.69748682  1
  O  O80  1  0.09212836  0.21170824  0.69739963  1
  O  O81  1  0.58226493  0.18623602  0.69514288  1
  O  O82  1  0.01310791  0.83001552  0.69237683  1
  O  O83  1  0.50838387  0.81246908  0.69772865  1
  O  O84  1  0.39501478  0.81211134  0.19716814  1
  O  O85  1  0.90015352  0.81995589  0.19799459  1
  O  O86  1  0.01060033  0.20453000  0.19800629  1
  O  O87  1  0.51089263  0.19574563  0.19237374  1
  O  O88  1  0.08965242  0.97585861  0.19813227  1
  O  O89  1  0.59233411  0.97328744  0.19749254  1
  O  O90  1  0.43066720  0.36492387  0.63964542  1
  O  O91  1  0.94155148  0.36712646  0.63531493  1
  O  O92  1  0.24272069  0.12098192  0.63536970  1
  O  O93  1  0.75583037  0.13933590  0.63982175  1
  O  O94  1  0.31330573  0.49089606  0.64101291  1
  O  O95  1  0.82001896  0.51435243  0.63481948  1
  O  O96  1  0.43778888  0.51087610  0.13636779  1
  O  O97  1  0.93034726  0.49615787  0.14025296  1
  O  O98  1  0.32057105  0.12961775  0.13530362  1
  O  O99  1  0.81413479  0.13417478  0.14124146  1
  O  O100  1  0.25315987  0.36669094  0.14136189  1
  O  O101  1  0.74367178  0.36276950  0.13572657  1
  O  O102  1  0.23215127  0.29520633  0.02536391  1
  O  O103  1  0.72768298  0.30485691  0.02947164  1
  O  O104  1  0.42431842  0.54342051  0.03040678  1
  O  O105  1  0.91606138  0.54382528  0.02390247  1
  O  O106  1  0.35069402  0.15605817  0.02984060  1
  O  O107  1  0.84911941  0.16009061  0.02439199  1
  O  O108  1  0.22721410  0.14880071  0.52884733  1
  O  O109  1  0.73147434  0.16657746  0.52388349  1
  O  O110  1  0.34680515  0.53853146  0.52408368  1
  O  O111  1  0.85074721  0.54689769  0.52915474  1
  O  O112  1  0.41684146  0.29268145  0.52247042  1
  O  O113  1  0.92577344  0.30517524  0.52927049  1
  O  O114  1  0.26656806  0.69149638  0.96964729  1
  O  O115  1  0.76847775  0.69177478  0.97046574  1
  O  O116  1  0.07783593  0.46352558  0.97007206  1
  O  O117  1  0.57812796  0.46795409  0.97122240  1
  O  O118  1  0.15223865  0.84758001  0.96939946  1
  O  O119  1  0.65717115  0.83885440  0.97059196  1
  O  O120  1  0.26846530  0.84468578  0.46919928  1
  O  O121  1  0.76757917  0.84267467  0.46900242  1
  O  O122  1  0.15519753  0.46955595  0.46963562  1
  O  O123  1  0.65195060  0.45532756  0.46873976  1
  O  O124  1  0.07795464  0.69058934  0.46964426  1
  O  O125  1  0.57735995  0.69418878  0.46941958  1
  O  O126  1  0.06225837  0.64047410  0.36381402  1
  O  O127  1  0.56548586  0.64437573  0.36395742  1
  O  O128  1  0.25691478  0.87032685  0.36301174  1
  O  O129  1  0.75786432  0.87324033  0.36343383  1
  O  O130  1  0.17946485  0.48610594  0.36393849  1
  O  O131  1  0.68019217  0.48558580  0.36329836  1
  O  O132  1  0.06608406  0.48800107  0.86444022  1
  O  O133  1  0.56148032  0.48596596  0.86580809  1
  O  O134  1  0.18011906  0.87388120  0.86404440  1
  O  O135  1  0.67918407  0.87154556  0.86460669  1
  O  O136  1  0.25737635  0.64172223  0.86417525  1
  O  O137  1  0.75699643  0.64562175  0.86423258  1
  O  O138  1  0.01458056  0.82734365  0.41190125  1
  O  O139  1  0.51432282  0.82824207  0.40739857  1
  O  O140  1  0.39830333  0.96551054  0.40889562  1
  O  O141  1  0.89980055  0.97045458  0.41182883  1
  O  O142  1  0.08540335  0.20353514  0.41264665  1
  O  O143  1  0.58740625  0.19709211  0.40725615  1
  O  O144  1  0.01475428  0.20160565  0.90914055  1
  O  O145  1  0.51303110  0.20162638  0.91484723  1
  O  O146  1  0.08723428  0.97668907  0.90790304  1
  O  O147  1  0.58429863  0.96194817  0.91604675  1
  O  O148  1  0.39966589  0.82977625  0.91258571  1
  O  O149  1  0.89908475  0.83184110  0.91014928  1
  O  O150  1  0.48856857  0.16769035  0.59437810  1
  O  O151  1  0.99176633  0.17955164  0.59016858  1
  O  O152  1  0.09898666  0.02189128  0.58938607  1
  O  O153  1  0.59387017  0.01091317  0.59539047  1
  O  O154  1  0.41307408  0.81095036  0.60073304  1
  O  O155  1  0.91031478  0.80497139  0.58912533  1
  O  O156  1  0.49002264  0.80014628  0.09201247  1
  O  O157  1  0.99163042  0.81091832  0.09884700  1
  O  O158  1  0.41012010  0.01680755  0.09002760  1
  O  O159  1  0.91238148  0.01563129  0.09892171  1
  O  O160  1  0.09489738  0.17357843  0.09894710  1
  O  O161  1  0.59944697  0.17523652  0.09007725  1
  O  O162  1  0.34329578  0.16031873  0.74113327  1
  O  O163  1  0.85165270  0.16690088  0.74566224  1
  O  O164  1  0.23204490  0.29546222  0.74580081  1
  O  O165  1  0.73925808  0.30799269  0.73939971  1
  O  O166  1  0.41660406  0.52465123  0.74309778  1
  O  O167  1  0.91316497  0.51585851  0.74049685  1
  O  O168  1  0.34805490  0.53154953  0.24425963  1
  O  O169  1  0.84477833  0.52903298  0.24139609  1
  O  O170  1  0.41006620  0.30546207  0.24107786  1
  O  O171  1  0.91729146  0.30662090  0.24289111  1
  O  O172  1  0.23473337  0.16049808  0.24091093  1
  O  O173  1  0.73264243  0.16920333  0.24530303  1
  O  O174  1  0.32186427  0.51179222  0.92339002  1
  O  O175  1  0.82148747  0.51258978  0.92319303  1
  O  O176  1  0.43269381  0.35900406  0.92599859  1
  O  O177  1  0.93406379  0.35684148  0.92182436  1
  O  O178  1  0.24539075  0.13419506  0.92248211  1
  O  O179  1  0.74442252  0.13168213  0.92412439  1
  O  O180  1  0.32150408  0.13107749  0.42189412  1
  O  O181  1  0.82253284  0.13317858  0.42238685  1
  O  O182  1  0.24442486  0.35613631  0.42301676  1
  O  O183  1  0.74571545  0.35622843  0.42171876  1
  O  O184  1  0.43348393  0.51224377  0.42106267  1
  O  O185  1  0.93327869  0.50863901  0.42416303  1
  O  O186  1  0.18068695  0.50723986  0.07242273  1
  O  O187  1  0.67921974  0.49150867  0.07376963  1
  O  O188  1  0.07504850  0.64702961  0.07131909  1
  O  O189  1  0.56630461  0.63798883  0.07469236  1
  O  O190  1  0.25323452  0.87139983  0.07399149  1
  O  O191  1  0.74531253  0.84578663  0.07233787  1
  O  O192  1  0.17858929  0.86537963  0.57263587  1
  O  O193  1  0.68175349  0.85561277  0.57217323  1
  O  O194  1  0.24593457  0.64313241  0.57153029  1
  O  O195  1  0.75368682  0.63663934  0.57263245  1
  O  O196  1  0.06769768  0.49400776  0.57245343  1
  O  O197  1  0.57425521  0.50329000  0.57091642  1
  O  O198  1  0.15572905  0.84675599  0.25756332  1
  O  O199  1  0.65828858  0.85361000  0.26103928  1
  O  O200  1  0.26755826  0.68756092  0.26056348  1
  O  O201  1  0.76971163  0.69364305  0.25717435  1
  O  O202  1  0.07613773  0.46534170  0.25722850  1
  O  O203  1  0.58269190  0.48516514  0.26282081  1
  O  O204  1  0.15769260  0.46214451  0.76142038  1
  O  O205  1  0.65781296  0.48530239  0.75648947  1
  O  O206  1  0.08455096  0.68408216  0.76325812  1
  O  O207  1  0.57565351  0.68991765  0.75791159  1
  O  O208  1  0.26801070  0.84546973  0.75769028  1
  O  O209  1  0.76892836  0.85084756  0.76142067  1
