# generated using pymatgen
data_NaP4N7
_symmetry_space_group_name_H-M   'P 1'
_cell_length_a   7.48826240
_cell_length_b   7.48826240
_cell_length_c   5.13413866
_cell_angle_alpha   79.71414097
_cell_angle_beta   79.71414097
_cell_angle_gamma   69.30074614
_symmetry_Int_Tables_number   1
_chemical_formula_structural   NaP4N7
_chemical_formula_sum   'Na2 P8 N14'
_cell_volume   262.88762552
_cell_formula_units_Z   2
loop_
 _symmetry_equiv_pos_site_id
 _symmetry_equiv_pos_as_xyz
  1  'x, y, z'
loop_
 _atom_site_type_symbol
 _atom_site_label
 _atom_site_symmetry_multiplicity
 _atom_site_fract_x
 _atom_site_fract_y
 _atom_site_fract_z
 _atom_site_occupancy
  Na  Na0  1  0.79340812  0.20659188  0.25000000  1
  Na  Na1  1  0.20659188  0.79340812  0.75000000  1
  P  P2  1  0.29599995  0.45899046  0.28662238  1
  P  P3  1  0.54100954  0.70400005  0.21337762  1
  P  P4  1  0.09573768  0.24994499  0.69755994  1
  P  P5  1  0.75005501  0.90426232  0.80244006  1
  P  P6  1  0.90426232  0.75005501  0.30244006  1
  P  P7  1  0.24994499  0.09573768  0.19755994  1
  P  P8  1  0.45899046  0.29599995  0.78662238  1
  P  P9  1  0.70400005  0.54100954  0.71337762  1
  N  N10  1  0.26760539  0.36391797  0.60788007  1
  N  N11  1  0.63608203  0.73239461  0.89211993  1
  N  N12  1  0.73239461  0.63608203  0.39211993  1
  N  N13  1  0.36391797  0.26760539  0.10788007  1
  N  N14  1  0.89430120  0.39232071  0.81005361  1
  N  N15  1  0.60767929  0.10569880  0.68994639  1
  N  N16  1  0.10569880  0.60767929  0.18994639  1
  N  N17  1  0.39232071  0.89430120  0.31005361  1
  N  N18  1  0.91769852  0.82047381  0.57117274  1
  N  N19  1  0.17952619  0.08230148  0.92882726  1
  N  N20  1  0.47708987  0.52291013  0.25000000  1
  N  N21  1  0.52291013  0.47708987  0.75000000  1
  N  N22  1  0.82047381  0.91769852  0.07117274  1
  N  N23  1  0.08230148  0.17952619  0.42882726  1
