# generated using pymatgen
data_Na12Mg4Nb2Si6(SO12)3
_symmetry_space_group_name_H-M   'P 1'
_cell_length_a   9.15969075
_cell_length_b   9.14790672
_cell_length_c   22.27099390
_cell_angle_alpha   90.22622800
_cell_angle_beta   90.00000000
_cell_angle_gamma   120.04262134
_symmetry_Int_Tables_number   1
_chemical_formula_structural   Na12Mg4Nb2Si6(SO12)3
_chemical_formula_sum   'Na24 Mg8 Nb4 Si12 S6 O72'
_cell_volume   1615.40554820
_cell_formula_units_Z   2
loop_
 _symmetry_equiv_pos_site_id
 _symmetry_equiv_pos_as_xyz
  1  'x, y, z'
loop_
 _atom_site_type_symbol
 _atom_site_label
 _atom_site_symmetry_multiplicity
 _atom_site_fract_x
 _atom_site_fract_y
 _atom_site_fract_z
 _atom_site_occupancy
  Na  Na0  1  0.64315356  0.01834069  0.25339484  1
  Na  Na1  1  0.34984399  0.34281885  0.25105501  1
  Na  Na2  1  0.99701866  0.63303660  0.24195223  1
  Na  Na3  1  0.63601794  0.63303660  0.74195223  1
  Na  Na4  1  0.99297487  0.34281885  0.75105501  1
  Na  Na5  1  0.37518714  0.01834069  0.75339484  1
  Na  Na6  1  0.30658969  0.34432976  0.58662457  1
  Na  Na7  1  0.03002221  0.70439440  0.57911125  1
  Na  Na8  1  0.66647469  0.94932699  0.58347332  1
  Na  Na9  1  0.28285330  0.94932699  0.08347332  1
  Na  Na10  1  0.67437319  0.70439440  0.07911125  1
  Na  Na11  1  0.03774107  0.34432976  0.08662457  1
  Na  Na12  1  0.98398375  0.68949883  0.91606028  1
  Na  Na13  1  0.71068380  0.02675443  0.90976623  1
  Na  Na14  1  0.31260348  0.28428921  0.91035766  1
  Na  Na15  1  0.97168472  0.28428921  0.41035766  1
  Na  Na16  1  0.31606964  0.02675443  0.40976623  1
  Na  Na17  1  0.70551407  0.68949883  0.41606028  1
  Na  Na18  1  0.99237820  0.99371311  0.49382317  1
  Na  Na19  1  0.00133491  0.99371311  0.99382317  1
  Na  Na20  1  0.65455281  0.31963987  0.82541384  1
  Na  Na21  1  0.66508806  0.31963987  0.32541384  1
  Na  Na22  1  0.31425047  0.66351249  0.16497781  1
  Na  Na23  1  0.34926102  0.66351249  0.66497781  1
  Mg  Mg24  1  0.00988586  0.01113169  0.35143840  1
  Mg  Mg25  1  0.00124583  0.01113169  0.85143840  1
  Mg  Mg26  1  0.98614345  0.99888733  0.65373593  1
  Mg  Mg27  1  0.01274387  0.99888733  0.15373593  1
  Mg  Mg28  1  0.65507082  0.33143020  0.68639190  1
  Mg  Mg29  1  0.67636038  0.33143020  0.18639190  1
  Mg  Mg30  1  0.32438426  0.66755146  0.01430056  1
  Mg  Mg31  1  0.34316620  0.66755146  0.51430056  1
  Nb  Nb32  1  0.67709836  0.34546328  0.97525450  1
  Nb  Nb33  1  0.66836592  0.34546328  0.47525450  1
  Nb  Nb34  1  0.32290657  0.66569962  0.31699417  1
  Nb  Nb35  1  0.34279205  0.66569962  0.81699417  1
  Si  Si36  1  0.29753279  0.00275159  0.24964679  1
  Si  Si37  1  0.99802631  0.28988300  0.24936530  1
  Si  Si38  1  0.29185668  0.28988300  0.74936530  1
  Si  Si39  1  0.70521880  0.00275159  0.74964679  1
  Si  Si40  1  0.66804659  0.63363624  0.58759210  1
  Si  Si41  1  0.96559065  0.63363624  0.08759210  1
  Si  Si42  1  0.62928249  0.67305357  0.92196715  1
  Si  Si43  1  0.04663656  0.37341645  0.91942942  1
  Si  Si44  1  0.32936621  0.95828724  0.92005464  1
  Si  Si45  1  0.62892003  0.95828724  0.42005464  1
  Si  Si46  1  0.32677889  0.37341645  0.41942942  1
  Si  Si47  1  0.04377008  0.67305357  0.42196715  1
  S  S48  1  0.70549260  0.70806888  0.24947787  1
  S  S49  1  0.00257628  0.70806888  0.74947787  1
  S  S50  1  0.95724058  0.33457935  0.58402565  1
  S  S51  1  0.37480133  0.04075148  0.58381628  1
  S  S52  1  0.66595116  0.04075148  0.08381628  1
  S  S53  1  0.37733978  0.33457935  0.08402565  1
  O  O54  1  0.21312444  0.02776036  0.30936856  1
  O  O55  1  0.80762857  0.78380549  0.30380726  1
  O  O56  1  0.96787866  0.17751144  0.30847083  1
  O  O57  1  0.20963278  0.17751144  0.80847083  1
  O  O58  1  0.97617692  0.78380549  0.80380726  1
  O  O59  1  0.81463592  0.02776036  0.80936856  1
  O  O60  1  0.77062442  0.95068559  0.68983734  1
  O  O61  1  0.17679553  0.21541096  0.68887041  1
  O  O62  1  0.03054457  0.81243648  0.69534242  1
  O  O63  1  0.78189191  0.81243648  0.19534242  1
  O  O64  1  0.03861543  0.21541096  0.18887041  1
  O  O65  1  0.18006117  0.95068559  0.18983734  1
  O  O66  1  0.87328846  0.35392579  0.63775077  1
  O  O67  1  0.48123447  0.12091558  0.63731603  1
  O  O68  1  0.64393246  0.51032432  0.64239206  1
  O  O69  1  0.86639286  0.51032432  0.14239206  1
  O  O70  1  0.63968211  0.12091558  0.13731603  1
  O  O71  1  0.48063833  0.35392579  0.13775077  1
  O  O72  1  0.46201294  0.31089245  0.02904372  1
  O  O73  1  0.83401008  0.52172405  0.02635507  1
  O  O74  1  0.68705767  0.14818720  0.02912526  1
  O  O75  1  0.46113053  0.14818720  0.52912526  1
  O  O76  1  0.68771497  0.52172405  0.52635507  1
  O  O77  1  0.84888051  0.31089245  0.52904372  1
  O  O78  1  0.54329114  0.69844246  0.97993406  1
  O  O79  1  0.15581495  0.45603572  0.97820957  1
  O  O80  1  0.30343184  0.84932828  0.97873349  1
  O  O81  1  0.54589544  0.84932828  0.47873349  1
  O  O82  1  0.30021977  0.45603572  0.47820957  1
  O  O83  1  0.15515032  0.69844246  0.47993406  1
  O  O84  1  0.13122874  0.63214398  0.36168092  1
  O  O85  1  0.50007679  0.86793758  0.36037573  1
  O  O86  1  0.37261454  0.50172415  0.35990632  1
  O  O87  1  0.12910861  0.50172415  0.85990632  1
  O  O88  1  0.36785979  0.86793758  0.86037573  1
  O  O89  1  0.50091424  0.63214398  0.86168092  1
  O  O90  1  0.00597536  0.82292199  0.41015625  1
  O  O91  1  0.81364317  0.98322956  0.40988303  1
  O  O92  1  0.17317074  0.18434404  0.41236623  1
  O  O93  1  0.01117331  0.18434404  0.91236623  1
  O  O94  1  0.16958640  0.98322956  0.90988303  1
  O  O95  1  0.81694663  0.82292199  0.91015625  1
  O  O96  1  0.97404669  0.18170083  0.58542153  1
  O  O97  1  0.20769461  0.02905364  0.58717802  1
  O  O98  1  0.84521516  0.81475415  0.58413716  1
  O  O99  1  0.96953898  0.81475415  0.08413716  1
  O  O100  1  0.82135902  0.02905364  0.08717802  1
  O  O101  1  0.20765414  0.18170083  0.08542153  1
  O  O102  1  0.68236538  0.16901039  0.74292669  1
  O  O103  1  0.48652852  0.32730872  0.74643754  1
  O  O104  1  0.85543644  0.53427299  0.74322185  1
  O  O105  1  0.67883755  0.53427299  0.24322185  1
  O  O106  1  0.84078119  0.32730872  0.24643754  1
  O  O107  1  0.48664601  0.16901039  0.24292669  1
  O  O108  1  0.63306600  0.48903893  0.92390391  1
  O  O109  1  0.85237538  0.35903504  0.92361049  1
  O  O110  1  0.50767011  0.14825790  0.92547314  1
  O  O111  1  0.64058879  0.14825790  0.42547314  1
  O  O112  1  0.50666067  0.35903504  0.42361049  1
  O  O113  1  0.85597393  0.48903893  0.42390391  1
  O  O114  1  0.36456078  0.48927125  0.07922267  1
  O  O115  1  0.15022093  0.64814768  0.08140243  1
  O  O116  1  0.51607798  0.86988299  0.07871657  1
  O  O117  1  0.35380401  0.86988299  0.57871657  1
  O  O118  1  0.49792575  0.64814768  0.58140243  1
  O  O119  1  0.12470947  0.48927125  0.57922267  1
  O  O120  1  0.32240262  0.82788565  0.25786721  1
  O  O121  1  0.53305508  0.69220157  0.25432041  1
  O  O122  1  0.17921154  0.48624416  0.25773419  1
  O  O123  1  0.30703162  0.48624416  0.75773419  1
  O  O124  1  0.15914549  0.69220157  0.75432041  1
  O  O125  1  0.50548204  0.82788565  0.75786721  1
