# generated using pymatgen
data_Na4NbGa3Si3(SO8)3
_symmetry_space_group_name_H-M   'P 1'
_cell_length_a   8.85985944
_cell_length_b   8.86625525
_cell_length_c   22.17565756
_cell_angle_alpha   89.65405715
_cell_angle_beta   90.38905810
_cell_angle_gamma   119.78211037
_symmetry_Int_Tables_number   1
_chemical_formula_structural   Na4NbGa3Si3(SO8)3
_chemical_formula_sum   'Na12 Nb3 Ga9 Si9 S9 O72'
_cell_volume   1511.85972106
_cell_formula_units_Z   3
loop_
 _symmetry_equiv_pos_site_id
 _symmetry_equiv_pos_as_xyz
  1  'x, y, z'
loop_
 _atom_site_type_symbol
 _atom_site_label
 _atom_site_symmetry_multiplicity
 _atom_site_fract_x
 _atom_site_fract_y
 _atom_site_fract_z
 _atom_site_occupancy
  Na  Na0  1  0.63610622  0.00017945  0.25095434  1
  Na  Na1  1  0.36451538  0.36428857  0.25057677  1
  Na  Na2  1  0.99935667  0.63420462  0.25129277  1
  Na  Na3  1  0.30200629  0.33798260  0.58604329  1
  Na  Na4  1  0.66781318  0.96734263  0.58615276  1
  Na  Na5  1  0.29426785  0.96168859  0.08384812  1
  Na  Na6  1  0.00088020  0.98986926  0.50042355  1
  Na  Na7  1  0.98908201  0.00104524  0.99371105  1
  Na  Na8  1  0.66711415  0.33373488  0.82559133  1
  Na  Na9  1  0.66762327  0.33354494  0.33028526  1
  Na  Na10  1  0.33427262  0.65553976  0.16759249  1
  Na  Na11  1  0.32113745  0.66776149  0.66187845  1
  Nb  Nb12  1  0.66883020  0.33423783  0.97227303  1
  Nb  Nb13  1  0.66721031  0.33460303  0.48388745  1
  Nb  Nb14  1  0.33286323  0.66678143  0.81558749  1
  Ga  Ga15  1  0.99956370  0.99910259  0.33831247  1
  Ga  Ga16  1  0.00017818  0.99919245  0.85919634  1
  Ga  Ga17  1  0.00154962  0.99447541  0.64088865  1
  Ga  Ga18  1  0.99509272  0.00107421  0.16339253  1
  Ga  Ga19  1  0.66736079  0.33331096  0.67390104  1
  Ga  Ga20  1  0.66796003  0.33559875  0.19068951  1
  Ga  Ga21  1  0.33406661  0.66226377  0.00546752  1
  Ga  Ga22  1  0.32705251  0.66737838  0.52437959  1
  Ga  Ga23  1  0.33302997  0.66694947  0.30933385  1
  Si  Si24  1  0.29098712  0.00086524  0.24882213  1
  Si  Si25  1  0.70902526  0.70873690  0.25063778  1
  Si  Si26  1  0.00032129  0.29057478  0.25036918  1
  Si  Si27  1  0.96285629  0.33813031  0.58784555  1
  Si  Si28  1  0.37265946  0.03704632  0.58667071  1
  Si  Si29  1  0.66703381  0.62724090  0.58619211  1
  Si  Si30  1  0.62836702  0.67847890  0.91875335  1
  Si  Si31  1  0.04982698  0.37167953  0.91828180  1
  Si  Si32  1  0.32321722  0.95016352  0.92004691  1
  S  S33  1  0.29044170  0.28605459  0.74921776  1
  S  S34  1  0.99516764  0.71165274  0.74931319  1
  S  S35  1  0.71337758  0.00429381  0.74921800  1
  S  S36  1  0.95795936  0.62440251  0.08485878  1
  S  S37  1  0.66952646  0.04128462  0.08508980  1
  S  S38  1  0.37518462  0.33722506  0.08431575  1
  S  S39  1  0.62552904  0.95440845  0.41628253  1
  S  S40  1  0.32837557  0.37395344  0.41614638  1
  S  S41  1  0.04711003  0.67098991  0.41591463  1
  O  O42  1  0.21186159  0.05399019  0.30564507  1
  O  O43  1  0.84055640  0.78407892  0.30835785  1
  O  O44  1  0.94400096  0.15953179  0.30831114  1
  O  O45  1  0.20194379  0.18154560  0.80302554  1
  O  O46  1  0.97960603  0.79648724  0.80412757  1
  O  O47  1  0.81843883  0.01899439  0.80304423  1
  O  O48  1  0.78872448  0.97840193  0.69314320  1
  O  O49  1  0.18826568  0.21034555  0.69292768  1
  O  O50  1  0.02250543  0.81813256  0.69429671  1
  O  O51  1  0.78274775  0.83844236  0.19204842  1
  O  O52  1  0.05773063  0.21745506  0.19219557  1
  O  O53  1  0.16809508  0.95063154  0.18738538  1
  O  O54  1  0.87924266  0.37805008  0.64522311  1
  O  O55  1  0.50491802  0.11844554  0.64327327  1
  O  O56  1  0.61118337  0.49282465  0.64230252  1
  O  O57  1  0.87479113  0.52243631  0.14049384  1
  O  O58  1  0.64295911  0.12446124  0.13972294  1
  O  O59  1  0.47735216  0.35555674  0.14054441  1
  O  O60  1  0.47031938  0.31599503  0.03175578  1
  O  O61  1  0.84898808  0.52968247  0.03117461  1
  O  O62  1  0.68438860  0.15127311  0.03103286  1
  O  O63  1  0.46969608  0.17285524  0.52718334  1
  O  O64  1  0.70087329  0.53027985  0.52669627  1
  O  O65  1  0.82838308  0.29760605  0.52800025  1
  O  O66  1  0.54611201  0.70928645  0.97834149  1
  O  O67  1  0.16082209  0.45522531  0.97841496  1
  O  O68  1  0.29740212  0.84401443  0.98246977  1
  O  O69  1  0.53936265  0.85308929  0.47141630  1
  O  O70  1  0.31491922  0.46012606  0.47133101  1
  O  O71  1  0.15274737  0.68622150  0.46994753  1
  O  O72  1  0.12376366  0.64522775  0.36002673  1
  O  O73  1  0.51950810  0.87433375  0.36102225  1
  O  O74  1  0.35318404  0.48018556  0.36101852  1
  O  O75  1  0.13684690  0.50289620  0.85917322  1
  O  O76  1  0.36519307  0.85959098  0.86183014  1
  O  O77  1  0.49660551  0.63292508  0.85944621  1
  O  O78  1  0.02765458  0.82678573  0.41297369  1
  O  O79  1  0.80035147  0.97323326  0.41313365  1
  O  O80  1  0.17372612  0.19918651  0.41271409  1
  O  O81  1  0.01841292  0.18224148  0.90673739  1
  O  O82  1  0.16362325  0.97986483  0.90796670  1
  O  O83  1  0.81755339  0.83568630  0.90697530  1
  O  O84  1  0.97262782  0.15931551  0.59108808  1
  O  O85  1  0.19029957  0.03605409  0.58952299  1
  O  O86  1  0.83523130  0.81850346  0.58999046  1
  O  O87  1  0.97244186  0.79872904  0.08512568  1
  O  O88  1  0.82947708  0.02950236  0.08754970  1
  O  O89  1  0.20459640  0.17323064  0.08544848  1
  O  O90  1  0.69131144  0.15918568  0.74686266  1
  O  O91  1  0.46681852  0.30695233  0.74660476  1
  O  O92  1  0.84088612  0.53597080  0.74575905  1
  O  O93  1  0.68601294  0.51527248  0.24214365  1
  O  O94  1  0.82928771  0.31337298  0.24150755  1
  O  O95  1  0.48463767  0.17054936  0.24094693  1
  O  O96  1  0.63820574  0.49589319  0.92566096  1
  O  O97  1  0.85717441  0.36156789  0.92483948  1
  O  O98  1  0.50446110  0.14260988  0.92612021  1
  O  O99  1  0.64071379  0.13299489  0.41996882  1
  O  O100  1  0.49196667  0.35818487  0.41959966  1
  O  O101  1  0.86922188  0.50882667  0.42059995  1
  O  O102  1  0.35819846  0.49365591  0.07908552  1
  O  O103  1  0.13458742  0.64387310  0.08163126  1
  O  O104  1  0.50827995  0.86905317  0.08077593  1
  O  O105  1  0.36429680  0.85435221  0.57417096  1
  O  O106  1  0.49592922  0.64479420  0.57255482  1
  O  O107  1  0.15512917  0.49882724  0.57527370  1
  O  O108  1  0.31153762  0.82888482  0.25800107  1
  O  O109  1  0.51572158  0.68647818  0.25913249  1
  O  O110  1  0.17027137  0.48382070  0.25902283  1
  O  O111  1  0.30716127  0.46586466  0.75338574  1
  O  O112  1  0.15825485  0.69401054  0.75338908  1
  O  O113  1  0.53340154  0.84211239  0.75375009  1
