# generated using pymatgen
data_Na3YSc(PO4)3
_symmetry_space_group_name_H-M   'P 1'
_cell_length_a   9.21530552
_cell_length_b   9.19715641
_cell_length_c   22.91884364
_cell_angle_alpha   89.99511706
_cell_angle_beta   89.99793960
_cell_angle_gamma   119.97177109
_symmetry_Int_Tables_number   1
_chemical_formula_structural   Na3YSc(PO4)3
_chemical_formula_sum   'Na18 Y6 Sc6 P18 O72'
_cell_volume   1682.71322023
_cell_formula_units_Z   6
loop_
 _symmetry_equiv_pos_site_id
 _symmetry_equiv_pos_as_xyz
  1  'x, y, z'
loop_
 _atom_site_type_symbol
 _atom_site_label
 _atom_site_symmetry_multiplicity
 _atom_site_fract_x
 _atom_site_fract_y
 _atom_site_fract_z
 _atom_site_occupancy
  Na  Na0  1  0.00099491  0.00098047  0.50154449  1
  Na  Na1  1  0.99867747  0.99852901  0.00176700  1
  Na  Na2  1  0.63422407  0.31726883  0.83237869  1
  Na  Na3  1  0.68340516  0.36650975  0.33426734  1
  Na  Na4  1  0.33106555  0.66628462  0.17012787  1
  Na  Na5  1  0.33355927  0.66690736  0.66652460  1
  Na  Na6  1  0.63773681  0.00288106  0.24902725  1
  Na  Na7  1  0.36066685  0.35883700  0.24893387  1
  Na  Na8  1  0.64085328  0.63607228  0.74649728  1
  Na  Na9  1  0.99376248  0.36049402  0.74587171  1
  Na  Na10  1  0.03290282  0.69989090  0.58433431  1
  Na  Na11  1  0.66734220  0.97060374  0.58427861  1
  Na  Na12  1  0.30199145  0.97085932  0.08701228  1
  Na  Na13  1  0.02578112  0.32979747  0.08738886  1
  Na  Na14  1  0.97078076  0.66488052  0.91794556  1
  Na  Na15  1  0.69574454  0.02871770  0.91710655  1
  Na  Na16  1  0.97132251  0.30385190  0.41656761  1
  Na  Na17  1  0.33636299  0.03329149  0.41761873  1
  Y  Y18  1  0.99020526  0.98615068  0.34841237  1
  Y  Y19  1  0.01443559  0.01025004  0.84786099  1
  Y  Y20  1  0.66026966  0.33965901  0.98624029  1
  Y  Y21  1  0.34259931  0.66207094  0.01954511  1
  Y  Y22  1  0.33782013  0.65765511  0.51835430  1
  Y  Y23  1  0.33353232  0.67042263  0.81395761  1
  Sc  Sc24  1  0.01039211  0.00674386  0.64743017  1
  Sc  Sc25  1  0.99306038  0.98962912  0.15248592  1
  Sc  Sc26  1  0.65828486  0.32758466  0.68221679  1
  Sc  Sc27  1  0.67212944  0.34150004  0.18418523  1
  Sc  Sc28  1  0.66233681  0.33925714  0.48267745  1
  Sc  Sc29  1  0.32965174  0.66534203  0.31654414  1
  P  P30  1  0.30373334  0.00012600  0.24917137  1
  P  P31  1  0.69299366  0.69655804  0.24914364  1
  P  P32  1  0.00053264  0.30082489  0.24903276  1
  P  P33  1  0.30247014  0.29955654  0.74578830  1
  P  P34  1  0.99359645  0.69646542  0.74584159  1
  P  P35  1  0.70745360  0.00450364  0.74554952  1
  P  P36  1  0.95242980  0.32756931  0.58374528  1
  P  P37  1  0.37048162  0.04253314  0.58089168  1
  P  P38  1  0.67567860  0.63216553  0.58640874  1
  P  P39  1  0.96585953  0.63725138  0.08374447  1
  P  P40  1  0.67313947  0.03975042  0.08683699  1
  P  P41  1  0.35766368  0.32240528  0.09074403  1
  P  P42  1  0.64000442  0.67003766  0.91162799  1
  P  P43  1  0.02811530  0.36408613  0.91765542  1
  P  P44  1  0.33392174  0.96555612  0.92107721  1
  P  P45  1  0.62965258  0.97021330  0.41718787  1
  P  P46  1  0.33708955  0.36811960  0.41232666  1
  P  P47  1  0.03728279  0.66081087  0.41990513  1
  O  O48  1  0.22533420  0.02937848  0.30448725  1
  O  O49  1  0.79281111  0.76847070  0.30539891  1
  O  O50  1  0.96807766  0.19265397  0.30468221  1
  O  O51  1  0.22978063  0.20779204  0.80318733  1
  O  O52  1  0.97683261  0.77797178  0.80271784  1
  O  O53  1  0.80841172  0.02895674  0.80242526  1
  O  O54  1  0.80304002  0.98757531  0.69279448  1
  O  O55  1  0.18598923  0.20075194  0.69467282  1
  O  O56  1  0.01022308  0.80713909  0.69235777  1
  O  O57  1  0.78754044  0.81623603  0.19778508  1
  O  O58  1  0.02605278  0.20969536  0.19621528  1
  O  O59  1  0.19272945  0.97885572  0.19526160  1
  O  O60  1  0.86508531  0.34665273  0.63877799  1
  O  O61  1  0.48496119  0.13944509  0.63298761  1
  O  O62  1  0.66032358  0.53348004  0.64288832  1
  O  O63  1  0.85937419  0.51338770  0.13264573  1
  O  O64  1  0.65293088  0.13493939  0.13922213  1
  O  O65  1  0.46428138  0.33943240  0.14509934  1
  O  O66  1  0.44255229  0.30209522  0.03575301  1
  O  O67  1  0.87884363  0.57005557  0.02435460  1
  O  O68  1  0.69745935  0.14078522  0.02979596  1
  O  O69  1  0.45104240  0.13895287  0.52354088  1
  O  O70  1  0.68755647  0.53438623  0.53298535  1
  O  O71  1  0.84544148  0.30809156  0.52844714  1
  O  O72  1  0.54381656  0.68677942  0.96404905  1
  O  O73  1  0.12908196  0.45205697  0.97307429  1
  O  O74  1  0.31826836  0.86877523  0.97800981  1
  O  O75  1  0.54987784  0.87075019  0.47370331  1
  O  O76  1  0.30749922  0.45261733  0.46522050  1
  O  O77  1  0.13397573  0.68461563  0.47713028  1
  O  O78  1  0.13510015  0.63842872  0.36826721  1
  O  O79  1  0.51953734  0.87462220  0.36311736  1
  O  O80  1  0.35363997  0.46985343  0.35602254  1
  O  O81  1  0.11747687  0.46714595  0.86208003  1
  O  O82  1  0.35275918  0.87108857  0.86832431  1
  O  O83  1  0.54607577  0.65546098  0.85400200  1
  O  O84  1  0.02631803  0.82174084  0.41253817  1
  O  O85  1  0.81166174  0.00261063  0.41308608  1
  O  O86  1  0.18084810  0.18984558  0.40983602  1
  O  O87  1  -0.00021957  0.18349051  0.91568254  1
  O  O88  1  0.17122273  0.97336448  0.91602349  1
  O  O89  1  0.81370833  0.82945301  0.91250876  1
  O  O90  1  0.96650827  0.16586725  0.58742199  1
  O  O91  1  0.18983713  0.01349372  0.58641214  1
  O  O92  1  0.83835540  0.80817259  0.58673156  1
  O  O93  1  0.99417559  0.81652838  0.09212346  1
  O  O94  1  0.83266491  0.02529867  0.09340060  1
  O  O95  1  0.18188650  0.16323488  0.09345832  1
  O  O96  1  0.68896409  0.16287757  0.74038672  1
  O  O97  1  0.48304248  0.32910475  0.74052656  1
  O  O98  1  0.83368773  0.52018524  0.74231172  1
  O  O99  1  0.66348937  0.51578680  0.24139739  1
  O  O100  1  0.84238337  0.31859697  0.24106063  1
  O  O101  1  0.48249488  0.15823106  0.24303446  1
  O  O102  1  0.66407992  0.51541929  0.91655273  1
  O  O103  1  0.85361951  0.35121860  0.91912423  1
  O  O104  1  0.49442659  0.13938962  0.92100348  1
  O  O105  1  0.63984668  0.14545170  0.41947827  1
  O  O106  1  0.49494156  0.34929308  0.41922603  1
  O  O107  1  0.86325583  0.49864331  0.42196384  1
  O  O108  1  0.33169571  0.47697954  0.08730089  1
  O  O109  1  0.14024472  0.64838595  0.08488503  1
  O  O110  1  0.50975934  0.86677001  0.08469559  1
  O  O111  1  0.35621043  0.86589194  0.58111547  1
  O  O112  1  0.52510744  0.66361611  0.58351114  1
  O  O113  1  0.12693229  0.48973593  0.58127892  1
  O  O114  1  0.32762696  0.84382423  0.25523667  1
  O  O115  1  0.51772466  0.68517100  0.25320524  1
  O  O116  1  0.16395702  0.47352490  0.25497614  1
  O  O117  1  0.31422289  0.47486111  0.74628157  1
  O  O118  1  0.14700994  0.66810269  0.74737348  1
  O  O119  1  0.53523468  0.84030630  0.74758448  1
