# generated using pymatgen
data_Rb2Si2O5
_symmetry_space_group_name_H-M   'P 1'
_cell_length_a   6.61913944
_cell_length_b   6.61913944
_cell_length_c   14.74326126
_cell_angle_alpha   89.74755895
_cell_angle_beta   89.74755895
_cell_angle_gamma   77.84103533
_symmetry_Int_Tables_number   1
_chemical_formula_structural   Rb2Si2O5
_chemical_formula_sum   'Rb8 Si8 O20'
_cell_volume   631.44595889
_cell_formula_units_Z   4
loop_
 _symmetry_equiv_pos_site_id
 _symmetry_equiv_pos_as_xyz
  1  'x, y, z'
loop_
 _atom_site_type_symbol
 _atom_site_label
 _atom_site_symmetry_multiplicity
 _atom_site_fract_x
 _atom_site_fract_y
 _atom_site_fract_z
 _atom_site_occupancy
  Rb  Rb0  1  0.05253131  0.27395459  0.41414120  1
  Rb  Rb1  1  0.72604541  0.94746869  0.08585880  1
  Rb  Rb2  1  0.94746869  0.72604541  0.58585880  1
  Rb  Rb3  1  0.27395459  0.05253131  0.91414120  1
  Rb  Rb4  1  0.28844725  0.54237306  0.09920292  1
  Rb  Rb5  1  0.45762694  0.71155275  0.40079708  1
  Rb  Rb6  1  0.71155275  0.45762694  0.90079708  1
  Rb  Rb7  1  0.54237306  0.28844725  0.59920292  1
  Si  Si8  1  0.80352493  0.43901133  0.18556398  1
  Si  Si9  1  0.79576696  0.94456690  0.80584746  1
  Si  Si10  1  0.05543310  0.20423304  0.69415254  1
  Si  Si11  1  0.20423304  0.05543310  0.19415254  1
  Si  Si12  1  0.94456690  0.79576696  0.30584746  1
  Si  Si13  1  0.43901133  0.80352493  0.68556398  1
  Si  Si14  1  0.19647507  0.56098867  0.81443602  1
  Si  Si15  1  0.56098867  0.19647507  0.31443602  1
  O  O16  1  0.99722624  0.75344189  0.80661272  1
  O  O17  1  0.49584459  0.72896094  0.58585730  1
  O  O18  1  0.27103906  0.50415541  0.91414270  1
  O  O19  1  0.50415541  0.27103906  0.41414270  1
  O  O20  1  0.72896094  0.49584459  0.08585730  1
  O  O21  1  0.70708848  0.01156845  0.90270689  1
  O  O22  1  0.98843155  0.29291152  0.59729311  1
  O  O23  1  0.29291152  0.98843155  0.09729311  1
  O  O24  1  0.13509374  0.86490626  0.25000000  1
  O  O25  1  0.86490626  0.13509374  0.75000000  1
  O  O26  1  0.87068970  0.63271535  0.23711082  1
  O  O27  1  0.36728465  0.12931030  0.26288918  1
  O  O28  1  0.12931030  0.36728465  0.76288918  1
  O  O29  1  0.63271535  0.87068970  0.73711082  1
  O  O30  1  0.62115896  0.37884104  0.25000000  1
  O  O31  1  0.37884104  0.62115896  0.75000000  1
  O  O32  1  0.00277376  0.24655811  0.19338728  1
  O  O33  1  0.75344189  0.99722624  0.30661272  1
  O  O34  1  0.24655811  0.00277376  0.69338728  1
  O  O35  1  0.01156845  0.70708848  0.40270689  1
