# generated using pymatgen
data_Na10Ca4Ti4Si5S7O48
_symmetry_space_group_name_H-M   'P 1'
_cell_length_a   18.39789307
_cell_length_b   9.19587953
_cell_length_c   22.73448025
_cell_angle_alpha   89.65124084
_cell_angle_beta   91.49498543
_cell_angle_gamma   119.97202163
_symmetry_Int_Tables_number   1
_chemical_formula_structural   Na10Ca4Ti4Si5S7O48
_chemical_formula_sum   'Na30 Ca12 Ti12 Si15 S21 O144'
_cell_volume   3330.71573486
_cell_formula_units_Z   3
loop_
 _symmetry_equiv_pos_site_id
 _symmetry_equiv_pos_as_xyz
  1  'x, y, z'
loop_
 _atom_site_type_symbol
 _atom_site_label
 _atom_site_symmetry_multiplicity
 _atom_site_fract_x
 _atom_site_fract_y
 _atom_site_fract_z
 _atom_site_occupancy
  Na  Na0  1  0.33147979  0.02554873  0.24999200  1
  Na  Na1  1  0.67857593  0.34873339  0.25582343  1
  Na  Na2  1  0.99653853  0.63119128  0.24399157  1
  Na  Na3  1  0.49699713  0.62676748  0.24174351  1
  Na  Na4  1  0.32705601  0.62986325  0.75273244  1
  Na  Na5  1  0.82740298  0.63011616  0.75128376  1
  Na  Na6  1  0.99575041  0.36527332  0.74156544  1
  Na  Na7  1  0.49567457  0.36501114  0.74202731  1
  Na  Na8  1  0.17741383  0.00835970  0.75514067  1
  Na  Na9  1  0.67852117  0.00898160  0.75439101  1
  Na  Na10  1  0.33401136  0.96461342  0.57650347  1
  Na  Na11  1  0.83429450  0.96614390  0.57520332  1
  Na  Na12  1  0.33498491  0.70427446  0.07638729  1
  Na  Na13  1  0.83221399  0.69946994  0.07568121  1
  Na  Na14  1  0.48738415  0.68131110  0.90885664  1
  Na  Na15  1  0.98794196  0.68164623  0.90779530  1
  Na  Na16  1  0.49087021  0.29710489  0.40586888  1
  Na  Na17  1  0.16374969  0.03019144  0.41035945  1
  Na  Na18  1  0.98659036  0.99834332  0.49807538  1
  Na  Na19  1  0.49866451  0.99164841  0.49837277  1
  Na  Na20  1  0.99587895  0.00804574  0.99525125  1
  Na  Na21  1  0.49439932  0.00006558  0.99931735  1
  Na  Na22  1  0.32687779  0.33273265  0.83239008  1
  Na  Na23  1  0.82813928  0.33356275  0.83095113  1
  Na  Na24  1  0.32789367  0.33461919  0.32556565  1
  Na  Na25  1  0.82248885  0.30166516  0.33509839  1
  Na  Na26  1  0.15340846  0.65239879  0.16137666  1
  Na  Na27  1  0.65344435  0.67023362  0.16297877  1
  Na  Na28  1  0.14878191  0.63935678  0.66123696  1
  Na  Na29  1  0.65182892  0.64254885  0.65985870  1
  Ca  Ca30  1  0.99534688  0.00389571  0.35216573  1
  Ca  Ca31  1  0.49948461  0.99649136  0.35322235  1
  Ca  Ca32  1  0.99874938  0.00151679  0.85251473  1
  Ca  Ca33  1  0.49876385  0.00125758  0.85307287  1
  Ca  Ca34  1  0.33618090  0.34091761  0.68088868  1
  Ca  Ca35  1  0.83621870  0.34149385  0.68021025  1
  Ca  Ca36  1  0.33299002  0.32998538  0.18321720  1
  Ca  Ca37  1  0.83444536  0.32128191  0.18331518  1
  Ca  Ca38  1  0.16549242  0.67060707  0.01853163  1
  Ca  Ca39  1  0.66422327  0.67026705  0.01923705  1
  Ca  Ca40  1  0.16197129  0.65156753  0.51868555  1
  Ca  Ca41  1  0.66552261  0.65948569  0.51827721  1
  Ti  Ti42  1  0.01523093  0.01586426  0.64792497  1
  Ti  Ti43  1  0.51697186  0.01794178  0.64816737  1
  Ti  Ti44  1  0.01041092  0.99557471  0.14565956  1
  Ti  Ti45  1  0.51458375  0.01312433  0.14926774  1
  Ti  Ti46  1  0.33374278  0.35666550  0.98401180  1
  Ti  Ti47  1  0.83324892  0.35494302  0.98284773  1
  Ti  Ti48  1  0.34297736  0.32913297  0.48195897  1
  Ti  Ti49  1  0.83900267  0.31510373  0.48109515  1
  Ti  Ti50  1  0.17184168  0.68483376  0.31723048  1
  Ti  Ti51  1  0.67360608  0.68780033  0.31043459  1
  Ti  Ti52  1  0.16599007  0.65031617  0.81367800  1
  Ti  Ti53  1  0.66608253  0.65018514  0.81352699  1
  Si  Si54  1  0.14778984  0.99387769  0.25610355  1
  Si  Si55  1  0.64976109  0.00123184  0.25342213  1
  Si  Si56  1  0.50569643  0.30118347  0.25256622  1
  Si  Si57  1  0.14821413  0.29837921  0.75225311  1
  Si  Si58  1  0.64878495  0.29891960  0.75259575  1
  Si  Si59  1  0.00474464  0.71034344  0.75284609  1
  Si  Si60  1  0.50514614  0.71102028  0.75280347  1
  Si  Si61  1  0.48535272  0.32054880  0.58906922  1
  Si  Si62  1  0.98353129  0.31979182  0.58916927  1
  Si  Si63  1  0.48347524  0.64695430  0.08916382  1
  Si  Si64  1  0.98227536  0.63407249  0.08856589  1
  Si  Si65  1  0.31267835  0.66321169  0.92193561  1
  Si  Si66  1  0.81251282  0.66494503  0.92200296  1
  Si  Si67  1  0.31544026  0.96805729  0.42379836  1
  Si  Si68  1  0.81265439  0.96125426  0.42192880  1
  S  S69  1  0.34634272  0.70730837  0.24962331  1
  S  S70  1  0.84999432  0.71028048  0.24707443  1
  S  S71  1  0.00840035  0.30246484  0.24846543  1
  S  S72  1  0.34721353  0.98685826  0.74800778  1
  S  S73  1  0.84734488  0.98725687  0.74819148  1
  S  S74  1  0.18315130  0.04215456  0.58204996  1
  S  S75  1  0.68385041  0.04287807  0.58328327  1
  S  S76  1  0.33997573  0.63461552  0.58196614  1
  S  S77  1  0.83998403  0.63768457  0.58333401  1
  S  S78  1  0.33949016  0.04547164  0.08301268  1
  S  S79  1  0.84096219  0.04458224  0.08184969  1
  S  S80  1  0.18204675  0.32100348  0.08281989  1
  S  S81  1  0.68474234  0.32389051  0.08315203  1
  S  S82  1  0.01557779  0.37778754  0.91550704  1
  S  S83  1  0.51594995  0.37809064  0.91520913  1
  S  S84  1  0.17415921  0.97053953  0.91502868  1
  S  S85  1  0.67485433  0.97175908  0.91525386  1
  S  S86  1  0.17387686  0.38026878  0.41492828  1
  S  S87  1  0.67477649  0.37784879  0.41526232  1
  S  S88  1  0.01601104  0.65391792  0.41439092  1
  S  S89  1  0.51492664  0.65301679  0.41614139  1
  O  O90  1  0.10582510  0.00654279  0.31387226  1
  O  O91  1  0.60404595  0.02098863  0.30736938  1
  O  O92  1  0.39815683  0.78155713  0.30240207  1
  O  O93  1  0.90268646  0.78557767  0.29938973  1
  O  O94  1  0.48407983  0.19028446  0.31063942  1
  O  O95  1  0.99729943  0.20853639  0.30213058  1
  O  O96  1  0.10589728  0.18351280  0.80642754  1
  O  O97  1  0.60529822  0.18307960  0.80622532  1
  O  O98  1  0.48377084  0.77782371  0.81058453  1
  O  O99  1  0.98391431  0.77750373  0.81087070  1
  O  O100  1  0.39990834  0.02114200  0.80095257  1
  O  O101  1  0.89955072  0.02113374  0.80136959  1
  O  O102  1  0.38730713  0.96404449  0.69518070  1
  O  O103  1  0.88774873  0.96450421  0.69562587  1
  O  O104  1  0.08455423  0.20165817  0.69137760  1
  O  O105  1  0.58548767  0.20303546  0.69122195  1
  O  O106  1  0.01886923  0.84897022  0.69635792  1
  O  O107  1  0.51931265  0.84989070  0.69605359  1
  O  O108  1  0.38498002  0.81370145  0.19638462  1
  O  O109  1  0.88955296  0.81212688  0.19317231  1
  O  O110  1  0.01400025  0.21078181  0.19585196  1
  O  O111  1  0.51788432  0.18671924  0.19638568  1
  O  O112  1  0.08010873  0.96927391  0.19621012  1
  O  O113  1  0.58473742  0.96805285  0.19200452  1
  O  O114  1  0.44097801  0.33067445  0.64637527  1
  O  O115  1  0.94164024  0.33049815  0.64782526  1
  O  O116  1  0.23036566  0.11508876  0.63711597  1
  O  O117  1  0.72841496  0.11107663  0.63952538  1
  O  O118  1  0.32887950  0.54853902  0.63825401  1
  O  O119  1  0.82946830  0.55176622  0.63986613  1
  O  O120  1  0.43921384  0.54762611  0.14665782  1
  O  O121  1  0.93978631  0.54518160  0.14780489  1
  O  O122  1  0.32927540  0.11170812  0.13875445  1
  O  O123  1  0.82924616  0.11338275  0.13592404  1
  O  O124  1  0.23020521  0.34407597  0.13685275  1
  O  O125  1  0.73187583  0.34593657  0.13815236  1
  O  O126  1  0.22505067  0.29848567  0.03065526  1
  O  O127  1  0.73040480  0.30374092  0.03188529  1
  O  O128  1  0.41147963  0.52630400  0.02928701  1
  O  O129  1  0.91225707  0.52567194  0.02980849  1
  O  O130  1  0.34194959  0.15207212  0.03210774  1
  O  O131  1  0.84649300  0.14990312  0.02986569  1
  O  O132  1  0.22671090  0.15067146  0.52992970  1
  O  O133  1  0.72900450  0.15428897  0.53282625  1
  O  O134  1  0.34309949  0.53079004  0.53190928  1
  O  O135  1  0.84350534  0.53847916  0.53320402  1
  O  O136  1  0.41469406  0.30214588  0.52858130  1
  O  O137  1  0.91223550  0.29779108  0.53033186  1
  O  O138  1  0.27384637  0.67474849  0.98154050  1
  O  O139  1  0.77339216  0.67536909  0.98150733  1
  O  O140  1  0.06533013  0.45713206  0.96815666  1
  O  O141  1  0.56606633  0.45764796  0.96775739  1
  O  O142  1  0.16136413  0.86447787  0.96620307  1
  O  O143  1  0.66241259  0.86569886  0.96625605  1
  O  O144  1  0.26994839  0.87081922  0.48069813  1
  O  O145  1  0.77462536  0.87486046  0.48237455  1
  O  O146  1  0.16264171  0.45047303  0.46855117  1
  O  O147  1  0.66149825  0.45813979  0.46577299  1
  O  O148  1  0.06816043  0.68034193  0.46684998  1
  O  O149  1  0.56439706  0.67271792  0.46892380  1
  O  O150  1  0.05881671  0.63304203  0.36066226  1
  O  O151  1  0.55361365  0.62674787  0.36223474  1
  O  O152  1  0.24806369  0.85944828  0.36292818  1
  O  O153  1  0.74544758  0.84813675  0.36316519  1
  O  O154  1  0.17876311  0.48788106  0.36265694  1
  O  O155  1  0.68173575  0.47636417  0.36004863  1
  O  O156  1  0.05891323  0.48428634  0.86129590  1
  O  O157  1  0.55943670  0.48525837  0.86092926  1
  O  O158  1  0.18080907  0.88477589  0.86038368  1
  O  O159  1  0.68272574  0.88850804  0.86051565  1
  O  O160  1  0.24759352  0.64206975  0.86198917  1
  O  O161  1  0.74770555  0.64254299  0.86215048  1
  O  O162  1  0.00696217  0.80323960  0.40817317  1
  O  O163  1  0.49757630  0.78994685  0.41132742  1
  O  O164  1  0.41010140  0.01100757  0.41807401  1
  O  O165  1  0.90592356  0.99898751  0.41373440  1
  O  O166  1  0.10309756  0.20668736  0.40874866  1
  O  O167  1  0.60007927  0.20799435  0.41137495  1
  O  O168  1  0.00062322  0.20788291  0.91054118  1
  O  O169  1  0.50112208  0.20860335  0.91003632  1
  O  O170  1  0.09958069  0.99103071  0.91101459  1
  O  O171  1  0.60047207  0.99221982  0.91104527  1
  O  O172  1  0.40845716  0.80844350  0.91610889  1
  O  O173  1  0.90865093  0.80895340  0.91644807  1
  O  O174  1  0.48164426  0.13299765  0.58985857  1
  O  O175  1  0.98146335  0.13347757  0.59034026  1
  O  O176  1  0.09807634  0.02965363  0.58459645  1
  O  O177  1  0.59835947  0.03081126  0.58496429  1
  O  O178  1  0.41950522  0.80135746  0.58305047  1
  O  O179  1  0.91921477  0.80665433  0.58538425  1
  O  O180  1  0.48143872  0.82966532  0.09061908  1
  O  O181  1  0.98334447  0.82526897  0.09240757  1
  O  O182  1  0.41890118  0.03624540  0.08451289  1
  O  O183  1  0.92084193  0.03417736  0.08607567  1
  O  O184  1  0.09656315  0.16246737  0.08628111  1
  O  O185  1  0.60015317  0.16655333  0.08465617  1
  O  O186  1  0.32915798  0.12633778  0.74240989  1
  O  O187  1  0.82926824  0.12659568  0.74258136  1
  O  O188  1  0.24235463  0.33405925  0.74519793  1
  O  O189  1  0.74267952  0.33387419  0.74561364  1
  O  O190  1  0.42888642  0.52100112  0.74420275  1
  O  O191  1  0.92832644  0.52017803  0.74470647  1
  O  O192  1  0.33206884  0.53657875  0.24359070  1
  O  O193  1  0.83592745  0.53722810  0.24243783  1
  O  O194  1  0.42890886  0.33783918  0.24447013  1
  O  O195  1  0.93706708  0.33455431  0.24347522  1
  O  O196  1  0.24268633  0.13574932  0.24712130  1
  O  O197  1  0.73978068  0.16495326  0.24709160  1
  O  O198  1  0.31683537  0.47658741  0.92656658  1
  O  O199  1  0.81705303  0.47762776  0.92711556  1
  O  O200  1  0.43329606  0.37823067  0.91714480  1
  O  O201  1  0.93279165  0.37787335  0.91730746  1
  O  O202  1  0.25278215  0.13764118  0.92104855  1
  O  O203  1  0.75349122  0.14018868  0.92202923  1
  O  O204  1  0.31546366  0.15750136  0.42638343  1
  O  O205  1  0.81659175  0.15547192  0.42665605  1
  O  O206  1  0.25342866  0.37054915  0.41800271  1
  O  O207  1  0.75304961  0.36694694  0.42206863  1
  O  O208  1  0.42995824  0.48589717  0.42088666  1
  O  O209  1  0.93157570  0.49782754  0.41854695  1
  O  O210  1  0.17081396  0.46709762  0.07611160  1
  O  O211  1  0.67534044  0.47202374  0.07629605  1
  O  O212  1  0.07427760  0.66711700  0.08064123  1
  O  O213  1  0.57424678  0.67161997  0.08045481  1
  O  O214  1  0.26818262  0.87074075  0.07801394  1
  O  O215  1  0.77034207  0.87021628  0.07679720  1
  O  O216  1  0.17339668  0.87432071  0.57661327  1
  O  O217  1  0.67287304  0.87415214  0.57728203  1
  O  O218  1  0.26901081  0.66603532  0.57549196  1
  O  O219  1  0.76843562  0.66927242  0.57833428  1
  O  O220  1  0.07422738  0.47729135  0.58126108  1
  O  O221  1  0.57549769  0.47785544  0.58025372  1
  O  O222  1  0.14713049  0.80426928  0.26063676  1
  O  O223  1  0.65115003  0.81751653  0.25850279  1
  O  O224  1  0.26233911  0.70328547  0.25589743  1
  O  O225  1  0.76442778  0.69495271  0.25245336  1
  O  O226  1  0.08724500  0.47346453  0.25237024  1
  O  O227  1  0.59620419  0.48652307  0.25854831  1
  O  O228  1  0.14974641  0.48490615  0.75869594  1
  O  O229  1  0.64993452  0.48494115  0.75872261  1
  O  O230  1  0.09542334  0.70502903  0.76004802  1
  O  O231  1  0.59575919  0.70583575  0.76030669  1
  O  O232  1  0.26392037  0.82461713  0.75370127  1
  O  O233  1  0.76400010  0.82462360  0.75368625  1
