# generated using pymatgen
data_Na5ZrAl3(PO4)6
_symmetry_space_group_name_H-M   'P 1'
_cell_length_a   8.67331032
_cell_length_b   8.65890335
_cell_length_c   21.92284219
_cell_angle_alpha   89.92868387
_cell_angle_beta   90.04557314
_cell_angle_gamma   120.00798477
_symmetry_Int_Tables_number   1
_chemical_formula_structural   Na5ZrAl3(PO4)6
_chemical_formula_sum   'Na15 Zr3 Al9 P18 O72'
_cell_volume   1425.73881267
_cell_formula_units_Z   3
loop_
 _symmetry_equiv_pos_site_id
 _symmetry_equiv_pos_as_xyz
  1  'x, y, z'
loop_
 _atom_site_type_symbol
 _atom_site_label
 _atom_site_symmetry_multiplicity
 _atom_site_fract_x
 _atom_site_fract_y
 _atom_site_fract_z
 _atom_site_occupancy
  Na  Na0  1  0.63398957  0.99953337  0.25354600  1
  Na  Na1  1  0.36506098  0.36594326  0.25387168  1
  Na  Na2  1  0.00061001  0.63549007  0.25353930  1
  Na  Na3  1  0.63571820  0.63178403  0.74797959  1
  Na  Na4  1  0.00032619  0.36375494  0.74797444  1
  Na  Na5  1  0.02864635  0.69799168  0.58160789  1
  Na  Na6  1  0.66647327  0.97082204  0.58127005  1
  Na  Na7  1  0.66683090  0.69625271  0.08234186  1
  Na  Na8  1  0.02855154  0.33053698  0.08256571  1
  Na  Na9  1  0.01060068  0.01162339  0.49580134  1
  Na  Na10  1  0.00927990  0.99878717  0.99646621  1
  Na  Na11  1  0.65564412  0.32139130  0.83210484  1
  Na  Na12  1  0.66647055  0.33343342  0.33512546  1
  Na  Na13  1  0.33216018  0.67554345  0.16598616  1
  Na  Na14  1  0.33294834  0.66493444  0.66202482  1
  Zr  Zr15  1  0.66578431  0.33326219  0.97982227  1
  Zr  Zr16  1  0.66376688  0.33213911  0.47644567  1
  Zr  Zr17  1  0.33400405  0.67350437  0.81213294  1
  Al  Al18  1  0.00072416  -0.00007324  0.35588338  1
  Al  Al19  1  0.00263084  0.00164463  0.85393368  1
  Al  Al20  1  0.00531977  0.00481163  0.64726120  1
  Al  Al21  1  0.00398528  0.99917167  0.15014906  1
  Al  Al22  1  0.66011069  0.32759952  0.68478294  1
  Al  Al23  1  0.66576393  0.33197701  0.18486781  1
  Al  Al24  1  0.33262147  0.67209531  0.01723262  1
  Al  Al25  1  0.33239017  0.66064107  0.51554879  1
  Al  Al26  1  0.33298714  0.66655303  0.31751194  1
  P  P27  1  0.28749487  0.00123830  0.25073997  1
  P  P28  1  0.71324206  0.71200843  0.24993702  1
  P  P29  1  0.99881887  0.28685020  0.24997350  1
  P  P30  1  0.28805531  0.27296105  0.74899384  1
  P  P31  1  0.99186421  0.71492543  0.74760766  1
  P  P32  1  0.72319695  0.01059156  0.74751030  1
  P  P33  1  0.96501976  0.33365774  0.58638502  1
  P  P34  1  0.37005894  0.04041345  0.58609585  1
  P  P35  1  0.66298143  0.62680722  0.58670152  1
  P  P36  1  0.96639562  0.63343919  0.08740670  1
  P  P37  1  0.66365447  0.03514181  0.08772154  1
  P  P38  1  0.36815500  0.32916118  0.08762915  1
  P  P39  1  0.63309274  0.68230832  0.91792043  1
  P  P40  1  0.04877061  0.36744919  0.91820675  1
  P  P41  1  0.31762150  0.95232434  0.91880142  1
  P  P42  1  0.62335297  0.94243679  0.41467743  1
  P  P43  1  0.31924588  0.37701091  0.41355356  1
  P  P44  1  0.05706511  0.68004168  0.41483033  1
  O  O45  1  0.20432353  0.03986335  0.30593471  1
  O  O46  1  0.83709097  0.79794784  0.30470907  1
  O  O47  1  0.96124254  0.16285529  0.30467835  1
  O  O48  1  0.20202902  0.16799901  0.80718334  1
  O  O49  1  0.96400171  0.80031913  0.80454196  1
  O  O50  1  0.83640132  0.03829044  0.80475534  1
  O  O51  1  0.80390086  0.97485448  0.69040072  1
  O  O52  1  0.16727487  0.19387324  0.69341617  1
  O  O53  1  0.01954633  0.82414140  0.68971741  1
  O  O54  1  0.79374853  0.82829380  0.19203492  1
  O  O55  1  0.03373649  0.20617602  0.19202579  1
  O  O56  1  0.16731652  0.96345813  0.19431929  1
  O  O57  1  0.87718429  0.37039148  0.64247859  1
  O  O58  1  0.49929380  0.12985828  0.63989345  1
  O  O59  1  0.63570892  0.51005393  0.64351283  1
  O  O60  1  0.87627062  0.50676712  0.14280854  1
  O  O61  1  0.63579854  0.12564150  0.14382065  1
  O  O62  1  0.49451738  0.36716845  0.14273712  1
  O  O63  1  0.45029109  0.29740820  0.03067728  1
  O  O64  1  0.84359946  0.55210411  0.03152449  1
  O  O65  1  0.70820654  0.15816104  0.03193754  1
  O  O66  1  0.45075569  0.15342164  0.52839523  1
  O  O67  1  0.70620698  0.54631288  0.53108832  1
  O  O68  1  0.84071579  0.29287654  0.53075450  1
  O  O69  1  0.53622356  0.69743103  0.97507546  1
  O  O70  1  0.16128891  0.46397429  0.97527798  1
  O  O71  1  0.30050261  0.83669182  0.97446764  1
  O  O72  1  0.53488974  0.83752455  0.47386697  1
  O  O73  1  0.30129904  0.46750716  0.47120585  1
  O  O74  1  0.16282645  0.69776064  0.47388297  1
  O  O75  1  0.13850056  0.64700097  0.35694223  1
  O  O76  1  0.50894376  0.86081596  0.35676482  1
  O  O77  1  0.35276204  0.48991980  0.35506635  1
  O  O78  1  0.12434802  0.47988389  0.85926114  1
  O  O79  1  0.35705739  0.87713597  0.86063488  1
  O  O80  1  0.52072772  0.64519714  0.85903080  1
  O  O81  1  0.03556891  0.84433633  0.40815555  1
  O  O82  1  0.80915664  0.96405858  0.40802411  1
  O  O83  1  0.15543225  0.19097727  0.40761289  1
  O  O84  1  0.03169001  0.18470797  0.91080607  1
  O  O85  1  0.15154616  0.96744456  0.91041818  1
  O  O86  1  0.81553680  0.84819074  0.91014252  1
  O  O87  1  0.97962425  0.16488202  0.59372763  1
  O  O88  1  0.18228987  0.01433605  0.59354406  1
  O  O89  1  0.83122563  0.81569777  0.59292559  1
  O  O90  1  0.97982275  0.81603093  0.09527703  1
  O  O91  1  0.83226912  0.01603379  0.09479475  1
  O  O92  1  0.18059750  0.16679628  0.09489944  1
  O  O93  1  0.70067771  0.17592142  0.74120936  1
  O  O94  1  0.47850269  0.30383575  0.74206811  1
  O  O95  1  0.82626049  0.52251022  0.74278570  1
  O  O96  1  0.69100274  0.52186175  0.24204576  1
  O  O97  1  0.83112346  0.30925965  0.24238866  1
  O  O98  1  0.47735893  0.16870510  0.24208732  1
  O  O99  1  0.65054891  0.51349259  0.92186875  1
  O  O100  1  0.86301711  0.35048958  0.92239244  1
  O  O101  1  0.48682341  0.13828200  0.92265551  1
  O  O102  1  0.64198945  0.13099299  0.41857242  1
  O  O103  1  0.48963154  0.35957513  0.41847122  1
  O  O104  1  0.86908660  0.50997595  0.41925577  1
  O  O105  1  0.35315704  0.50018309  0.07905845  1
  O  O106  1  0.14648066  0.64216396  0.07765487  1
  O  O107  1  0.49970741  0.84931359  0.07796910  1
  O  O108  1  0.35377449  0.85343578  0.57796824  1
  O  O109  1  0.49907249  0.64909019  0.57710738  1
  O  O110  1  0.14616878  0.50475669  0.57655870  1
  O  O111  1  0.31208835  0.83468345  0.25690000  1
  O  O112  1  0.52352562  0.68880357  0.25622147  1
  O  O113  1  0.16480800  0.47747830  0.25620517  1
  O  O114  1  0.31152511  0.46685787  0.75263026  1
  O  O115  1  0.15455415  0.68476046  0.75056058  1
  O  O116  1  0.53630559  0.83971479  0.75107659  1
