# generated using pymatgen
data_Na4La2Mg2SiS5O24
_symmetry_space_group_name_H-M   'P 1'
_cell_length_a   9.26763340
_cell_length_b   9.18767510
_cell_length_c   23.71953649
_cell_angle_alpha   90.14222497
_cell_angle_beta   89.79120370
_cell_angle_gamma   119.73879443
_symmetry_Int_Tables_number   1
_chemical_formula_structural   Na4La2Mg2SiS5O24
_chemical_formula_sum   'Na12 La6 Mg6 Si3 S15 O72'
_cell_volume   1753.65993976
_cell_formula_units_Z   3
loop_
 _symmetry_equiv_pos_site_id
 _symmetry_equiv_pos_as_xyz
  1  'x, y, z'
loop_
 _atom_site_type_symbol
 _atom_site_label
 _atom_site_symmetry_multiplicity
 _atom_site_fract_x
 _atom_site_fract_y
 _atom_site_fract_z
 _atom_site_occupancy
  Na  Na0  1  0.98990411  0.62737449  0.24058656  1
  Na  Na1  1  0.98672128  0.34117137  0.76270927  1
  Na  Na2  1  0.37134754  0.99105100  0.75524695  1
  Na  Na3  1  0.65351128  0.97148241  0.58946840  1
  Na  Na4  1  0.67679991  0.68421166  0.07616920  1
  Na  Na5  1  0.33779467  0.03478191  0.41884900  1
  Na  Na6  1  0.01545725  0.00170851  0.49857806  1
  Na  Na7  1  0.01315531  0.99061058  0.00489115  1
  Na  Na8  1  0.66568210  0.32713699  0.84452461  1
  Na  Na9  1  0.66699388  0.33364605  0.33022322  1
  Na  Na10  1  0.31547326  0.66366611  0.16724532  1
  Na  Na11  1  0.35931926  0.69041209  0.67187773  1
  La  La12  1  0.97912226  0.99084307  0.85437395  1
  La  La13  1  0.00569074  0.99566506  0.64808703  1
  La  La14  1  0.00767007  0.00244422  0.15112726  1
  La  La15  1  0.65483964  0.32605197  0.67973394  1
  La  La16  1  0.30908072  0.66719851  0.02342972  1
  La  La17  1  0.32651299  0.66761362  0.50907281  1
  Mg  Mg18  1  0.99194517  0.00247936  0.34601042  1
  Mg  Mg19  1  0.67163611  0.33285703  0.17853510  1
  Mg  Mg20  1  0.68034382  0.34500027  0.98685813  1
  Mg  Mg21  1  0.65710666  0.32951465  0.48310176  1
  Mg  Mg22  1  0.34141564  0.66256891  0.31824858  1
  Mg  Mg23  1  0.36090982  0.68236552  0.82054650  1
  Si  Si24  1  0.68556016  0.99075876  0.74626635  1
  Si  Si25  1  0.36449043  0.03338228  0.57639192  1
  Si  Si26  1  0.94499370  0.61653287  0.08919021  1
  S  S27  1  0.30408157  0.99387894  0.25762178  1
  S  S28  1  0.69596538  0.69960242  0.25473287  1
  S  S29  1  0.00385791  0.30815104  0.25620456  1
  S  S30  1  0.29972596  0.31601764  0.75471673  1
  S  S31  1  0.01670417  0.69104941  0.75389960  1
  S  S32  1  0.95659816  0.33108004  0.57816137  1
  S  S33  1  0.66997799  0.63264737  0.57597686  1
  S  S34  1  0.66926379  0.05356058  0.08323901  1
  S  S35  1  0.39286317  0.33188786  0.08304075  1
  S  S36  1  0.61565729  0.64322104  0.91976979  1
  S  S37  1  0.02496813  0.37806326  0.91331412  1
  S  S38  1  0.35150930  0.97913948  0.91319628  1
  S  S39  1  0.64031063  0.97154593  0.41200132  1
  S  S40  1  0.33069250  0.35642569  0.41070959  1
  S  S41  1  0.02401101  0.67139896  0.40920242  1
  O  O42  1  0.21806415  0.01849355  0.30685267  1
  O  O43  1  0.81825165  0.79898235  0.29951625  1
  O  O44  1  0.98778186  0.19688341  0.30342228  1
  O  O45  1  0.21725317  0.19666356  0.80152219  1
  O  O46  1  0.99493862  0.77715397  0.80269273  1
  O  O47  1  0.82750249  0.03163402  0.79445947  1
  O  O48  1  0.76229385  0.97591504  0.68474903  1
  O  O49  1  0.20470000  0.24312504  0.70148219  1
  O  O50  1  0.04082052  0.79154490  0.70190423  1
  O  O51  1  0.75784522  0.79017644  0.19964658  1
  O  O52  1  0.02953665  0.24045470  0.20242351  1
  O  O53  1  0.19646433  0.95941796  0.20618527  1
  O  O54  1  0.89437311  0.34659870  0.63470583  1
  O  O55  1  0.45396397  0.10807752  0.63846783  1
  O  O56  1  0.66801473  0.55897236  0.63173926  1
  O  O57  1  0.86318409  0.53082349  0.14960558  1
  O  O58  1  0.65714624  0.13451709  0.13534819  1
  O  O59  1  0.48056217  0.33276828  0.13504302  1
  O  O60  1  0.47138226  0.31872184  0.03085619  1
  O  O61  1  0.83608567  0.52494920  0.03387584  1
  O  O62  1  0.66946178  0.14008386  0.03127567  1
  O  O63  1  0.47149444  0.14337106  0.52253220  1
  O  O64  1  0.67590817  0.53290545  0.52873999  1
  O  O65  1  0.85169570  0.33369163  0.53222467  1
  O  O66  1  0.54229534  0.66341213  0.97278397  1
  O  O67  1  0.12648188  0.46317005  0.96329339  1
  O  O68  1  0.32971542  0.87671164  0.96394849  1
  O  O69  1  0.58335015  0.88305507  0.46769354  1
  O  O70  1  0.30401096  0.42068873  0.46508924  1
  O  O71  1  0.12976264  0.70923812  0.46152690  1
  O  O72  1  0.11309809  0.64581552  0.36138774  1
  O  O73  1  0.51395951  0.87024286  0.36839027  1
  O  O74  1  0.34896496  0.47126417  0.36441542  1
  O  O75  1  0.11102026  0.46848325  0.86062744  1
  O  O76  1  0.35737331  0.88877124  0.86127838  1
  O  O77  1  0.51906810  0.64210977  0.86974653  1
  O  O78  1  0.01277211  0.82741075  0.40159136  1
  O  O79  1  0.80655078  0.99321733  0.40052378  1
  O  O80  1  0.18433609  0.18353368  0.40282004  1
  O  O81  1  0.00675154  0.20675712  0.91436045  1
  O  O82  1  0.20238540  0.00129420  0.91117167  1
  O  O83  1  0.78784057  0.79310445  0.91715811  1
  O  O84  1  0.95331648  0.16622519  0.57637939  1
  O  O85  1  0.17723994  0.01113193  0.57776450  1
  O  O86  1  0.81679628  0.80593335  0.57360333  1
  O  O87  1  0.96249593  0.80946907  0.08644859  1
  O  O88  1  0.82198164  0.03534351  0.08407541  1
  O  O89  1  0.21705028  0.19184673  0.08411608  1
  O  O90  1  0.66659187  0.16226178  0.75033767  1
  O  O91  1  0.46978872  0.34031993  0.75018066  1
  O  O92  1  0.86871540  0.52159569  0.74939990  1
  O  O93  1  0.68650180  0.53227282  0.25117371  1
  O  O94  1  0.85092480  0.32469395  0.25219757  1
  O  O95  1  0.46963204  0.14282890  0.24856616  1
  O  O96  1  0.62953733  0.48959232  0.92050938  1
  O  O97  1  0.85817419  0.36242521  0.91780994  1
  O  O98  1  0.50478455  0.14347971  0.91785614  1
  O  O99  1  0.64686066  0.13808640  0.41648481  1
  O  O100  1  0.48386782  0.33934615  0.41496393  1
  O  O101  1  0.85915913  0.52164470  0.41874478  1
  O  O102  1  0.38881953  0.49461836  0.08333820  1
  O  O103  1  0.13685734  0.64608589  0.08981709  1
  O  O104  1  0.52613937  0.87540663  0.08349584  1
  O  O105  1  0.36183157  0.85034668  0.57713728  1
  O  O106  1  0.51909508  0.65136573  0.57470053  1
  O  O107  1  0.13014430  0.46898555  0.57467117  1
  O  O108  1  0.31464883  0.83695276  0.26454142  1
  O  O109  1  0.52907282  0.67937477  0.26511216  1
  O  O110  1  0.15092259  0.48180718  0.26331635  1
  O  O111  1  0.30329534  0.47653183  0.76427915  1
  O  O112  1  0.16711655  0.67440412  0.76035540  1
  O  O113  1  0.50247810  0.82985173  0.75774883  1
