# generated using pymatgen
data_Na2Ta4In4Si5S7O48
_symmetry_space_group_name_H-M   'P 1'
_cell_length_a   17.84562891
_cell_length_b   8.93220153
_cell_length_c   23.03220030
_cell_angle_alpha   89.96791906
_cell_angle_beta   89.96193860
_cell_angle_gamma   120.09310386
_symmetry_Int_Tables_number   1
_chemical_formula_structural   Na2Ta4In4Si5S7O48
_chemical_formula_sum   'Na6 Ta12 In12 Si15 S21 O144'
_cell_volume   3176.49294039
_cell_formula_units_Z   3
loop_
 _symmetry_equiv_pos_site_id
 _symmetry_equiv_pos_as_xyz
  1  'x, y, z'
loop_
 _atom_site_type_symbol
 _atom_site_label
 _atom_site_symmetry_multiplicity
 _atom_site_fract_x
 _atom_site_fract_y
 _atom_site_fract_z
 _atom_site_occupancy
  Na  Na0  1  0.00135951  0.99035456  0.49854181  1
  Na  Na1  1  0.49673970  0.00616709  0.99642779  1
  Na  Na2  1  0.33263617  0.31611641  0.84366491  1
  Na  Na3  1  0.83211356  0.34031469  0.83733414  1
  Na  Na4  1  0.32723280  0.31846815  0.33322099  1
  Na  Na5  1  0.84461445  0.34998973  0.33683419  1
  Ta  Ta6  1  0.50222547  0.01196446  0.35132154  1
  Ta  Ta7  1  0.00742085  0.99129864  0.85419257  1
  Ta  Ta8  1  0.50496488  0.01041171  0.64102303  1
  Ta  Ta9  1  0.00615650  0.00245012  0.14080544  1
  Ta  Ta10  1  0.33303927  0.34508070  0.68613576  1
  Ta  Ta11  1  0.83106988  0.32960255  0.69035564  1
  Ta  Ta12  1  0.33216253  0.32943271  0.18702035  1
  Ta  Ta13  1  0.83194430  0.32225878  0.18423473  1
  Ta  Ta14  1  0.16131469  0.66524492  0.02266136  1
  Ta  Ta15  1  0.66751595  0.66459138  0.02169019  1
  Ta  Ta16  1  0.16642585  0.66996114  0.52247895  1
  Ta  Ta17  1  0.66322921  0.66757139  0.52567584  1
  In  In18  1  0.00706212  0.99048781  0.35435848  1
  In  In19  1  0.50350375  0.02117598  0.85528886  1
  In  In20  1  0.00414641  0.00932655  0.65600097  1
  In  In21  1  0.50332765  0.00136047  0.15241215  1
  In  In22  1  0.32679192  0.32112817  0.97840307  1
  In  In23  1  0.84066221  0.33281048  0.98560072  1
  In  In24  1  0.33912280  0.34676560  0.48627958  1
  In  In25  1  0.83192971  0.33209765  0.48193320  1
  In  In26  1  0.15551218  0.67012554  0.30970990  1
  In  In27  1  0.66873741  0.67044049  0.30541999  1
  In  In28  1  0.16768713  0.67280865  0.80669068  1
  In  In29  1  0.65744307  0.64366592  0.80909873  1
  Si  Si30  1  0.14390940  0.00229360  0.25069721  1
  Si  Si31  1  0.65017303  0.01212401  0.24917033  1
  Si  Si32  1  0.49702522  0.28954166  0.24787088  1
  Si  Si33  1  0.14948973  0.29362183  0.75061566  1
  Si  Si34  1  0.64207009  0.28425292  0.75111367  1
  Si  Si35  1  0.99759455  0.70669248  0.74750048  1
  Si  Si36  1  0.47425292  0.32877708  0.58154470  1
  Si  Si37  1  0.69324388  0.05236107  0.58201081  1
  Si  Si38  1  0.33220879  0.62667121  0.58378275  1
  Si  Si39  1  0.97571353  0.62119696  0.08175574  1
  Si  Si40  1  0.83221918  0.03629246  0.08396616  1
  Si  Si41  1  0.19433323  0.34410233  0.08246154  1
  Si  Si42  1  0.51870657  0.37448755  0.91784408  1
  Si  Si43  1  0.17002009  0.95230803  0.91350033  1
  Si  Si44  1  0.01613127  0.66041890  0.41823470  1
  S  S45  1  0.35393320  0.70224443  0.25340316  1
  S  S46  1  0.85942235  0.70759539  0.24805171  1
  S  S47  1  0.99489750  0.27848846  0.25026215  1
  S  S48  1  0.49602265  0.71339399  0.74994079  1
  S  S49  1  0.35894879  0.01027979  0.74607891  1
  S  S50  1  0.85225967  0.00293598  0.75250148  1
  S  S51  1  0.98181756  0.33244081  0.58333055  1
  S  S52  1  0.18564178  0.03966897  0.58087294  1
  S  S53  1  0.83389971  0.63133283  0.58267770  1
  S  S54  1  0.48083523  0.62753690  0.08242336  1
  S  S55  1  0.33400937  0.03726338  0.08355506  1
  S  S56  1  0.68645544  0.33276073  0.08077975  1
  S  S57  1  0.31357943  0.67670059  0.91738370  1
  S  S58  1  0.81206751  0.66726767  0.91623508  1
  S  S59  1  0.02096598  0.36970440  0.91585306  1
  S  S60  1  0.66827275  0.95389209  0.91754304  1
  S  S61  1  0.31245312  0.95737702  0.41629858  1
  S  S62  1  0.81161906  0.94801582  0.41717003  1
  S  S63  1  0.16814109  0.38296089  0.41755401  1
  S  S64  1  0.66323765  0.37667037  0.41510885  1
  S  S65  1  0.52338855  0.67197788  0.41612674  1
  O  O66  1  0.11875968  0.06108977  0.31058632  1
  O  O67  1  0.59341491  0.03530459  0.30614949  1
  O  O68  1  0.41338096  0.79141158  0.30497935  1
  O  O69  1  0.90839647  0.77265445  0.30310987  1
  O  O70  1  0.47605863  0.15142211  0.30623173  1
  O  O71  1  0.97583122  0.17597352  0.30437503  1
  O  O72  1  0.09352613  0.15542057  0.80597965  1
  O  O73  1  0.61476869  0.17207152  0.80995000  1
  O  O74  1  0.47713544  0.77781687  0.80347362  1
  O  O75  1  0.97719566  0.80113555  0.80474635  1
  O  O76  1  0.40831319  0.04603900  0.80078461  1
  O  O77  1  0.90931511  0.03322053  0.80294151  1
  O  O78  1  0.40635283  0.99354303  0.69608983  1
  O  O79  1  0.88491899  0.97265793  0.69779551  1
  O  O80  1  0.09434284  0.22933680  0.69181401  1
  O  O81  1  0.58136555  0.17529820  0.69629730  1
  O  O82  1  0.00348407  0.80271450  0.68763082  1
  O  O83  1  0.50068361  0.81353540  0.69808525  1
  O  O84  1  0.38753072  0.80318208  0.20008971  1
  O  O85  1  0.90308924  0.81955472  0.19811604  1
  O  O86  1  -0.00023843  0.18758980  0.19905176  1
  O  O87  1  0.50489833  0.20427454  0.18968743  1
  O  O88  1  0.07981188  0.98598037  0.19797926  1
  O  O89  1  0.59297060  0.96629117  0.19200351  1
  O  O90  1  0.42543326  0.36306612  0.63594076  1
  O  O91  1  0.94335321  0.36463687  0.63548012  1
  O  O92  1  0.23927533  0.12187652  0.63300087  1
  O  O93  1  0.76207006  0.14677646  0.63528729  1
  O  O94  1  0.31033825  0.48865198  0.63896923  1
  O  O95  1  0.82041738  0.51900221  0.63407000  1
  O  O96  1  0.44361554  0.52161612  0.13622147  1
  O  O97  1  0.92426827  0.49057433  0.13705784  1
  O  O98  1  0.32469168  0.13040842  0.13602344  1
  O  O99  1  0.81027233  0.13079977  0.14002601  1
  O  O100  1  0.26174361  0.38082924  0.13822721  1
  O  O101  1  0.73950565  0.35492864  0.13384204  1
  O  O102  1  0.22685399  0.28134760  0.02910966  1
  O  O103  1  0.72404019  0.30548737  0.02805395  1
  O  O104  1  0.42783905  0.54716331  0.03141639  1
  O  O105  1  0.91904722  0.56098226  0.02421020  1
  O  O106  1  0.35483217  0.14560590  0.03198419  1
  O  O107  1  0.85628159  0.15178205  0.02727785  1
  O  O108  1  0.22260654  0.14026963  0.52722361  1
  O  O109  1  0.72444385  0.16566766  0.52430219  1
  O  O110  1  0.35635548  0.56245438  0.52598948  1
  O  O111  1  0.85383775  0.56457146  0.53007703  1
  O  O112  1  0.42097952  0.28040280  0.52236515  1
  O  O113  1  0.92998418  0.30514968  0.53067121  1
  O  O114  1  0.26547134  0.68939883  0.96979532  1
  O  O115  1  0.76839656  0.68389577  0.97086367  1
  O  O116  1  0.07140887  0.45246809  0.97093199  1
  O  O117  1  0.58419775  0.48666112  0.97473465  1
  O  O118  1  0.15765778  0.83240798  0.97257109  1
  O  O119  1  0.66746771  0.85018448  0.97084108  1
  O  O120  1  0.26918622  0.85364414  0.47052283  1
  O  O121  1  0.76349485  0.83588756  0.46949168  1
  O  O122  1  0.16680059  0.48388177  0.47049011  1
  O  O123  1  0.65228569  0.45942086  0.46851086  1
  O  O124  1  0.08031246  0.67467826  0.47488016  1
  O  O125  1  0.57522682  0.69051373  0.47062441  1
  O  O126  1  0.05428149  0.62821131  0.35956386  1
  O  O127  1  0.56619714  0.64827474  0.36600693  1
  O  O128  1  0.26083294  0.87322934  0.36455547  1
  O  O129  1  0.76489226  0.86337649  0.36421611  1
  O  O130  1  0.18044964  0.48347244  0.36454683  1
  O  O131  1  0.67763662  0.48335633  0.36375778  1
  O  O132  1  0.06339538  0.47548796  0.86537912  1
  O  O133  1  0.55825374  0.48071081  0.85889050  1
  O  O134  1  0.18510030  0.86979926  0.85724522  1
  O  O135  1  0.68107271  0.87843734  0.86473670  1
  O  O136  1  0.26764180  0.66094852  0.86384469  1
  O  O137  1  0.75944477  0.64502046  0.86465203  1
  O  O138  1  0.01406790  0.84129138  0.42085819  1
  O  O139  1  0.51713956  0.83271490  0.41031519  1
  O  O140  1  0.39847867  0.96534502  0.41134336  1
  O  O141  1  0.89935457  0.96805443  0.41801828  1
  O  O142  1  0.08430407  0.21848697  0.41944880  1
  O  O143  1  0.57899048  0.20406535  0.40820513  1
  O  O144  1  0.01168204  0.19420083  0.91071998  1
  O  O145  1  0.51669148  0.18966468  0.92105902  1
  O  O146  1  0.07520078  0.95334490  0.90576859  1
  O  O147  1  0.58452983  0.94954304  0.91955641  1
  O  O148  1  0.40064903  0.83913769  0.91794265  1
  O  O149  1  0.89658202  0.83059139  0.91154454  1
  O  O150  1  0.49598530  0.17681821  0.59644438  1
  O  O151  1  0.99305137  0.17996894  0.58894024  1
  O  O152  1  0.09618841  0.00567813  0.58594821  1
  O  O153  1  0.59584939  0.00779307  0.59880407  1
  O  O154  1  0.41116059  0.81333000  0.60304007  1
  O  O155  1  0.90239200  0.81274233  0.59049079  1
  O  O156  1  0.49202015  0.80304090  0.08845686  1
  O  O157  1  0.99596687  0.81564600  0.09769815  1
  O  O158  1  0.40427148  0.99722412  0.09197211  1
  O  O159  1  0.91146936  0.00980511  0.10399599  1
  O  O160  1  0.09699028  0.18804586  0.10082434  1
  O  O161  1  0.59718065  0.18708899  0.08595591  1
  O  O162  1  0.35034913  0.16836658  0.73574180  1
  O  O163  1  0.85055169  0.17316250  0.74526610  1
  O  O164  1  0.24082780  0.28494021  0.74095661  1
  O  O165  1  0.73836573  0.29912874  0.73388673  1
  O  O166  1  0.41797064  0.52912292  0.74116885  1
  O  O167  1  0.90659318  0.51341727  0.74024204  1
  O  O168  1  0.35343119  0.53259794  0.24751594  1
  O  O169  1  0.85112673  0.53309720  0.23858428  1
  O  O170  1  0.40968944  0.31027472  0.24230066  1
  O  O171  1  0.91719584  0.30708185  0.24204282  1
  O  O172  1  0.24092585  0.17783739  0.23354291  1
  O  O173  1  0.74158852  0.20253368  0.24264448  1
  O  O174  1  0.32498238  0.52552983  0.92347309  1
  O  O175  1  0.82311758  0.51407021  0.92123581  1
  O  O176  1  0.42573123  0.35969048  0.92502150  1
  O  O177  1  0.93226172  0.34865906  0.91903478  1
  O  O178  1  0.24434254  0.14943924  0.91760292  1
  O  O179  1  0.74265045  0.13382894  0.92309446  1
  O  O180  1  0.32431004  0.13322152  0.42057677  1
  O  O181  1  0.81638256  0.11727115  0.42184384  1
  O  O182  1  0.24250726  0.35180389  0.42274370  1
  O  O183  1  0.73474971  0.34178852  0.42000461  1
  O  O184  1  0.43504570  0.51902956  0.41979450  1
  O  O185  1  0.91887760  0.49067622  0.42302704  1
  O  O186  1  0.18616108  0.51525486  0.06909781  1
  O  O187  1  0.68404017  0.49877493  0.07523083  1
  O  O188  1  0.06997015  0.63171127  0.07158599  1
  O  O189  1  0.56994269  0.64784025  0.07466567  1
  O  O190  1  0.25021959  0.87085046  0.07769991  1
  O  O191  1  0.74586531  0.84615409  0.07251057  1
  O  O192  1  0.18253379  0.86698807  0.57391486  1
  O  O193  1  0.68395525  0.85855940  0.56916609  1
  O  O194  1  0.24573256  0.64452076  0.57111321  1
  O  O195  1  0.74887144  0.62972593  0.57254474  1
  O  O196  1  0.07065812  0.49109201  0.57476194  1
  O  O197  1  0.57099783  0.50550147  0.56960654  1
  O  O198  1  0.15994517  0.84186607  0.25074424  1
  O  O199  1  0.67641594  0.87395713  0.26538610  1
  O  O200  1  0.26704646  0.66813000  0.26584239  1
  O  O201  1  0.77241825  0.68404869  0.25243206  1
  O  O202  1  0.07443577  0.44699090  0.25340086  1
  O  O203  1  0.57958385  0.46661357  0.26283093  1
  O  O204  1  0.17852496  0.48561327  0.76632810  1
  O  O205  1  0.66008050  0.47771965  0.74995915  1
  O  O206  1  0.07426402  0.67194844  0.75678435  1
  O  O207  1  0.57492286  0.70249803  0.75252135  1
  O  O208  1  0.27382967  0.85757506  0.74778682  1
  O  O209  1  0.76359610  0.86514591  0.76225650  1
