# generated using pymatgen
data_Na3AlSiSn(PO6)2
_symmetry_space_group_name_H-M   'P 1'
_cell_length_a   8.84147534
_cell_length_b   8.84147506
_cell_length_c   21.88275880
_cell_angle_alpha   90.04389756
_cell_angle_beta   89.95610245
_cell_angle_gamma   120.14465384
_symmetry_Int_Tables_number   1
_chemical_formula_structural   Na3AlSiSn(PO6)2
_chemical_formula_sum   'Na18 Al6 Si6 Sn6 P12 O72'
_cell_volume   1479.26885658
_cell_formula_units_Z   6
loop_
 _symmetry_equiv_pos_site_id
 _symmetry_equiv_pos_as_xyz
  1  'x, y, z'
loop_
 _atom_site_type_symbol
 _atom_site_label
 _atom_site_symmetry_multiplicity
 _atom_site_fract_x
 _atom_site_fract_y
 _atom_site_fract_z
 _atom_site_occupancy
  Na  Na0  1  0.00325772  0.99709532  0.49699268  1
  Na  Na1  1  0.00290468  0.99674228  0.99699268  1
  Na  Na2  1  0.66493454  0.32748294  0.83048606  1
  Na  Na3  1  0.67251706  0.33506546  0.33048606  1
  Na  Na4  1  0.34779121  0.67294822  0.16361696  1
  Na  Na5  1  0.32705178  0.65220879  0.66361696  1
  Na  Na6  1  0.36066628  0.36331547  0.24739319  1
  Na  Na7  1  0.99549876  0.62561914  0.24842234  1
  Na  Na8  1  0.63668453  0.63933372  0.74739319  1
  Na  Na9  1  0.37438086  0.00450124  0.74842234  1
  Na  Na10  1  0.03556406  0.70050170  0.58002232  1
  Na  Na11  1  0.65942083  0.96395967  0.58485628  1
  Na  Na12  1  0.29949830  0.96443594  0.08002232  1
  Na  Na13  1  0.03604033  0.34057917  0.08485628  1
  Na  Na14  1  0.97012339  0.67031068  0.91851333  1
  Na  Na15  1  0.69709171  0.03027656  0.91191279  1
  Na  Na16  1  0.96972344  0.30290829  0.41191279  1
  Na  Na17  1  0.32968932  0.02987661  0.41851333  1
  Al  Al18  1  0.99026861  0.99189015  0.35296438  1
  Al  Al19  1  0.00810985  0.00973139  0.85296438  1
  Al  Al20  1  0.67158068  0.32538297  0.68621424  1
  Al  Al21  1  0.67461703  0.32841932  0.18621424  1
  Al  Al22  1  0.32861054  0.66945660  0.01902052  1
  Al  Al23  1  0.33054340  0.67138946  0.51902052  1
  Si  Si24  1  0.98890840  0.28285985  0.25283298  1
  Si  Si25  1  0.71714015  0.01109160  0.75283298  1
  Si  Si26  1  0.37593879  0.03923567  0.58483883  1
  Si  Si27  1  0.96076433  0.62406121  0.08483883  1
  Si  Si28  1  0.32625431  0.96129064  0.91807130  1
  Si  Si29  1  0.03870936  0.67374569  0.41807130  1
  Sn  Sn30  1  0.00554252  0.00662688  0.64916151  1
  Sn  Sn31  1  0.99337312  0.99445748  0.14916151  1
  Sn  Sn32  1  0.66311692  0.33659527  0.98249789  1
  Sn  Sn33  1  0.66340473  0.33688308  0.48249789  1
  Sn  Sn34  1  0.33025476  0.66521044  0.31587560  1
  Sn  Sn35  1  0.33478956  0.66974524  0.81587560  1
  P  P36  1  0.29801841  0.00696477  0.25139852  1
  P  P37  1  0.70948884  0.70692533  0.25231941  1
  P  P38  1  0.29307467  0.29051116  0.75231941  1
  P  P39  1  0.99303523  0.70198159  0.75139852  1
  P  P40  1  0.96130536  0.33921626  0.58388657  1
  P  P41  1  0.65708068  0.61900878  0.58701024  1
  P  P42  1  0.66078374  0.03869464  0.08388657  1
  P  P43  1  0.38099122  0.34291932  0.08701024  1
  P  P44  1  0.62182428  0.66872259  0.91849312  1
  P  P45  1  0.04854127  0.37227594  0.91978601  1
  P  P46  1  0.62772406  0.95145873  0.41978601  1
  P  P47  1  0.33127741  0.37817572  0.41849312  1
  O  O48  1  0.20712865  0.03378145  0.30698478  1
  O  O49  1  0.83359881  0.79917870  0.30575292  1
  O  O50  1  0.97444526  0.16554736  0.31175403  1
  O  O51  1  0.20082130  0.16640119  0.80575292  1
  O  O52  1  0.96621855  0.79287135  0.80698478  1
  O  O53  1  0.83445264  0.02555474  0.81175403  1
  O  O54  1  0.78688903  0.96003937  0.69052316  1
  O  O55  1  0.18754195  0.22214999  0.69232858  1
  O  O56  1  0.03940898  0.81858453  0.69278737  1
  O  O57  1  0.77785001  0.81245805  0.19232858  1
  O  O58  1  0.03996063  0.21311097  0.19052316  1
  O  O59  1  0.18141547  0.96059102  0.19278737  1
  O  O60  1  0.86914245  0.37155244  0.63746356  1
  O  O61  1  0.50379350  0.13783939  0.64236259  1
  O  O62  1  0.63976183  0.50964366  0.64376579  1
  O  O63  1  0.86216061  0.49620650  0.14236259  1
  O  O64  1  0.62844756  0.13085755  0.13746356  1
  O  O65  1  0.49035634  0.36023817  0.14376579  1
  O  O66  1  0.44893666  0.29015414  0.02984567  1
  O  O67  1  0.85180536  0.55155676  0.02073317  1
  O  O68  1  0.70263638  0.15023397  0.02425852  1
  O  O69  1  0.44844324  0.14819464  0.52073317  1
  O  O70  1  0.70984586  0.55106334  0.52984567  1
  O  O71  1  0.84976603  0.29736362  0.52425852  1
  O  O72  1  0.52099994  0.69098278  0.97108333  1
  O  O73  1  0.15807331  0.46142152  0.97681212  1
  O  O74  1  0.29554837  0.83298040  0.97611555  1
  O  O75  1  0.53857848  0.84192669  0.47681212  1
  O  O76  1  0.30901722  0.47900006  0.47108333  1
  O  O77  1  0.16701960  0.70445163  0.47611555  1
  O  O78  1  0.11100274  0.62404038  0.35587976  1
  O  O79  1  0.50937970  0.87775783  0.36246966  1
  O  O80  1  0.36729585  0.47928843  0.35693733  1
  O  O81  1  0.12224217  0.49062030  0.86246966  1
  O  O82  1  0.37595962  0.88899726  0.85587976  1
  O  O83  1  0.52071157  0.63270415  0.85693733  1
  O  O84  1  0.03002652  0.85180066  0.40814267  1
  O  O85  1  0.81108668  0.97545317  0.41167327  1
  O  O86  1  0.16404747  0.19581394  0.41360564  1
  O  O87  1  0.02454683  0.18891332  0.91167327  1
  O  O88  1  0.14819934  0.96997348  0.90814267  1
  O  O89  1  0.80418606  0.83595253  0.91360564  1
  O  O90  1  0.97188747  0.16968028  0.58896952  1
  O  O91  1  0.17438052  0.00477211  0.58773305  1
  O  O92  1  0.82240680  0.80859507  0.58959317  1
  O  O93  1  0.99522789  0.82561948  0.08773305  1
  O  O94  1  0.83031972  0.02811253  0.08896952  1
  O  O95  1  0.19140493  0.17759320  0.08959317  1
  O  O96  1  0.69130007  0.17962664  0.74473278  1
  O  O97  1  0.47729717  0.31175857  0.74547347  1
  O  O98  1  0.82502690  0.52504083  0.74203704  1
  O  O99  1  0.68824143  0.52270283  0.24547347  1
  O  O100  1  0.82037336  0.30869993  0.24473278  1
  O  O101  1  0.47495917  0.17497310  0.24203704  1
  O  O102  1  0.65300461  0.51048321  0.92115317  1
  O  O103  1  0.86133146  0.35217528  0.92229537  1
  O  O104  1  0.50812938  0.15210326  0.92206129  1
  O  O105  1  0.64782472  0.13866854  0.42229537  1
  O  O106  1  0.48951679  0.34699539  0.42115317  1
  O  O107  1  0.84789674  0.49187062  0.42206129  1
  O  O108  1  0.36245284  0.50500866  0.07736014  1
  O  O109  1  0.15467121  0.64058849  0.07829181  1
  O  O110  1  0.49757337  0.85748131  0.07581718  1
  O  O111  1  0.35941151  0.84532879  0.57829181  1
  O  O112  1  0.49499134  0.63754716  0.57736014  1
  O  O113  1  0.14251869  0.50242663  0.57581718  1
  O  O114  1  0.31826849  0.84263708  0.25575707  1
  O  O115  1  0.52324952  0.68280282  0.25722086  1
  O  O116  1  0.16890552  0.48249133  0.25363755  1
  O  O117  1  0.31719718  0.47675048  0.75722086  1
  O  O118  1  0.15736292  0.68173151  0.75575707  1
  O  O119  1  0.51750867  0.83109448  0.75363755  1
