# generated using pymatgen
data_MgMnV5O12
_symmetry_space_group_name_H-M   'P 1'
_cell_length_a   7.12413054
_cell_length_b   7.02886668
_cell_length_c   5.59354019
_cell_angle_alpha   71.35494727
_cell_angle_beta   107.62715593
_cell_angle_gamma   102.59534207
_symmetry_Int_Tables_number   1
_chemical_formula_structural   MgMnV5O12
_chemical_formula_sum   'Mg1 Mn1 V5 O12'
_cell_volume   250.64262381
_cell_formula_units_Z   1
loop_
 _symmetry_equiv_pos_site_id
 _symmetry_equiv_pos_as_xyz
  1  'x, y, z'
loop_
 _atom_site_type_symbol
 _atom_site_label
 _atom_site_symmetry_multiplicity
 _atom_site_fract_x
 _atom_site_fract_y
 _atom_site_fract_z
 _atom_site_occupancy
  Mg  Mg0  1  0.27787628  0.27068450  0.25388593  1
  Mn  Mn1  1  0.90244998  0.89774465  0.25045966  1
  V  V2  1  0.08463233  0.08475073  0.75111421  1
  V  V3  1  0.18603037  0.61819560  0.76631309  1
  V  V4  1  0.38747991  0.81393016  0.26675688  1
  V  V5  1  0.60745515  0.14696460  0.78186277  1
  V  V6  1  0.79465907  0.36951395  0.23372893  1
  O  O7  1  0.03340075  0.81643600  0.66672055  1
  O  O8  1  0.13952419  0.34990345  0.83103155  1
  O  O9  1  0.20112272  0.99082851  0.15426814  1
  O  O10  1  0.39784918  0.72582509  0.60988554  1
  O  O11  1  0.34184259  0.13513768  0.65922893  1
  O  O12  1  0.30876675  0.59418567  0.12669763  1
  O  O13  1  0.69694257  0.38539998  0.90083463  1
  O  O14  1  0.60097184  0.95758611  0.14876025  1
  O  O15  1  0.60029816  0.28529623  0.39352611  1
  O  O16  1  0.82098718  0.03246668  0.82409924  1
  O  O17  1  0.91305877  0.59686598  0.28520530  1
  O  O18  1  0.98242821  0.20605942  0.34562065  1
