# generated using pymatgen
data_Na3HfScSi(PO6)2
_symmetry_space_group_name_H-M   'P 1'
_cell_length_a   15.73798425
_cell_length_b   9.11090561
_cell_length_c   9.05139616
_cell_angle_alpha   90.00000000
_cell_angle_beta   124.67173564
_cell_angle_gamma   90.00000000
_symmetry_Int_Tables_number   1
_chemical_formula_structural   Na3HfScSi(PO6)2
_chemical_formula_sum   'Na12 Hf4 Sc4 Si4 P8 O48'
_cell_volume   1067.38822958
_cell_formula_units_Z   4
loop_
 _symmetry_equiv_pos_site_id
 _symmetry_equiv_pos_as_xyz
  1  'x, y, z'
loop_
 _atom_site_type_symbol
 _atom_site_label
 _atom_site_symmetry_multiplicity
 _atom_site_fract_x
 _atom_site_fract_y
 _atom_site_fract_z
 _atom_site_occupancy
  Na  Na0  1  0.25158791  0.71953838  0.99485964  1
  Na  Na1  1  0.75158791  0.78046162  0.49485964  1
  Na  Na2  1  0.75158791  0.21953838  0.99485964  1
  Na  Na3  1  0.25158791  0.28046162  0.49485964  1
  Na  Na4  1  0.50661270  0.10915995  0.76194760  1
  Na  Na5  1  0.50661270  0.89084005  0.26194760  1
  Na  Na6  1  0.00661270  0.60915995  0.76194760  1
  Na  Na7  1  0.00661270  0.39084005  0.26194760  1
  Na  Na8  1  0.18633725  0.93435458  0.28968241  1
  Na  Na9  1  0.18633725  0.06564542  0.78968241  1
  Na  Na10  1  0.68633725  0.43435458  0.28968241  1
  Na  Na11  1  0.68633725  0.56564542  0.78968241  1
  Hf  Hf12  1  0.89573792  0.75693977  0.94052859  1
  Hf  Hf13  1  0.89573792  0.24306023  0.44052859  1
  Hf  Hf14  1  0.39573792  0.25693977  0.94052859  1
  Hf  Hf15  1  0.39573792  0.74306023  0.44052859  1
  Sc  Sc16  1  0.10515333  0.74355717  0.56166215  1
  Sc  Sc17  1  0.10515333  0.25644283  0.06166215  1
  Sc  Sc18  1  0.60515333  0.24355717  0.56166215  1
  Sc  Sc19  1  0.60515333  0.75644283  0.06166215  1
  Si  Si20  1  0.64518421  0.89455997  0.74028570  1
  Si  Si21  1  0.64518421  0.10544003  0.24028570  1
  Si  Si22  1  0.14518421  0.39455997  0.74028570  1
  Si  Si23  1  0.14518421  0.60544003  0.24028570  1
  P  P24  1  0.00026802  0.95540062  0.75824708  1
  P  P25  1  0.00026802  0.04459938  0.25824708  1
  P  P26  1  0.50026802  0.45540062  0.75824708  1
  P  P27  1  0.50026802  0.54459938  0.25824708  1
  P  P28  1  0.35244569  0.89974140  0.75703133  1
  P  P29  1  0.35244569  0.10025860  0.25703133  1
  P  P30  1  0.85244569  0.39974140  0.75703133  1
  P  P31  1  0.85244569  0.60025860  0.25703133  1
  O  O32  1  0.15116921  0.57309834  0.74276082  1
  O  O33  1  0.84917436  0.57188647  0.75669695  1
  O  O34  1  0.84917436  0.42811353  0.25669695  1
  O  O35  1  0.15116921  0.42690166  0.24276082  1
  O  O36  1  0.65116921  0.07309834  0.74276082  1
  O  O37  1  0.34917436  0.07188647  0.75669695  1
  O  O38  1  0.34917436  0.92811353  0.25669695  1
  O  O39  1  0.65116921  0.92690166  0.24276082  1
  O  O40  1  0.43885590  0.56041275  0.59320796  1
  O  O41  1  0.56324989  0.54501243  0.93075121  1
  O  O42  1  0.56324989  0.45498757  0.43075121  1
  O  O43  1  0.43885590  0.43958725  0.09320796  1
  O  O44  1  0.93885590  0.06041275  0.59320796  1
  O  O45  1  0.06324989  0.04501243  0.93075121  1
  O  O46  1  0.06324989  0.95498757  0.43075121  1
  O  O47  1  0.93885590  0.93958725  0.09320796  1
  O  O48  1  0.25653803  0.84579345  0.74687712  1
  O  O49  1  0.74309753  0.81224604  0.75511344  1
  O  O50  1  0.74309753  0.18775396  0.25511344  1
  O  O51  1  0.25653803  0.15420655  0.24687712  1
  O  O52  1  0.75653803  0.34579345  0.74687712  1
  O  O53  1  0.24309753  0.31224604  0.75511344  1
  O  O54  1  0.24309753  0.68775396  0.25511344  1
  O  O55  1  0.75653803  0.65420655  0.24687712  1
  O  O56  1  0.35027537  0.85908816  0.58607197  1
  O  O57  1  0.63968211  0.83990903  0.90563030  1
  O  O58  1  0.63968211  0.16009097  0.40563030  1
  O  O59  1  0.35027537  0.14091184  0.08607197  1
  O  O60  1  0.85027537  0.35908816  0.58607197  1
  O  O61  1  0.13968211  0.33990903  0.90563030  1
  O  O62  1  0.13968211  0.66009097  0.40563030  1
  O  O63  1  0.85027537  0.64091184  0.08607197  1
  O  O64  1  0.45142211  0.84171942  0.92666013  1
  O  O65  1  0.53784891  0.83421089  0.55500681  1
  O  O66  1  0.53784891  0.16578911  0.05500681  1
  O  O67  1  0.45142211  0.15828058  0.42666013  1
  O  O68  1  0.95142211  0.34171942  0.92666013  1
  O  O69  1  0.03784891  0.33421089  0.55500681  1
  O  O70  1  0.03784891  0.66578911  0.05500681  1
  O  O71  1  0.95142211  0.65828058  0.42666013  1
  O  O72  1  0.07564644  0.85840167  0.74371268  1
  O  O73  1  0.91971311  0.85205212  0.75326610  1
  O  O74  1  0.91971311  0.14794788  0.25326610  1
  O  O75  1  0.07564644  0.14159833  0.24371268  1
  O  O76  1  0.57564644  0.35840167  0.74371268  1
  O  O77  1  0.41971311  0.35205212  0.75326610  1
  O  O78  1  0.41971311  0.64794788  0.25326610  1
  O  O79  1  0.57564644  0.64159833  0.24371268  1
