# generated using pymatgen
data_MgMn2(SbO3)4
_symmetry_space_group_name_H-M   'P 1'
_cell_length_a   9.34748813
_cell_length_b   6.18367790
_cell_length_c   6.17037408
_cell_angle_alpha   84.26799499
_cell_angle_beta   58.74252398
_cell_angle_gamma   59.84742718
_symmetry_Int_Tables_number   1
_chemical_formula_structural   MgMn2(SbO3)4
_chemical_formula_sum   'Mg1 Mn2 Sb4 O12'
_cell_volume   257.32316017
_cell_formula_units_Z   1
loop_
 _symmetry_equiv_pos_site_id
 _symmetry_equiv_pos_as_xyz
  1  'x, y, z'
loop_
 _atom_site_type_symbol
 _atom_site_label
 _atom_site_symmetry_multiplicity
 _atom_site_fract_x
 _atom_site_fract_y
 _atom_site_fract_z
 _atom_site_occupancy
  Mg  Mg0  1  -0.00312682  0.50107167  0.98879231  1
  Mn  Mn1  1  0.16472326  0.59218647  0.41304625  1
  Mn  Mn2  1  0.49557624  0.43212636  0.54747062  1
  Sb  Sb3  1  -0.00156395  0.99227713  0.00233441  1
  Sb  Sb4  1  0.33695596  0.00424491  0.98393124  1
  Sb  Sb5  1  0.64499005  0.01661671  0.01874958  1
  Sb  Sb6  1  0.83312316  0.42504991  0.57957582  1
  O  O7  1  0.86907359  0.66036564  0.76111097  1
  O  O8  1  0.18385974  0.12370960  0.80306145  1
  O  O9  1  0.14201973  0.88167852  0.19399456  1
  O  O10  1  0.17629164  0.65422305  0.75956207  1
  O  O11  1  0.45897995  0.33660185  0.27468905  1
  O  O12  1  0.46677733  0.88043244  0.18082971  1
  O  O13  1  0.52799945  0.13295410  0.79361522  1
  O  O14  1  0.80937269  0.33699169  0.24272897  1
  O  O15  1  0.53182057  0.66925551  0.72460363  1
  O  O16  1  0.80315776  0.87293688  0.19670401  1
  O  O17  1  0.84974977  0.12200580  0.81238982  1
  O  O18  1  0.12688687  0.36527176  0.21239331  1
