# generated using pymatgen
data_MgV2(CoO4)2
_symmetry_space_group_name_H-M   'P 1'
_cell_length_a   5.22852977
_cell_length_b   5.22853107
_cell_length_c   6.38422700
_cell_angle_alpha   90.00000000
_cell_angle_beta   90.00000000
_cell_angle_gamma   66.12681484
_symmetry_Int_Tables_number   1
_chemical_formula_structural   MgV2(CoO4)2
_chemical_formula_sum   'Mg1 V2 Co2 O8'
_cell_volume   159.59690297
_cell_formula_units_Z   1
loop_
 _symmetry_equiv_pos_site_id
 _symmetry_equiv_pos_as_xyz
  1  'x, y, z'
loop_
 _atom_site_type_symbol
 _atom_site_label
 _atom_site_symmetry_multiplicity
 _atom_site_fract_x
 _atom_site_fract_y
 _atom_site_fract_z
 _atom_site_occupancy
  Mg  Mg0  1  0.34053700  0.34053700  0.75000000  1
  V  V1  1  0.35570500  0.35570500  0.25000000  1
  V  V2  1  0.65423400  0.65423400  0.75000000  1
  Co  Co3  1  0.99803800  0.99803800  0.00815800  1
  Co  Co4  1  0.99803800  0.99803800  0.49184200  1
  O  O5  1  0.24064100  0.24064100  0.02463400  1
  O  O6  1  0.24064100  0.24064100  0.47536600  1
  O  O7  1  0.22322500  0.72165000  0.25000000  1
  O  O8  1  0.27556100  0.76230000  0.75000000  1
  O  O9  1  0.72165000  0.22322500  0.25000000  1
  O  O10  1  0.76230000  0.27556100  0.75000000  1
  O  O11  1  0.76971600  0.76971600  0.96037300  1
  O  O12  1  0.76971600  0.76971600  0.53962700  1
