# generated using pymatgen
data_CaZr(SO4)3
_symmetry_space_group_name_H-M   'P 1'
_cell_length_a   9.12244796
_cell_length_b   9.12244764
_cell_length_c   23.37361181
_cell_angle_alpha   90.00000000
_cell_angle_beta   90.00000000
_cell_angle_gamma   120.00000116
_symmetry_Int_Tables_number   1
_chemical_formula_structural   CaZr(SO4)3
_chemical_formula_sum   'Ca6 Zr6 S18 O72'
_cell_volume   1684.53185321
_cell_formula_units_Z   6
loop_
 _symmetry_equiv_pos_site_id
 _symmetry_equiv_pos_as_xyz
  1  'x, y, z'
loop_
 _atom_site_type_symbol
 _atom_site_label
 _atom_site_symmetry_multiplicity
 _atom_site_fract_x
 _atom_site_fract_y
 _atom_site_fract_z
 _atom_site_occupancy
  Ca  Ca0  1  0.00000000  -0.00000000  0.35671236  1
  Ca  Ca1  1  0.00000000  -0.00000000  0.85671236  1
  Ca  Ca2  1  0.66666700  0.33333300  0.69004536  1
  Ca  Ca3  1  0.66666700  0.33333300  0.19004536  1
  Ca  Ca4  1  0.33333300  0.66666700  0.02337936  1
  Ca  Ca5  1  0.33333300  0.66666700  0.52337936  1
  Zr  Zr6  1  0.00000000  -0.00000000  0.64530562  1
  Zr  Zr7  1  0.00000000  -0.00000000  0.14530562  1
  Zr  Zr8  1  0.66666700  0.33333300  0.97863862  1
  Zr  Zr9  1  0.66666700  0.33333300  0.47863862  1
  Zr  Zr10  1  0.33333300  0.66666700  0.31197262  1
  Zr  Zr11  1  0.33333300  0.66666700  0.81197262  1
  S  S12  1  0.28386876  0.99127618  0.25059685  1
  S  S13  1  0.70740742  0.71613124  0.25059685  1
  S  S14  1  0.00872382  0.29259258  0.25059685  1
  S  S15  1  0.28386876  0.29259258  0.75059685  1
  S  S16  1  0.00872382  0.71613124  0.75059685  1
  S  S17  1  0.70740742  0.99127618  0.75059685  1
  S  S18  1  0.95053576  0.32460918  0.58392985  1
  S  S19  1  0.37407442  0.04946424  0.58392985  1
  S  S20  1  0.67539082  0.62592558  0.58392985  1
  S  S21  1  0.95053576  0.62592558  0.08392985  1
  S  S22  1  0.67539082  0.04946424  0.08392985  1
  S  S23  1  0.37407442  0.32460918  0.08392985  1
  S  S24  1  0.61720176  0.65794318  0.91726385  1
  S  S25  1  0.04074042  0.38279824  0.91726385  1
  S  S26  1  0.34205682  0.95925958  0.91726385  1
  S  S27  1  0.61720176  0.95925958  0.41726385  1
  S  S28  1  0.34205682  0.38279824  0.41726385  1
  S  S29  1  0.04074042  0.65794318  0.41726385  1
  O  O30  1  0.20796311  0.01740885  0.30101642  1
  O  O31  1  0.80944574  0.79203689  0.30101642  1
  O  O32  1  0.98259115  0.19055426  0.30101642  1
  O  O33  1  0.20796311  0.19055426  0.80101642  1
  O  O34  1  0.98259115  0.79203689  0.80101642  1
  O  O35  1  0.80944574  0.01740885  0.80101642  1
  O  O36  1  0.79133256  0.96283405  0.69874861  1
  O  O37  1  0.17150149  0.20866744  0.69874861  1
  O  O38  1  0.03716595  0.82849851  0.69874861  1
  O  O39  1  0.79133256  0.82849851  0.19874861  1
  O  O40  1  0.03716595  0.20866744  0.19874861  1
  O  O41  1  0.17150149  0.96283405  0.19874861  1
  O  O42  1  0.87463011  0.35074185  0.63434942  1
  O  O43  1  0.47611274  0.12536989  0.63434942  1
  O  O44  1  0.64925815  0.52388726  0.63434942  1
  O  O45  1  0.87463011  0.52388726  0.13434942  1
  O  O46  1  0.64925815  0.12536989  0.13434942  1
  O  O47  1  0.47611274  0.35074185  0.13434942  1
  O  O48  1  0.45799956  0.29616705  0.03208161  1
  O  O49  1  0.83816849  0.54200044  0.03208161  1
  O  O50  1  0.70383295  0.16183151  0.03208161  1
  O  O51  1  0.45799956  0.16183151  0.53208161  1
  O  O52  1  0.70383295  0.54200044  0.53208161  1
  O  O53  1  0.83816849  0.29616705  0.53208161  1
  O  O54  1  0.54129611  0.68407585  0.96768342  1
  O  O55  1  0.14277874  0.45870389  0.96768342  1
  O  O56  1  0.31592415  0.85722126  0.96768342  1
  O  O57  1  0.54129611  0.85722126  0.46768342  1
  O  O58  1  0.31592415  0.45870389  0.46768342  1
  O  O59  1  0.14277874  0.68407585  0.46768342  1
  O  O60  1  0.12466556  0.62950105  0.36541561  1
  O  O61  1  0.50483449  0.87533444  0.36541561  1
  O  O62  1  0.37049895  0.49516551  0.36541561  1
  O  O63  1  0.12466556  0.49516551  0.86541561  1
  O  O64  1  0.37049895  0.87533444  0.86541561  1
  O  O65  1  0.50483449  0.62950105  0.86541561  1
  O  O66  1  0.01171879  0.79807312  0.40708268  1
  O  O67  1  0.78635433  0.98828121  0.40708268  1
  O  O68  1  0.20192688  0.21364568  0.40708268  1
  O  O69  1  0.01171879  0.21364568  0.90708268  1
  O  O70  1  0.20192688  0.98828121  0.90708268  1
  O  O71  1  0.78635433  0.79807312  0.90708268  1
  O  O72  1  0.96120879  0.16443142  0.59188277  1
  O  O73  1  0.20322262  0.03879121  0.59188277  1
  O  O74  1  0.83556858  0.79677738  0.59188277  1
  O  O75  1  0.96120879  0.79677738  0.09188277  1
  O  O76  1  0.83556858  0.03879121  0.09188277  1
  O  O77  1  0.20322262  0.16443142  0.09188277  1
  O  O78  1  0.67838579  0.13140612  0.74041568  1
  O  O79  1  0.45302133  0.32161421  0.74041568  1
  O  O80  1  0.86859388  0.54697868  0.74041568  1
  O  O81  1  0.67838579  0.54697868  0.24041568  1
  O  O82  1  0.86859388  0.32161421  0.24041568  1
  O  O83  1  0.45302133  0.13140612  0.24041568  1
  O  O84  1  0.62787579  0.49776442  0.92521577  1
  O  O85  1  0.86988962  0.37212421  0.92521577  1
  O  O86  1  0.50223558  0.13011038  0.92521577  1
  O  O87  1  0.62787579  0.13011038  0.42521577  1
  O  O88  1  0.50223558  0.37212421  0.42521577  1
  O  O89  1  0.86988962  0.49776442  0.42521577  1
  O  O90  1  0.34505179  0.46474012  0.07374968  1
  O  O91  1  0.11968733  0.65494821  0.07374968  1
  O  O92  1  0.53525988  0.88031268  0.07374968  1
  O  O93  1  0.34505179  0.88031268  0.57374968  1
  O  O94  1  0.53525988  0.65494821  0.57374968  1
  O  O95  1  0.11968733  0.46474012  0.57374968  1
  O  O96  1  0.29454179  0.83109842  0.25854977  1
  O  O97  1  0.53655562  0.70545821  0.25854977  1
  O  O98  1  0.16890158  0.46344438  0.25854977  1
  O  O99  1  0.29454179  0.46344438  0.75854977  1
  O  O100  1  0.16890158  0.70545821  0.75854977  1
  O  O101  1  0.53655562  0.83109842  0.75854977  1
