# generated using pymatgen
data_Cd(NO3)2
_symmetry_space_group_name_H-M   'P 1'
_cell_length_a   7.53033533
_cell_length_b   7.50999518
_cell_length_c   15.44212652
_cell_angle_alpha   90.00000000
_cell_angle_beta   90.00000000
_cell_angle_gamma   90.00000000
_symmetry_Int_Tables_number   1
_chemical_formula_structural   Cd(NO3)2
_chemical_formula_sum   'Cd8 N16 O48'
_cell_volume   873.29521520
_cell_formula_units_Z   8
loop_
 _symmetry_equiv_pos_site_id
 _symmetry_equiv_pos_as_xyz
  1  'x, y, z'
loop_
 _atom_site_type_symbol
 _atom_site_label
 _atom_site_symmetry_multiplicity
 _atom_site_fract_x
 _atom_site_fract_y
 _atom_site_fract_z
 _atom_site_occupancy
  Cd  Cd0  1  0.28331421  0.97950781  0.62098375  1
  Cd  Cd1  1  0.78331421  0.02049219  0.37901625  1
  Cd  Cd2  1  0.78331421  0.52049219  0.62098375  1
  Cd  Cd3  1  0.28331421  0.47950781  0.37901625  1
  Cd  Cd4  1  0.26531630  0.46931926  0.87504307  1
  Cd  Cd5  1  0.76531630  0.53068074  0.12495693  1
  Cd  Cd6  1  0.76531630  0.03068074  0.87504307  1
  Cd  Cd7  1  0.26531630  0.96931926  0.12495693  1
  N  N8  1  0.62947163  0.34026694  0.29257653  1
  N  N9  1  0.92296102  0.67797745  0.95093548  1
  N  N10  1  0.42296102  0.32202255  0.04906452  1
  N  N11  1  0.42296102  0.82202255  0.95093548  1
  N  N12  1  0.92296102  0.17797745  0.04906452  1
  N  N13  1  0.59074142  0.36529048  0.78470681  1
  N  N14  1  0.09074142  0.63470952  0.21529319  1
  N  N15  1  0.09074142  0.13470952  0.78470681  1
  N  N16  1  0.59074142  0.86529048  0.21529319  1
  N  N17  1  0.12947163  0.65973306  0.70742347  1
  N  N18  1  0.12947163  0.15973306  0.29257653  1
  N  N19  1  0.62947163  0.84026694  0.70742347  1
  N  N20  1  0.93636050  0.67135275  0.44727721  1
  N  N21  1  0.43636050  0.32864725  0.55272279  1
  N  N22  1  0.43636050  0.82864725  0.44727721  1
  N  N23  1  0.93636050  0.17135275  0.55272279  1
  O  O24  1  0.23215258  0.65947197  0.25637626  1
  O  O25  1  0.05837665  0.68179724  0.63415211  1
  O  O26  1  0.05837665  0.18179724  0.36584789  1
  O  O27  1  0.55837665  0.81820276  0.63415211  1
  O  O28  1  0.58256989  0.46833663  0.24552766  1
  O  O29  1  0.08256989  0.53166337  0.75447234  1
  O  O30  1  0.08256989  0.03166337  0.24552766  1
  O  O31  1  0.58256989  0.96833663  0.75447234  1
  O  O32  1  0.74659966  0.73279105  0.73244317  1
  O  O33  1  0.24659966  0.26720895  0.26755683  1
  O  O34  1  0.24659966  0.76720895  0.73244317  1
  O  O35  1  0.74659966  0.23279105  0.26755683  1
  O  O36  1  0.80669825  0.20135737  0.50325885  1
  O  O37  1  0.30669825  0.79864263  0.49674115  1
  O  O38  1  0.30669825  0.29864263  0.50325885  1
  O  O39  1  0.80669825  0.70135737  0.49674115  1
  O  O40  1  0.97713764  0.28276168  0.61005305  1
  O  O41  1  0.47713764  0.71723832  0.38994695  1
  O  O42  1  0.47713764  0.21723832  0.61005305  1
  O  O43  1  0.97713764  0.78276168  0.38994695  1
  O  O44  1  0.02402783  0.02981954  0.54454877  1
  O  O45  1  0.52402783  0.97018046  0.45545123  1
  O  O46  1  0.52402783  0.47018046  0.54454877  1
  O  O47  1  0.02402783  0.52981954  0.45545123  1
  O  O48  1  0.95569416  0.78844537  0.89177342  1
  O  O49  1  0.01506232  0.03974826  0.04101218  1
  O  O50  1  0.51506232  0.96025174  0.95898782  1
  O  O51  1  0.51506232  0.46025174  0.04101218  1
  O  O52  1  0.73215258  0.84052803  0.25637626  1
  O  O53  1  0.23215258  0.15947197  0.74362374  1
  O  O54  1  0.55837665  0.31820276  0.36584789  1
  O  O55  1  0.73215258  0.34052803  0.74362374  1
  O  O56  1  0.56545598  0.78388894  0.14432482  1
  O  O57  1  0.06545598  0.21611106  0.85567518  1
  O  O58  1  0.06545598  0.71611106  0.14432482  1
  O  O59  1  0.56545598  0.28388894  0.85567518  1
  O  O60  1  0.47329467  0.96948893  0.24265294  1
  O  O61  1  0.97329467  0.03051107  0.75734706  1
  O  O62  1  0.79616431  0.70670149  0.00239012  1
  O  O63  1  0.47329467  0.46948893  0.75734706  1
  O  O64  1  0.01506232  0.53974826  0.95898782  1
  O  O65  1  0.95569416  0.28844537  0.10822658  1
  O  O66  1  0.45569416  0.71155463  0.89177342  1
  O  O67  1  0.45569416  0.21155463  0.10822658  1
  O  O68  1  0.79616431  0.20670149  0.99760988  1
  O  O69  1  0.29616431  0.79329851  0.00239012  1
  O  O70  1  0.29616431  0.29329851  0.99760988  1
  O  O71  1  0.97329467  0.53051107  0.24265294  1
