# generated using pymatgen
data_Na8MgSi4Ge3(PO12)2
_symmetry_space_group_name_H-M   'P 1'
_cell_length_a   8.84474976
_cell_length_b   8.88577925
_cell_length_c   21.69324499
_cell_angle_alpha   89.83202660
_cell_angle_beta   90.03946720
_cell_angle_gamma   120.06182606
_symmetry_Int_Tables_number   1
_chemical_formula_structural   Na8MgSi4Ge3(PO12)2
_chemical_formula_sum   'Na24 Mg3 Si12 Ge9 P6 O72'
_cell_volume   1475.58175574
_cell_formula_units_Z   3
loop_
 _symmetry_equiv_pos_site_id
 _symmetry_equiv_pos_as_xyz
  1  'x, y, z'
loop_
 _atom_site_type_symbol
 _atom_site_label
 _atom_site_symmetry_multiplicity
 _atom_site_fract_x
 _atom_site_fract_y
 _atom_site_fract_z
 _atom_site_occupancy
  Na  Na0  1  0.63680380  0.00836245  0.24364650  1
  Na  Na1  1  0.37229379  0.36314694  0.24453838  1
  Na  Na2  1  0.99195783  0.62813055  0.24457102  1
  Na  Na3  1  0.63176137  0.62212435  0.74746578  1
  Na  Na4  1  0.98873016  0.36929073  0.75062816  1
  Na  Na5  1  0.38011052  0.00631925  0.74628523  1
  Na  Na6  1  0.30756103  0.33516080  0.58603232  1
  Na  Na7  1  0.03006721  0.69795914  0.58457516  1
  Na  Na8  1  0.66416064  0.97112019  0.58866000  1
  Na  Na9  1  0.30772601  0.97048698  0.08300488  1
  Na  Na10  1  0.66257079  0.69241417  0.08299296  1
  Na  Na11  1  0.02919870  0.33728606  0.08291196  1
  Na  Na12  1  0.96402164  0.66575310  0.91731503  1
  Na  Na13  1  0.70184622  0.03691898  0.91719391  1
  Na  Na14  1  0.33452740  0.29895493  0.91803551  1
  Na  Na15  1  0.96662946  0.29173587  0.41484452  1
  Na  Na16  1  0.32217700  0.03625605  0.41633538  1
  Na  Na17  1  0.71087814  0.67299028  0.41425054  1
  Na  Na18  1  0.00380716  0.99975747  0.49771552  1
  Na  Na19  1  0.99993994  0.00032786  0.99939559  1
  Na  Na20  1  0.66988835  0.33316178  0.83108513  1
  Na  Na21  1  0.66698769  0.33469781  0.33102916  1
  Na  Na22  1  0.33347855  0.66665275  0.16253920  1
  Na  Na23  1  0.33707413  0.67084463  0.66799329  1
  Mg  Mg24  1  0.00276037  0.00006878  0.35477727  1
  Mg  Mg25  1  0.66459387  0.33170449  0.68666556  1
  Mg  Mg26  1  0.66676518  0.33297815  0.18113394  1
  Si  Si27  1  0.00501117  0.71372467  0.75287503  1
  Si  Si28  1  0.71285850  0.99583979  0.75183394  1
  Si  Si29  1  0.37564112  0.04088690  0.58350699  1
  Si  Si30  1  0.66428216  0.62750878  0.58402041  1
  Si  Si31  1  0.95997993  0.62402214  0.08384584  1
  Si  Si32  1  0.66370007  0.03975574  0.08378429  1
  Si  Si33  1  0.37619952  0.33639664  0.08394482  1
  Si  Si34  1  0.61875403  0.66475507  0.91609246  1
  Si  Si35  1  0.04644483  0.38000627  0.91576405  1
  Si  Si36  1  0.33480442  0.95745310  0.91648367  1
  Si  Si37  1  0.33725613  0.38246142  0.41845613  1
  Si  Si38  1  0.04218068  0.65961583  0.41843162  1
  Ge  Ge39  1  0.99524438  0.99661336  0.85524057  1
  Ge  Ge40  1  0.99819935  0.98693006  0.64849968  1
  Ge  Ge41  1  0.99980231  0.99945935  0.14346407  1
  Ge  Ge42  1  0.66697044  0.33363387  0.98101828  1
  Ge  Ge43  1  0.66424139  0.34421307  0.48221763  1
  Ge  Ge44  1  0.33259922  0.66650323  0.01844131  1
  Ge  Ge45  1  0.33334833  0.66846026  0.51924369  1
  Ge  Ge46  1  0.32951591  0.66035280  0.31652356  1
  Ge  Ge47  1  0.33597060  0.67500394  0.81518013  1
  P  P48  1  0.29030793  0.99574638  0.25244230  1
  P  P49  1  0.70650889  0.71180334  0.25250907  1
  P  P50  1  0.00325113  0.29195621  0.25211862  1
  P  P51  1  0.28035111  0.28444998  0.75086252  1
  P  P52  1  0.95758270  0.33435297  0.58277510  1
  P  P53  1  0.61705195  0.95531619  0.41688124  1
  O  O54  1  0.20765254  0.02221511  0.30922796  1
  O  O55  1  0.81520249  0.79516551  0.30935219  1
  O  O56  1  0.97722901  0.18324655  0.30912092  1
  O  O57  1  0.19624045  0.16886888  0.80918407  1
  O  O58  1  0.97139864  0.80729605  0.81221859  1
  O  O59  1  0.83930559  0.03368634  0.81215681  1
  O  O60  1  0.80114215  0.95910748  0.68945915  1
  O  O61  1  0.16313898  0.20185473  0.69167277  1
  O  O62  1  0.04945544  0.83795717  0.69000058  1
  O  O63  1  0.79029717  0.82929080  0.19287019  1
  O  O64  1  0.03806111  0.20859112  0.19292455  1
  O  O65  1  0.17147509  0.95975649  0.19308560  1
  O  O66  1  0.88342656  0.37219410  0.63953677  1
  O  O67  1  0.49519446  0.11146969  0.64323850  1
  O  O68  1  0.61715233  0.50624277  0.64330462  1
  O  O69  1  0.89123896  0.51057633  0.14524895  1
  O  O70  1  0.61900469  0.10894401  0.14491947  1
  O  O71  1  0.48998376  0.38082457  0.14525245  1
  O  O72  1  0.45956754  0.28932813  0.02327519  1
  O  O73  1  0.82945386  0.54037960  0.02308916  1
  O  O74  1  0.71127929  0.17090837  0.02315932  1
  O  O75  1  0.46436054  0.16995406  0.52152977  1
  O  O76  1  0.71265068  0.54607576  0.52261672  1
  O  O77  1  0.83740060  0.29603384  0.52419807  1
  O  O78  1  0.53487356  0.70795583  0.97589247  1
  O  O79  1  0.17210913  0.46375579  0.97599727  1
  O  O80  1  0.28949525  0.82833140  0.97589900  1
  O  O81  1  0.53411616  0.83815215  0.47470668  1
  O  O82  1  0.30406105  0.47567849  0.47764434  1
  O  O83  1  0.17095398  0.69850863  0.47751342  1
  O  O84  1  0.12862981  0.62020364  0.35631598  1
  O  O85  1  0.49701370  0.87285916  0.35843392  1
  O  O86  1  0.38305411  0.51032675  0.35645504  1
  O  O87  1  0.13158245  0.50668986  0.85494736  1
  O  O88  1  0.37971138  0.87619384  0.85579519  1
  O  O89  1  0.49179750  0.62181217  0.85524286  1
  O  O90  1  0.01621764  0.82638857  0.41509234  1
  O  O91  1  0.79766903  0.97494557  0.41227385  1
  O  O92  1  0.16639364  0.19199208  0.41529760  1
  O  O93  1  0.02782753  0.18497340  0.91094695  1
  O  O94  1  0.16001498  0.97938603  0.91057695  1
  O  O95  1  0.81519427  0.84118023  0.91223904  1
  O  O96  1  0.97854047  0.16955037  0.58645575  1
  O  O97  1  0.18020497  0.02829234  0.58756892  1
  O  O98  1  0.84303958  0.82450753  0.58727760  1
  O  O99  1  0.97815177  0.82092605  0.08970419  1
  O  O100  1  0.84309762  0.02172805  0.08974399  1
  O  O101  1  0.17883925  0.15666861  0.08987086  1
  O  O102  1  0.68952805  0.16434565  0.74915358  1
  O  O103  1  0.46122439  0.30385350  0.74757581  1
  O  O104  1  0.83324770  0.52401590  0.74874391  1
  O  O105  1  0.68239022  0.52804540  0.24737826  1
  O  O106  1  0.84370737  0.31701932  0.24695427  1
  O  O107  1  0.47457868  0.15616813  0.24696098  1
  O  O108  1  0.63907896  0.49027497  0.92182180  1
  O  O109  1  0.85126425  0.36079808  0.92174449  1
  O  O110  1  0.51061603  0.15148945  0.92253450  1
  O  O111  1  0.63118799  0.13686249  0.42154458  1
  O  O112  1  0.51736572  0.36684426  0.42191172  1
  O  O113  1  0.85025269  0.47522142  0.42340165  1
  O  O114  1  0.35026198  0.50667690  0.07450191  1
  O  O115  1  0.15661786  0.64937567  0.07439152  1
  O  O116  1  0.49303087  0.84344707  0.07427279  1
  O  O117  1  0.34743105  0.84195811  0.57440775  1
  O  O118  1  0.49135662  0.65241927  0.57413467  1
  O  O119  1  0.14485141  0.49909303  0.57580711  1
  O  O120  1  0.30496005  0.82323499  0.25516193  1
  O  O121  1  0.51978976  0.70014723  0.25424387  1
  O  O122  1  0.17794772  0.47871715  0.25366318  1
  O  O123  1  0.29289710  0.46607715  0.75372970  1
  O  O124  1  0.18576185  0.69925564  0.75596733  1
  O  O125  1  0.52037580  0.81185928  0.75537985  1
