# generated using pymatgen
data_Na6Zn3GeP4(SO12)2
_symmetry_space_group_name_H-M   'P 1'
_cell_length_a   8.92999000
_cell_length_b   8.91779280
_cell_length_c   21.79764692
_cell_angle_alpha   90.38639181
_cell_angle_beta   89.45828711
_cell_angle_gamma   119.92431425
_symmetry_Int_Tables_number   1
_chemical_formula_structural   Na6Zn3GeP4(SO12)2
_chemical_formula_sum   'Na18 Zn9 Ge3 P12 S6 O72'
_cell_volume   1504.38401347
_cell_formula_units_Z   3
loop_
 _symmetry_equiv_pos_site_id
 _symmetry_equiv_pos_as_xyz
  1  'x, y, z'
loop_
 _atom_site_type_symbol
 _atom_site_label
 _atom_site_symmetry_multiplicity
 _atom_site_fract_x
 _atom_site_fract_y
 _atom_site_fract_z
 _atom_site_occupancy
  Na  Na0  1  0.36429421  0.36532780  0.25360081  1
  Na  Na1  1  0.64633367  0.64066859  0.74542826  1
  Na  Na2  1  0.99234338  0.35009601  0.74964007  1
  Na  Na3  1  0.29248441  0.34063254  0.58383719  1
  Na  Na4  1  0.03483737  0.70043785  0.58108294  1
  Na  Na5  1  0.66949685  0.95568629  0.58104387  1
  Na  Na6  1  0.28880361  0.95785668  0.07912452  1
  Na  Na7  1  0.66262804  0.69927211  0.08180290  1
  Na  Na8  1  0.04647242  0.34038740  0.08292334  1
  Na  Na9  1  0.32060691  0.29473480  0.91178806  1
  Na  Na10  1  0.98374575  0.30702649  0.41200863  1
  Na  Na11  1  0.69091230  0.67655898  0.41232989  1
  Na  Na12  1  0.00787268  0.00045028  0.49529100  1
  Na  Na13  1  0.99155997  0.98482226  0.99156189  1
  Na  Na14  1  0.65657377  0.30916192  0.83073566  1
  Na  Na15  1  0.66493278  0.31554289  0.33028839  1
  Na  Na16  1  0.32380464  0.67263486  0.17105335  1
  Na  Na17  1  0.33812787  0.67247880  0.66637870  1
  Zn  Zn18  1  0.00568055  0.99626373  0.35188789  1
  Zn  Zn19  1  0.99505470  0.00275355  0.85104063  1
  Zn  Zn20  1  0.98643087  0.00970303  0.65726365  1
  Zn  Zn21  1  0.00681465  0.99349642  0.15145848  1
  Zn  Zn22  1  0.65744927  0.32580181  0.68493678  1
  Zn  Zn23  1  0.67310511  0.34168989  0.18190050  1
  Zn  Zn24  1  0.33039592  0.66600809  0.01064962  1
  Zn  Zn25  1  0.33049580  0.66270032  0.50683652  1
  Zn  Zn26  1  0.33667093  0.67902379  0.32772770  1
  Ge  Ge27  1  0.66945056  0.34140662  0.97653865  1
  Ge  Ge28  1  0.67065445  0.33617136  0.48068533  1
  Ge  Ge29  1  0.34076902  0.67074514  0.82356753  1
  P  P30  1  0.29891232  0.30710116  0.75408923  1
  P  P31  1  0.68801682  0.98998970  0.75259435  1
  P  P32  1  0.95562622  0.33431927  0.58362484  1
  P  P33  1  0.66805457  0.62341505  0.58379346  1
  P  P34  1  0.95409333  0.62003250  0.08073765  1
  P  P35  1  0.37750766  0.33295454  0.08237224  1
  P  P36  1  0.63069453  0.66383532  0.91954703  1
  P  P37  1  0.03130440  0.37629569  0.91850997  1
  P  P38  1  0.34299366  0.96634098  0.92024499  1
  P  P39  1  0.63096541  0.97497355  0.42066531  1
  P  P40  1  0.34240765  0.36308030  0.41864703  1
  P  P41  1  0.02895108  0.66078672  0.42075667  1
  S  S42  1  0.30204996  0.99729932  0.24806800  1
  S  S43  1  0.69821840  0.70247143  0.24993217  1
  S  S44  1  0.99939947  0.29837111  0.24946125  1
  S  S45  1  0.01411426  0.70904361  0.75124067  1
  S  S46  1  0.37598163  0.04410611  0.58208508  1
  S  S47  1  0.66808640  0.04794025  0.08169541  1
  O  O48  1  0.20750776  0.02200471  0.29988268  1
  O  O49  1  0.79810677  0.79256982  0.30532716  1
  O  O50  1  0.98660776  0.19707975  0.30531687  1
  O  O51  1  0.21309074  0.19837595  0.81052156  1
  O  O52  1  0.98923591  0.79722823  0.80343150  1
  O  O53  1  0.81481864  0.02217802  0.80378347  1
  O  O54  1  0.74919128  0.94305617  0.69116373  1
  O  O55  1  0.18951492  0.23282808  0.69458551  1
  O  O56  1  0.03384276  0.80185408  0.69194209  1
  O  O57  1  0.78250745  0.79711966  0.19209629  1
  O  O58  1  0.01903367  0.21287506  0.19237663  1
  O  O59  1  0.21072042  0.97956490  0.18836322  1
  O  O60  1  0.87355734  0.35657453  0.64213368  1
  O  O61  1  0.47779291  0.11959457  0.63752584  1
  O  O62  1  0.64101451  0.51646287  0.64143954  1
  O  O63  1  0.87815362  0.50598881  0.13695934  1
  O  O64  1  0.64052305  0.12380928  0.13757412  1
  O  O65  1  0.48079600  0.35587091  0.14079262  1
  O  O66  1  0.46912940  0.30343786  0.02361295  1
  O  O67  1  0.83199999  0.53111269  0.02305904  1
  O  O68  1  0.69665033  0.15890240  0.02582055  1
  O  O69  1  0.46183056  0.15649491  0.52649161  1
  O  O70  1  0.69119691  0.52901808  0.52512550  1
  O  O71  1  0.83788838  0.30747188  0.52570103  1
  O  O72  1  0.55160725  0.68551764  0.97881348  1
  O  O73  1  0.13580452  0.45104584  0.97679101  1
  O  O74  1  0.32365258  0.87334204  0.98048696  1
  O  O75  1  0.55518803  0.86723516  0.47959284  1
  O  O76  1  0.30934150  0.44199552  0.47677186  1
  O  O77  1  0.12837959  0.68824891  0.48058233  1
  O  O78  1  0.11200913  0.61855943  0.36648252  1
  O  O79  1  0.51985359  0.89263530  0.36450033  1
  O  O80  1  0.38261848  0.48169405  0.36179440  1
  O  O81  1  0.12723592  0.49789170  0.86071581  1
  O  O82  1  0.37208044  0.86947000  0.86441577  1
  O  O83  1  0.50272356  0.62639393  0.86316675  1
  O  O84  1  0.99069108  0.80966285  0.41239077  1
  O  O85  1  0.81686293  0.00257260  0.41381768  1
  O  O86  1  0.18268366  0.18319674  0.41091690  1
  O  O87  1  0.01212688  0.19731243  0.90995131  1
  O  O88  1  0.19050510  0.99638875  0.91125265  1
  O  O89  1  0.81047607  0.81389052  0.90934451  1
  O  O90  1  0.97348205  0.16868798  0.58423366  1
  O  O91  1  0.20265518  0.02939207  0.58535847  1
  O  O92  1  0.83722460  0.80269350  0.58466566  1
  O  O93  1  0.96450688  0.80008400  0.08429523  1
  O  O94  1  0.82603215  0.03050879  0.08445440  1
  O  O95  1  0.19463176  0.16780610  0.08302138  1
  O  O96  1  0.66990113  0.15193815  0.74634339  1
  O  O97  1  0.48697915  0.34522487  0.74845916  1
  O  O98  1  0.85922201  0.53024007  0.74885662  1
  O  O99  1  0.67799845  0.52497975  0.24935225  1
  O  O100  1  0.84414821  0.31666986  0.24704599  1
  O  O101  1  0.47454498  0.15888895  0.24642243  1
  O  O102  1  0.63144379  0.48462370  0.92022901  1
  O  O103  1  0.84856515  0.36334331  0.92066954  1
  O  O104  1  0.51350529  0.15394811  0.92097967  1
  O  O105  1  0.65440019  0.16242242  0.42633479  1
  O  O106  1  0.51221238  0.35150415  0.42595256  1
  O  O107  1  0.84252928  0.48875740  0.42472689  1
  O  O108  1  0.35898931  0.49554491  0.07731059  1
  O  O109  1  0.13899793  0.64874456  0.07450813  1
  O  O110  1  0.51430955  0.87175976  0.07662636  1
  O  O111  1  0.35582212  0.86931095  0.57551440  1
  O  O112  1  0.50837972  0.64658025  0.57766959  1
  O  O113  1  0.13693889  0.49659738  0.57729132  1
  O  O114  1  0.31901001  0.84255460  0.25473730  1
  O  O115  1  0.52142363  0.68061670  0.25235841  1
  O  O116  1  0.16084710  0.47060789  0.25245618  1
  O  O117  1  0.30938689  0.49383650  0.76085135  1
  O  O118  1  0.17068606  0.68761253  0.75676618  1
  O  O119  1  0.50649553  0.81879617  0.76321558  1
