# generated using pymatgen
data_As2O3
_symmetry_space_group_name_H-M   'P 1'
_cell_length_a   7.88227789
_cell_length_b   7.88227902
_cell_length_c   7.88227890
_cell_angle_alpha   60.00000477
_cell_angle_beta   60.00000006
_cell_angle_gamma   60.00000230
_symmetry_Int_Tables_number   1
_chemical_formula_structural   As2O3
_chemical_formula_sum   'As8 O12'
_cell_volume   346.29033389
_cell_formula_units_Z   4
loop_
 _symmetry_equiv_pos_site_id
 _symmetry_equiv_pos_as_xyz
  1  'x, y, z'
loop_
 _atom_site_type_symbol
 _atom_site_label
 _atom_site_symmetry_multiplicity
 _atom_site_fract_x
 _atom_site_fract_y
 _atom_site_fract_z
 _atom_site_occupancy
  As  As0  1  0.22791142  0.22791142  0.22791142  1
  As  As1  1  0.77208858  0.77208858  0.18373527  1
  As  As2  1  0.77208858  0.18373527  0.77208858  1
  As  As3  1  0.18373527  0.77208858  0.77208858  1
  As  As4  1  0.22791142  0.81626473  0.22791142  1
  As  As5  1  0.81626473  0.22791142  0.22791142  1
  As  As6  1  0.22791142  0.22791142  0.81626473  1
  As  As7  1  0.77208858  0.77208858  0.77208858  1
  O  O8  1  0.95125149  0.29874851  0.29874851  1
  O  O9  1  0.70125149  0.04874851  0.04874851  1
  O  O10  1  0.29874851  0.95125149  0.29874851  1
  O  O11  1  0.29874851  0.29874851  0.95125149  1
  O  O12  1  0.95125149  0.95125149  0.29874851  1
  O  O13  1  0.95125149  0.29874851  0.95125149  1
  O  O14  1  0.70125149  0.04874851  0.70125149  1
  O  O15  1  0.04874851  0.70125149  0.04874851  1
  O  O16  1  0.29874851  0.95125149  0.95125149  1
  O  O17  1  0.04874851  0.04874851  0.70125149  1
  O  O18  1  0.70125149  0.70125149  0.04874851  1
  O  O19  1  0.04874851  0.70125149  0.70125149  1
