# generated using pymatgen
data_Na3ScSi3Ge3(SO8)3
_symmetry_space_group_name_H-M   'P 1'
_cell_length_a   8.62567542
_cell_length_b   8.69108768
_cell_length_c   22.17636974
_cell_angle_alpha   89.32031959
_cell_angle_beta   90.54651234
_cell_angle_gamma   120.18212424
_symmetry_Int_Tables_number   1
_chemical_formula_structural   Na3ScSi3Ge3(SO8)3
_chemical_formula_sum   'Na9 Sc3 Si9 Ge9 S9 O72'
_cell_volume   1436.99119949
_cell_formula_units_Z   3
loop_
 _symmetry_equiv_pos_site_id
 _symmetry_equiv_pos_as_xyz
  1  'x, y, z'
loop_
 _atom_site_type_symbol
 _atom_site_label
 _atom_site_symmetry_multiplicity
 _atom_site_fract_x
 _atom_site_fract_y
 _atom_site_fract_z
 _atom_site_occupancy
  Na  Na0  1  0.35981442  0.35897925  0.24505726  1
  Na  Na1  1  0.63303813  0.62462464  0.75397849  1
  Na  Na2  1  0.96749063  0.28968367  0.41691368  1
  Na  Na3  1  0.99671168  0.99945012  0.50008037  1
  Na  Na4  1  0.99985265  0.99561913  0.00111435  1
  Na  Na5  1  0.66437245  0.33372556  0.83386655  1
  Na  Na6  1  0.66954784  0.32533078  0.33216594  1
  Na  Na7  1  0.31999500  0.66361691  0.16294083  1
  Na  Na8  1  0.30791959  0.65299046  0.66624365  1
  Sc  Sc9  1  0.99427919  0.00543106  0.35820672  1
  Sc  Sc10  1  0.68102051  0.34170977  0.68850168  1
  Sc  Sc11  1  0.68820662  0.34624069  0.18074179  1
  Si  Si12  1  0.99964731  0.29538787  0.25116829  1
  Si  Si13  1  0.27953522  0.28147350  0.75485922  1
  Si  Si14  1  0.01455299  0.72638500  0.75019270  1
  Si  Si15  1  0.96309359  0.33269493  0.58150746  1
  Si  Si16  1  0.97261267  0.63989607  0.08130060  1
  Si  Si17  1  0.37465745  0.33672082  0.08392507  1
  Si  Si18  1  0.62006176  0.67652182  0.91518827  1
  Si  Si19  1  0.60229439  0.93891165  0.41871555  1
  Si  Si20  1  0.34963697  0.38020324  0.41936543  1
  Ge  Ge21  1  0.99915914  0.98119919  0.85317350  1
  Ge  Ge22  1  0.02054772  0.02372651  0.64904095  1
  Ge  Ge23  1  0.01978210  0.01746851  0.14257529  1
  Ge  Ge24  1  0.65987066  0.37402718  0.98420595  1
  Ge  Ge25  1  0.65492896  0.30306060  0.47887972  1
  Ge  Ge26  1  0.34182086  0.66423204  0.02150105  1
  Ge  Ge27  1  0.33126664  0.64572039  0.51792795  1
  Ge  Ge28  1  0.34020803  0.65633052  0.31628641  1
  Ge  Ge29  1  0.31603669  0.64431600  0.81279873  1
  S  S30  1  0.28732112  0.98844833  0.25021872  1
  S  S31  1  0.71037296  0.71623789  0.24925236  1
  S  S32  1  0.71411425  0.99731276  0.75183659  1
  S  S33  1  0.37086648  0.03500031  0.58263745  1
  S  S34  1  0.66935149  0.62899801  0.58206888  1
  S  S35  1  0.66725135  0.04349160  0.07973316  1
  S  S36  1  0.03825016  0.37305581  0.91779056  1
  S  S37  1  0.33881177  0.95638780  0.91658050  1
  S  S38  1  0.04756094  0.66268832  0.41840747  1
  O  O39  1  0.20301774  0.01343153  0.30343833  1
  O  O40  1  0.81444745  0.79146893  0.30425589  1
  O  O41  1  0.98233483  0.18922620  0.31293355  1
  O  O42  1  0.18204722  0.16059213  0.81457805  1
  O  O43  1  0.95395494  0.79638237  0.80884607  1
  O  O44  1  0.82372304  0.02846819  0.80682461  1
  O  O45  1  0.79027006  0.96136491  0.69666326  1
  O  O46  1  0.16272677  0.21259554  0.69213692  1
  O  O47  1  0.03854129  0.84700439  0.68872021  1
  O  O48  1  0.79318024  0.82173710  0.19436246  1
  O  O49  1  0.04541359  0.19953168  0.19309951  1
  O  O50  1  0.17752042  0.95896488  0.19372748  1
  O  O51  1  0.87980134  0.36818105  0.63979697  1
  O  O52  1  0.47755747  0.11801269  0.63646405  1
  O  O53  1  0.63498803  0.52438773  0.63840729  1
  O  O54  1  0.90358616  0.51392304  0.13973380  1
  O  O55  1  0.63443495  0.11390360  0.13491905  1
  O  O56  1  0.48013732  0.36703583  0.14642959  1
  O  O57  1  0.45838325  0.28840373  0.02440367  1
  O  O58  1  0.84175252  0.55077195  0.02123621  1
  O  O59  1  0.69966434  0.15670781  0.02555362  1
  O  O60  1  0.44910349  0.15082504  0.52689165  1
  O  O61  1  0.69332029  0.54177831  0.52933883  1
  O  O62  1  0.83721710  0.30065439  0.51944988  1
  O  O63  1  0.52718965  0.70659665  0.97352542  1
  O  O64  1  0.15420537  0.45845064  0.97067320  1
  O  O65  1  0.30374242  0.84473530  0.97101218  1
  O  O66  1  0.51010503  0.82635011  0.47972714  1
  O  O67  1  0.28726545  0.46076861  0.47382105  1
  O  O68  1  0.15651750  0.69416602  0.47333360  1
  O  O69  1  0.12254240  0.62441712  0.36320755  1
  O  O70  1  0.48111218  0.85795959  0.35683004  1
  O  O71  1  0.38311026  0.49614903  0.35593699  1
  O  O72  1  0.11292887  0.48687163  0.86121384  1
  O  O73  1  0.36123931  0.87350301  0.86163236  1
  O  O74  1  0.49755611  0.64070051  0.85386321  1
  O  O75  1  0.02792287  0.81878126  0.41185685  1
  O  O76  1  0.80168887  0.96584754  0.41749928  1
  O  O77  1  0.17560640  0.18395356  0.41560312  1
  O  O78  1  0.02705192  0.19903617  0.91145048  1
  O  O79  1  0.17329573  0.97533810  0.91249101  1
  O  O80  1  0.82289278  0.85559779  0.90917719  1
  O  O81  1  0.97789843  0.14830081  0.58873281  1
  O  O82  1  0.18923583  0.01798525  0.58546575  1
  O  O83  1  0.83055360  0.80847383  0.58711714  1
  O  O84  1  0.97403569  0.82753723  0.09343672  1
  O  O85  1  0.82615932  0.01928173  0.08677524  1
  O  O86  1  0.17386550  0.15971067  0.08579311  1
  O  O87  1  0.69223134  0.15301364  0.74623791  1
  O  O88  1  0.47807484  0.30906728  0.74920421  1
  O  O89  1  0.83933980  0.53021675  0.74581417  1
  O  O90  1  0.67690997  0.53136371  0.24606134  1
  O  O91  1  0.82593495  0.31592571  0.24785732  1
  O  O92  1  0.46429933  0.15175110  0.24467671  1
  O  O93  1  0.63818097  0.49414018  0.92064583  1
  O  O94  1  0.85708093  0.35160153  0.92308909  1
  O  O95  1  0.50249191  0.13453177  0.92154537  1
  O  O96  1  0.63477456  0.14490111  0.42202856  1
  O  O97  1  0.53552809  0.37683431  0.43056035  1
  O  O98  1  0.86828075  0.49848607  0.42338318  1
  O  O99  1  0.35983734  0.51512399  0.07357261  1
  O  O100  1  0.17021575  0.66618023  0.06691833  1
  O  O101  1  0.50397426  0.86356854  0.07376636  1
  O  O102  1  0.35389271  0.85943119  0.57591658  1
  O  O103  1  0.50442299  0.64746226  0.57694959  1
  O  O104  1  0.16134659  0.51698328  0.57347470  1
  O  O105  1  0.30475739  0.82721091  0.25472638  1
  O  O106  1  0.52803010  0.70272720  0.25274009  1
  O  O107  1  0.19093047  0.49635234  0.25765736  1
  O  O108  1  0.30533017  0.48501440  0.75857744  1
  O  O109  1  0.19635206  0.71333707  0.76137480  1
  O  O110  1  0.53510810  0.83297851  0.75655332  1
