# generated using pymatgen
data_K2Si2O5
_symmetry_space_group_name_H-M   'P 1'
_cell_length_a   9.95941379
_cell_length_b   9.95941379
_cell_length_c   9.95320386
_cell_angle_alpha   68.69378314
_cell_angle_beta   68.69378314
_cell_angle_gamma   68.84906620
_symmetry_Int_Tables_number   1
_chemical_formula_structural   K2Si2O5
_chemical_formula_sum   'K12 Si12 O30'
_cell_volume   826.60685852
_cell_formula_units_Z   6
loop_
 _symmetry_equiv_pos_site_id
 _symmetry_equiv_pos_as_xyz
  1  'x, y, z'
loop_
 _atom_site_type_symbol
 _atom_site_label
 _atom_site_symmetry_multiplicity
 _atom_site_fract_x
 _atom_site_fract_y
 _atom_site_fract_z
 _atom_site_occupancy
  K  K0  1  0.61613943  0.09917109  0.93023618  1
  K  K1  1  0.09917109  0.61613943  0.43023618  1
  K  K2  1  0.28505474  0.83757169  0.62346544  1
  K  K3  1  0.83757169  0.28505474  0.12346544  1
  K  K4  1  0.23488940  0.20564089  0.02165447  1
  K  K5  1  0.20564089  0.23488940  0.52165447  1
  K  K6  1  0.43604271  0.96126035  0.78420037  1
  K  K7  1  0.96126035  0.43604271  0.28420037  1
  K  K8  1  0.63745753  0.68274208  0.96683882  1
  K  K9  1  0.68274208  0.63745753  0.46683882  1
  K  K10  1  0.67751512  0.14318375  0.51856080  1
  K  K11  1  0.14318375  0.67751512  0.01856080  1
  Si  Si12  1  0.51545925  0.48433941  0.32464116  1
  Si  Si13  1  0.84445450  0.38566280  0.73733776  1
  Si  Si14  1  0.38566280  0.84445450  0.23733776  1
  Si  Si15  1  0.99378483  0.04547030  0.87566957  1
  Si  Si16  1  0.04547030  0.99378483  0.37566957  1
  Si  Si17  1  0.87440984  0.90907872  0.22165872  1
  Si  Si18  1  0.90907872  0.87440984  0.72165872  1
  Si  Si19  1  0.02590430  0.52156859  0.82465635  1
  Si  Si20  1  0.52156859  0.02590430  0.32465635  1
  Si  Si21  1  0.39632625  0.36051500  0.16571470  1
  Si  Si22  1  0.36051500  0.39632625  0.66571470  1
  Si  Si23  1  0.48433941  0.51545925  0.82464116  1
  O  O24  1  0.88149611  0.47553672  0.82541207  1
  O  O25  1  0.03154728  0.48150631  0.99064398  1
  O  O26  1  0.48150631  0.03154728  0.49064398  1
  O  O27  1  0.43320358  0.17606830  0.21759530  1
  O  O28  1  0.17606830  0.43320358  0.71759530  1
  O  O29  1  0.93617629  0.92325813  0.84952694  1
  O  O30  1  0.92325813  0.93617629  0.34952694  1
  O  O31  1  0.23436214  0.44216798  0.24256809  1
  O  O32  1  0.44216798  0.23436214  0.74256809  1
  O  O33  1  0.93044035  0.41659335  0.56701604  1
  O  O34  1  0.41659335  0.93044035  0.06701604  1
  O  O35  1  0.90373628  0.73711109  0.24586692  1
  O  O36  1  0.20990364  0.87130662  0.34053065  1
  O  O37  1  0.87130662  0.20990364  0.84053065  1
  O  O38  1  0.99791208  0.96780339  0.55890412  1
  O  O39  1  0.96780339  0.99791208  0.05890412  1
  O  O40  1  0.39345625  0.43006196  0.48289008  1
  O  O41  1  0.43006196  0.39345625  0.98289008  1
  O  O42  1  0.40482299  0.52389483  0.69976360  1
  O  O43  1  0.52389483  0.40482299  0.19976360  1
  O  O44  1  0.04212141  0.15958719  0.28461338  1
  O  O45  1  0.15958719  0.04212141  0.78461338  1
  O  O46  1  0.67823500  0.44162347  0.34069667  1
  O  O47  1  0.44162347  0.67823500  0.84069667  1
  O  O48  1  0.44394179  0.66309887  0.26179533  1
  O  O49  1  0.66309887  0.44394179  0.76179533  1
  O  O50  1  0.47553672  0.88149611  0.32541207  1
  O  O51  1  0.69934211  0.00885787  0.23287249  1
  O  O52  1  0.00885787  0.69934211  0.73287249  1
  O  O53  1  0.73711109  0.90373628  0.74586692  1
