# generated using pymatgen
data_Ce(SO4)2
_symmetry_space_group_name_H-M   'P 1'
_cell_length_a   8.99469646
_cell_length_b   9.43545442
_cell_length_c   13.45665355
_cell_angle_alpha   90.00000000
_cell_angle_beta   90.00000000
_cell_angle_gamma   90.00000000
_symmetry_Int_Tables_number   1
_chemical_formula_structural   Ce(SO4)2
_chemical_formula_sum   'Ce8 S16 O64'
_cell_volume   1142.05338238
_cell_formula_units_Z   8
loop_
 _symmetry_equiv_pos_site_id
 _symmetry_equiv_pos_as_xyz
  1  'x, y, z'
loop_
 _atom_site_type_symbol
 _atom_site_label
 _atom_site_symmetry_multiplicity
 _atom_site_fract_x
 _atom_site_fract_y
 _atom_site_fract_z
 _atom_site_occupancy
  Ce  Ce0  1  0.71890130  0.96524763  0.60413374  1
  Ce  Ce1  1  0.21890130  0.53475237  0.60413374  1
  Ce  Ce2  1  0.78109870  0.46524763  0.39586626  1
  Ce  Ce3  1  0.28109870  0.03475237  0.39586626  1
  Ce  Ce4  1  0.28109870  0.53475237  0.10413374  1
  Ce  Ce5  1  0.78109870  0.96524763  0.10413374  1
  Ce  Ce6  1  0.21890130  0.03475237  0.89586626  1
  Ce  Ce7  1  0.71890130  0.46524763  0.89586626  1
  S  S8  1  0.50328544  0.27770219  0.55911310  1
  S  S9  1  0.00328544  0.22229781  0.55911310  1
  S  S10  1  0.31984685  0.89431905  0.65558822  1
  S  S11  1  0.31984685  0.39431905  0.84441178  1
  S  S12  1  0.68015315  0.10568095  0.34441178  1
  S  S13  1  0.99671456  0.27770219  0.05911310  1
  S  S14  1  0.81984685  0.10568095  0.84441178  1
  S  S15  1  0.18015315  0.39431905  0.34441178  1
  S  S16  1  0.68015315  0.60568095  0.15558822  1
  S  S17  1  0.50328544  0.77770219  0.94088690  1
  S  S18  1  0.00328544  0.72229781  0.94088690  1
  S  S19  1  0.49671456  0.22229781  0.05911310  1
  S  S20  1  0.81984685  0.60568095  0.65558822  1
  S  S21  1  0.49671456  0.72229781  0.44088690  1
  S  S22  1  0.99671456  0.77770219  0.44088690  1
  S  S23  1  0.18015315  0.89431905  0.15558822  1
  O  O24  1  0.08248939  0.87661682  0.37882329  1
  O  O25  1  0.22642403  0.92278641  0.05292546  1
  O  O26  1  0.22642403  0.42278641  0.44707454  1
  O  O27  1  0.39489677  0.80379796  0.37787560  1
  O  O28  1  0.91706558  0.35806526  0.98277810  1
  O  O29  1  0.01870423  0.91397963  0.16549484  1
  O  O30  1  0.91751061  0.12338318  0.62117671  1
  O  O31  1  0.89489677  0.19620204  0.12212440  1
  O  O32  1  0.09979776  0.17763204  0.01042772  1
  O  O33  1  0.75728856  0.00897401  0.27630044  1
  O  O34  1  0.27357597  0.92278641  0.55292546  1
  O  O35  1  0.98129577  0.08602037  0.83450516  1
  O  O36  1  0.77907618  0.25246219  0.81855879  1
  O  O37  1  0.77357597  0.07721359  0.94707454  1
  O  O38  1  0.58293442  0.85806526  0.01722190  1
  O  O39  1  0.41706558  0.64193474  0.51722190  1
  O  O40  1  0.27907618  0.74753781  0.68144121  1
  O  O41  1  0.08293442  0.14193474  0.48277810  1
  O  O42  1  0.72092382  0.75246219  0.18144121  1
  O  O43  1  0.48129577  0.91397963  0.66549484  1
  O  O44  1  0.74271144  0.00897401  0.77630044  1
  O  O45  1  0.59979776  0.32236796  0.01042772  1
  O  O46  1  0.77907618  0.75246219  0.68144121  1
  O  O47  1  0.01870423  0.41397963  0.33450516  1
  O  O48  1  0.27907618  0.24753781  0.81855879  1
  O  O49  1  0.91706558  0.85806526  0.51722190  1
  O  O50  1  0.39489677  0.30379796  0.12212440  1
  O  O51  1  0.98129577  0.58602037  0.66549484  1
  O  O52  1  0.41751061  0.37661682  0.62117671  1
  O  O53  1  0.59979776  0.82236796  0.48957228  1
  O  O54  1  0.25728856  0.49102599  0.27630044  1
  O  O55  1  0.40020224  0.67763204  0.98957228  1
  O  O56  1  0.75728856  0.50897401  0.22369956  1
  O  O57  1  0.91751061  0.62338318  0.87882329  1
  O  O58  1  0.22092382  0.24753781  0.31855879  1
  O  O59  1  0.10510323  0.80379796  0.87787560  1
  O  O60  1  0.72092382  0.25246219  0.31855879  1
  O  O61  1  0.22092382  0.74753781  0.18144121  1
  O  O62  1  0.90020224  0.82236796  0.98957228  1
  O  O63  1  0.48129577  0.41397963  0.83450516  1
  O  O64  1  0.51870423  0.58602037  0.16549484  1
  O  O65  1  0.27357597  0.42278641  0.94707454  1
  O  O66  1  0.90020224  0.32236796  0.51042772  1
  O  O67  1  0.58248939  0.12338318  0.12117671  1
  O  O68  1  0.60510323  0.19620204  0.62212440  1
  O  O69  1  0.08293442  0.64193474  0.01722190  1
  O  O70  1  0.77357597  0.57721359  0.55292546  1
  O  O71  1  0.41751061  0.87661682  0.87882329  1
  O  O72  1  0.09979776  0.67763204  0.48957228  1
  O  O73  1  0.24271144  0.49102599  0.77630044  1
  O  O74  1  0.72642403  0.07721359  0.44707454  1
  O  O75  1  0.72642403  0.57721359  0.05292546  1
  O  O76  1  0.51870423  0.08602037  0.33450516  1
  O  O77  1  0.41706558  0.14193474  0.98277810  1
  O  O78  1  0.58248939  0.62338318  0.37882329  1
  O  O79  1  0.60510323  0.69620204  0.87787560  1
  O  O80  1  0.08248939  0.37661682  0.12117671  1
  O  O81  1  0.74271144  0.50897401  0.72369956  1
  O  O82  1  0.89489677  0.69620204  0.37787560  1
  O  O83  1  0.40020224  0.17763204  0.51042772  1
  O  O84  1  0.24271144  0.99102599  0.72369956  1
  O  O85  1  0.25728856  0.99102599  0.22369956  1
  O  O86  1  0.10510323  0.30379796  0.62212440  1
  O  O87  1  0.58293442  0.35806526  0.48277810  1
