# generated using pymatgen
data_K2NaInAs2
_symmetry_space_group_name_H-M   'P 1'
_cell_length_a   9.03928152
_cell_length_b   9.03928152
_cell_length_c   9.03928152
_cell_angle_alpha   136.03077450
_cell_angle_beta   135.89800290
_cell_angle_gamma   64.03545716
_symmetry_Int_Tables_number   1
_chemical_formula_structural   K2NaInAs2
_chemical_formula_sum   'K4 Na2 In2 As4'
_cell_volume   352.05929036
_cell_formula_units_Z   2
loop_
 _symmetry_equiv_pos_site_id
 _symmetry_equiv_pos_as_xyz
  1  'x, y, z'
loop_
 _atom_site_type_symbol
 _atom_site_label
 _atom_site_symmetry_multiplicity
 _atom_site_fract_x
 _atom_site_fract_y
 _atom_site_fract_z
 _atom_site_occupancy
  K  K0  1  0.67537533  0.41508579  0.73971046  1
  K  K1  1  0.82462467  0.06433512  0.23971046  1
  K  K2  1  0.17537533  0.93566488  0.76028954  1
  K  K3  1  0.32462467  0.58491421  0.26028954  1
  Na  Na4  1  0.75000000  -0.00000000  0.75000000  1
  Na  Na5  1  0.25000000  -0.00000000  0.25000000  1
  In  In6  1  0.25000000  0.50000000  0.75000000  1
  In  In7  1  0.75000000  0.50000000  0.25000000  1
  As  As8  1  0.39889399  0.18037370  0.78147972  1
  As  As9  1  0.60110601  0.81962630  0.21852028  1
  As  As10  1  0.10110601  0.38258573  0.28147972  1
  As  As11  1  0.89889399  0.61741427  0.71852028  1
