# generated using pymatgen
data_Na2LaTa3Si4(SO12)2
_symmetry_space_group_name_H-M   'P 1'
_cell_length_a   9.00079457
_cell_length_b   9.05726961
_cell_length_c   23.38889986
_cell_angle_alpha   90.72987713
_cell_angle_beta   90.15861959
_cell_angle_gamma   119.92692575
_symmetry_Int_Tables_number   1
_chemical_formula_structural   Na2LaTa3Si4(SO12)2
_chemical_formula_sum   'Na6 La3 Ta9 Si12 S6 O72'
_cell_volume   1652.26073525
_cell_formula_units_Z   3
loop_
 _symmetry_equiv_pos_site_id
 _symmetry_equiv_pos_as_xyz
  1  'x, y, z'
loop_
 _atom_site_type_symbol
 _atom_site_label
 _atom_site_symmetry_multiplicity
 _atom_site_fract_x
 _atom_site_fract_y
 _atom_site_fract_z
 _atom_site_occupancy
  Na  Na0  1  0.98628179  0.98101389  0.49999055  1
  Na  Na1  1  0.99934173  0.99372470  0.99917025  1
  Na  Na2  1  0.65361920  0.31562235  0.83427460  1
  Na  Na3  1  0.66844746  0.31780888  0.32700717  1
  Na  Na4  1  0.32014284  0.65147254  0.16095012  1
  Na  Na5  1  0.35415882  0.66382513  0.66898465  1
  La  La6  1  0.65297884  0.33027759  0.69525069  1
  La  La7  1  0.67319216  0.33719415  0.18443698  1
  La  La8  1  0.34722711  0.67779110  0.51157350  1
  Ta  Ta9  1  0.99936763  0.00301002  0.35135694  1
  Ta  Ta10  1  0.00434407  0.01367124  0.86054854  1
  Ta  Ta11  1  0.98575430  0.99411205  0.65107661  1
  Ta  Ta12  1  0.02537735  0.01448194  0.14239606  1
  Ta  Ta13  1  0.66272983  0.34707732  0.97616443  1
  Ta  Ta14  1  0.68044323  0.34492368  0.47737429  1
  Ta  Ta15  1  0.32512520  0.66167034  0.01434243  1
  Ta  Ta16  1  0.31908754  0.67865697  0.31074005  1
  Ta  Ta17  1  0.34121107  0.66340454  0.81602674  1
  Si  Si18  1  0.28438445  -0.00002267  0.25151146  1
  Si  Si19  1  0.01157048  0.29067359  0.25146216  1
  Si  Si20  1  0.27142221  0.28937230  0.75473711  1
  Si  Si21  1  0.70683178  0.98633396  0.75682698  1
  Si  Si22  1  0.67574617  0.63360476  0.58498546  1
  Si  Si23  1  0.96535992  0.63191066  0.08148101  1
  Si  Si24  1  0.37746470  0.34509345  0.08072841  1
  Si  Si25  1  0.62469710  0.67214989  0.91727234  1
  Si  Si26  1  0.03983133  0.38388388  0.91456125  1
  Si  Si27  1  0.33749806  0.95493292  0.91569684  1
  Si  Si28  1  0.63271358  0.96845226  0.41368335  1
  Si  Si29  1  0.03420624  0.67257605  0.41487962  1
  S  S30  1  0.70833330  0.72448141  0.25224616  1
  S  S31  1  0.01788523  0.73231105  0.75371722  1
  S  S32  1  0.95282847  0.31838995  0.58277116  1
  S  S33  1  0.36274454  0.04646404  0.58146011  1
  S  S34  1  0.66690041  0.02987737  0.07919274  1
  S  S35  1  0.33614587  0.36225425  0.41358141  1
  O  O36  1  0.16969736  0.99430352  0.30530684  1
  O  O37  1  0.81222197  0.81598776  0.30425646  1
  O  O38  1  0.00251969  0.17412123  0.30543839  1
  O  O39  1  0.16840367  0.16844517  0.80843811  1
  O  O40  1  0.00236745  0.82023955  0.80451290  1
  O  O41  1  0.82658675  0.99074446  0.80932790  1
  O  O42  1  0.80231076  0.96528103  0.69543425  1
  O  O43  1  0.16047863  0.18595812  0.69438956  1
  O  O44  1  0.02683263  0.82916031  0.69894040  1
  O  O45  1  0.78795316  0.82086563  0.19984662  1
  O  O46  1  0.02356074  0.18711706  0.19333637  1
  O  O47  1  0.16961652  0.97498554  0.19208063  1
  O  O48  1  0.87646483  0.33960426  0.63405299  1
  O  O49  1  0.46280863  0.11741534  0.63370884  1
  O  O50  1  0.66304014  0.52897099  0.64005207  1
  O  O51  1  0.91202948  0.52922657  0.13959109  1
  O  O52  1  0.62953744  0.08810382  0.13316054  1
  O  O53  1  0.47327286  0.37978469  0.14058160  1
  O  O54  1  0.47378453  0.30817028  0.02665694  1
  O  O55  1  0.83192094  0.52339008  0.02740883  1
  O  O56  1  0.69556974  0.14470206  0.03095666  1
  O  O57  1  0.45652840  0.15026906  0.53026330  1
  O  O58  1  0.68977667  0.52061303  0.52667508  1
  O  O59  1  0.84301534  0.30065556  0.52954601  1
  O  O60  1  0.53005766  0.69811582  0.97169069  1
  O  O61  1  0.16367923  0.47245598  0.97028079  1
  O  O62  1  0.30868077  0.83392882  0.97007233  1
  O  O63  1  0.58723121  0.86624638  0.47168422  1
  O  O64  1  0.29398856  0.41557724  0.46711922  1
  O  O65  1  0.13415870  0.71192408  0.47369216  1
  O  O66  1  0.13498681  0.63709789  0.36058702  1
  O  O67  1  0.49574366  0.85626600  0.36064785  1
  O  O68  1  0.36498019  0.47639735  0.36548090  1
  O  O69  1  0.13590705  0.50236200  0.85941970  1
  O  O70  1  0.36268136  0.85862455  0.85924880  1
  O  O71  1  0.50102644  0.63499154  0.86008335  1
  O  O72  1  0.99642852  0.82540679  0.40041763  1
  O  O73  1  0.82631234  0.00785425  0.39895850  1
  O  O74  1  0.19052067  0.18525242  0.40292511  1
  O  O75  1  0.02239937  0.19358064  0.90921622  1
  O  O76  1  0.16799856  0.97635595  0.90634454  1
  O  O77  1  0.81607396  0.83391660  0.90860023  1
  O  O78  1  0.95939219  0.15461518  0.58579516  1
  O  O79  1  0.19441628  0.04289929  0.58593371  1
  O  O80  1  0.85991805  0.82275373  0.59059752  1
  O  O81  1  0.97334373  0.82006224  0.09102337  1
  O  O82  1  0.82527997  0.01424655  0.08683070  1
  O  O83  1  0.18247359  0.16568116  0.08848161  1
  O  O84  1  0.70089565  0.15867520  0.75643500  1
  O  O85  1  0.45899362  0.31201467  0.75898247  1
  O  O86  1  0.86765427  0.56292330  0.75156562  1
  O  O87  1  0.69330146  0.55674533  0.25366487  1
  O  O88  1  0.84995389  0.31718430  0.25463528  1
  O  O89  1  0.46996383  0.16156115  0.25474361  1
  O  O90  1  0.63897725  0.49786220  0.92538010  1
  O  O91  1  0.84980112  0.35739775  0.92657096  1
  O  O92  1  0.50603517  0.14418470  0.92768555  1
  O  O93  1  0.64140492  0.15441514  0.42599723  1
  O  O94  1  0.49405904  0.34609968  0.42165161  1
  O  O95  1  0.84410006  0.49217912  0.42398704  1
  O  O96  1  0.34386186  0.50212458  0.06684633  1
  O  O97  1  0.16009926  0.67093332  0.06642890  1
  O  O98  1  0.51855385  0.85585120  0.06882035  1
  O  O99  1  0.32953146  0.87013994  0.57719642  1
  O  O100  1  0.51610737  0.66571960  0.58133743  1
  O  O101  1  0.12606840  0.46230303  0.57562461  1
  O  O102  1  0.29277219  0.81826256  0.25766296  1
  O  O103  1  0.53571272  0.70923593  0.25917276  1
  O  O104  1  0.19414881  0.47632813  0.26195313  1
  O  O105  1  0.27900741  0.47474044  0.75843741  1
  O  O106  1  0.17747519  0.72346019  0.75437741  1
  O  O107  1  0.51814996  0.81245343  0.75928985  1
