# generated using pymatgen
data_Na5Mg2Ta2SiP5O24
_symmetry_space_group_name_H-M   'P 1'
_cell_length_a   8.88877344
_cell_length_b   8.93918851
_cell_length_c   22.38801972
_cell_angle_alpha   89.84485964
_cell_angle_beta   90.02216012
_cell_angle_gamma   119.82843357
_symmetry_Int_Tables_number   1
_chemical_formula_structural   Na5Mg2Ta2SiP5O24
_chemical_formula_sum   'Na15 Mg6 Ta6 Si3 P15 O72'
_cell_volume   1543.23693694
_cell_formula_units_Z   3
loop_
 _symmetry_equiv_pos_site_id
 _symmetry_equiv_pos_as_xyz
  1  'x, y, z'
loop_
 _atom_site_type_symbol
 _atom_site_label
 _atom_site_symmetry_multiplicity
 _atom_site_fract_x
 _atom_site_fract_y
 _atom_site_fract_z
 _atom_site_occupancy
  Na  Na0  1  0.62274418  0.00235312  0.25110490  1
  Na  Na1  1  0.99848683  0.61771088  0.24854084  1
  Na  Na2  1  0.34863142  0.99978885  0.75140957  1
  Na  Na3  1  0.29782424  0.31247709  0.58560015  1
  Na  Na4  1  0.02417365  0.70819090  0.58774916  1
  Na  Na5  1  0.68058064  0.97751221  0.59070307  1
  Na  Na6  1  0.65279292  0.68754492  0.07782688  1
  Na  Na7  1  0.03961981  0.35147146  0.07918341  1
  Na  Na8  1  0.98071777  0.68023915  0.91205195  1
  Na  Na9  1  0.00681451  0.00110064  0.50573193  1
  Na  Na10  1  0.01122986  0.01169224  0.98767866  1
  Na  Na11  1  0.67008112  0.32815701  0.83227731  1
  Na  Na12  1  0.65524258  0.33534180  0.34008207  1
  Na  Na13  1  0.32652634  0.66586386  0.16365418  1
  Na  Na14  1  0.33885074  0.65996860  0.67043546  1
  Mg  Mg15  1  0.99828848  0.00997056  0.84999566  1
  Mg  Mg16  1  0.99558208  0.99848980  0.65293313  1
  Mg  Mg17  1  0.66405629  0.33495010  0.18713325  1
  Mg  Mg18  1  0.66242367  0.33117840  0.47859653  1
  Mg  Mg19  1  0.33096193  0.67261419  0.01819717  1
  Mg  Mg20  1  0.33375585  0.66034063  0.31403949  1
  Ta  Ta21  1  0.00326930  0.00258952  0.35806707  1
  Ta  Ta22  1  0.00373459  0.99817678  0.14457756  1
  Ta  Ta23  1  0.66733202  0.32846250  0.68642006  1
  Ta  Ta24  1  0.66404356  0.33185674  0.98004467  1
  Ta  Ta25  1  0.33494091  0.66991010  0.51544997  1
  Ta  Ta26  1  0.33903763  0.66718385  0.81501837  1
  Si  Si27  1  0.71317694  0.99929798  0.74901906  1
  Si  Si28  1  0.37019117  0.04109430  0.58020130  1
  Si  Si29  1  0.96290857  0.62337555  0.08705862  1
  P  P30  1  0.29212994  0.00328924  0.25153400  1
  P  P31  1  0.71025361  0.71152554  0.25120955  1
  P  P32  1  0.00257529  0.28998235  0.25027638  1
  P  P33  1  0.29197096  0.29380188  0.74892767  1
  P  P34  1  0.99728070  0.70372950  0.75172434  1
  P  P35  1  0.95762380  0.33439641  0.57996252  1
  P  P36  1  0.66750328  0.62167038  0.58008687  1
  P  P37  1  0.66223497  0.04141161  0.08714632  1
  P  P38  1  0.37894600  0.33318070  0.08520370  1
  P  P39  1  0.62672874  0.66752292  0.92103873  1
  P  P40  1  0.04420994  0.37124183  0.92038041  1
  P  P41  1  0.33230267  0.95871165  0.91771632  1
  P  P42  1  0.62419564  0.96228836  0.41176160  1
  P  P43  1  0.33846783  0.37821337  0.41385682  1
  P  P44  1  0.03728677  0.66151588  0.41219531  1
  O  O45  1  0.19180525  0.01899164  0.30606774  1
  O  O46  1  0.83363043  0.81438384  0.30458104  1
  O  O47  1  0.98459866  0.16881030  0.30421485  1
  O  O48  1  0.22083771  0.17334757  0.80170363  1
  O  O49  1  0.97177252  0.77937647  0.80843736  1
  O  O50  1  0.82307002  0.03509230  0.80771473  1
  O  O51  1  0.76956656  0.96386371  0.68537562  1
  O  O52  1  0.19459404  0.22847843  0.69013434  1
  O  O53  1  0.04185315  0.81555190  0.69528258  1
  O  O54  1  0.80803274  0.82887070  0.19370337  1
  O  O55  1  0.01904218  0.19462988  0.19311823  1
  O  O56  1  0.17149886  0.98327527  0.19562094  1
  O  O57  1  0.87330012  0.37050152  0.63707032  1
  O  O58  1  0.49721915  0.13046545  0.64151273  1
  O  O59  1  0.63315632  0.50464550  0.63703910  1
  O  O60  1  0.87488206  0.51198029  0.14567783  1
  O  O61  1  0.63981417  0.11897190  0.14389044  1
  O  O62  1  0.48922215  0.36002288  0.13901178  1
  O  O63  1  0.46291354  0.29924719  0.02799468  1
  O  O64  1  0.82740730  0.52838968  0.02689528  1
  O  O65  1  0.69410748  0.16544801  0.03162791  1
  O  O66  1  0.46268093  0.16569432  0.52637850  1
  O  O67  1  0.69984454  0.54142462  0.52671233  1
  O  O68  1  0.84554087  0.30798224  0.52677030  1
  O  O69  1  0.54366038  0.68390616  0.97732646  1
  O  O70  1  0.14047342  0.45582946  0.97750573  1
  O  O71  1  0.30613005  0.84543867  0.97076674  1
  O  O72  1  0.53182195  0.83852928  0.46934621  1
  O  O73  1  0.30569440  0.46313212  0.47273977  1
  O  O74  1  0.16088549  0.69211562  0.46984053  1
  O  O75  1  0.12515368  0.64817540  0.35659616  1
  O  O76  1  0.52094445  0.87524700  0.35649366  1
  O  O77  1  0.35121799  0.48476179  0.36044324  1
  O  O78  1  0.13358201  0.49777978  0.86562591  1
  O  O79  1  0.35926905  0.87119361  0.85970341  1
  O  O80  1  0.50691224  0.64481974  0.86541130  1
  O  O81  1  0.03070089  0.83699708  0.41050607  1
  O  O82  1  0.80648095  0.96763262  0.40995502  1
  O  O83  1  0.16334207  0.19393388  0.41026007  1
  O  O84  1  0.01972519  0.19398488  0.91216031  1
  O  O85  1  0.17329229  0.97892134  0.90853525  1
  O  O86  1  0.81210720  0.81334196  0.91270727  1
  O  O87  1  0.98753776  0.18183151  0.58918449  1
  O  O88  1  0.17517910  0.00554044  0.59017595  1
  O  O89  1  0.81845049  0.80593666  0.58829946  1
  O  O90  1  0.96563764  0.81416982  0.08965546  1
  O  O91  1  0.84244393  0.03941046  0.08953380  1
  O  O92  1  0.19164335  0.16778935  0.08980928  1
  O  O93  1  0.67402884  0.16837649  0.74229914  1
  O  O94  1  0.48353004  0.32412351  0.74044156  1
  O  O95  1  0.83753582  0.52009291  0.74124485  1
  O  O96  1  0.70505884  0.53992097  0.24875896  1
  O  O97  1  0.83201329  0.29391224  0.24958816  1
  O  O98  1  0.46957716  0.16192096  0.24782707  1
  O  O99  1  0.63529263  0.49178117  0.92215367  1
  O  O100  1  0.85815803  0.36383081  0.92367752  1
  O  O101  1  0.50299781  0.14005476  0.92297767  1
  O  O102  1  0.65362980  0.14039745  0.42168236  1
  O  O103  1  0.49026041  0.35051824  0.42136744  1
  O  O104  1  0.85977753  0.51128005  0.42269125  1
  O  O105  1  0.35245035  0.48755177  0.07586842  1
  O  O106  1  0.15038276  0.64495943  0.07826207  1
  O  O107  1  0.52134378  0.85689097  0.07740962  1
  O  O108  1  0.36063511  0.84628527  0.57534794  1
  O  O109  1  0.49330794  0.63278180  0.57495512  1
  O  O110  1  0.14260881  0.50518988  0.57597288  1
  O  O111  1  0.29747523  0.83466165  0.25230751  1
  O  O112  1  0.53883690  0.71000970  0.25241276  1
  O  O113  1  0.16056588  0.46859941  0.25224929  1
  O  O114  1  0.31590591  0.47812122  0.76106589  1
  O  O115  1  0.16185697  0.67813971  0.76014488  1
  O  O116  1  0.50503174  0.83268206  0.75970677  1
