# generated using pymatgen
data_Na3YHfSi(PO6)2
_symmetry_space_group_name_H-M   'P 1'
_cell_length_a   15.98192369
_cell_length_b   9.25320760
_cell_length_c   9.23584933
_cell_angle_alpha   90.00000000
_cell_angle_beta   124.93121184
_cell_angle_gamma   90.00000000
_symmetry_Int_Tables_number   1
_chemical_formula_structural   Na3YHfSi(PO6)2
_chemical_formula_sum   'Na12 Y4 Hf4 Si4 P8 O48'
_cell_volume   1119.76617094
_cell_formula_units_Z   4
loop_
 _symmetry_equiv_pos_site_id
 _symmetry_equiv_pos_as_xyz
  1  'x, y, z'
loop_
 _atom_site_type_symbol
 _atom_site_label
 _atom_site_symmetry_multiplicity
 _atom_site_fract_x
 _atom_site_fract_y
 _atom_site_fract_z
 _atom_site_occupancy
  Na  Na0  1  0.25411740  0.71749815  0.00388146  1
  Na  Na1  1  0.75411740  0.78250185  0.50388146  1
  Na  Na2  1  0.75411740  0.21749815  0.00388146  1
  Na  Na3  1  0.25411740  0.28250185  0.50388146  1
  Na  Na4  1  0.50915207  0.09286532  0.76441792  1
  Na  Na5  1  0.50915207  0.90713468  0.26441792  1
  Na  Na6  1  0.00915207  0.59286532  0.76441792  1
  Na  Na7  1  0.00915207  0.40713468  0.26441792  1
  Na  Na8  1  0.18249276  0.92669169  0.29744415  1
  Na  Na9  1  0.18249276  0.07330831  0.79744415  1
  Na  Na10  1  0.68249276  0.42669169  0.29744415  1
  Na  Na11  1  0.68249276  0.57330831  0.79744415  1
  Y  Y12  1  0.10479456  0.74647217  0.56325987  1
  Y  Y13  1  0.10479456  0.25352783  0.06325987  1
  Y  Y14  1  0.60479456  0.24647217  0.56325987  1
  Y  Y15  1  0.60479456  0.75352783  0.06325987  1
  Hf  Hf16  1  0.89682341  0.75693648  0.94039599  1
  Hf  Hf17  1  0.89682341  0.24306352  0.44039599  1
  Hf  Hf18  1  0.39682341  0.25693648  0.94039599  1
  Hf  Hf19  1  0.39682341  0.74306352  0.44039599  1
  Si  Si20  1  0.64854536  0.88965988  0.74048920  1
  Si  Si21  1  0.64854536  0.11034012  0.24048920  1
  Si  Si22  1  0.14854536  0.38965988  0.74048920  1
  Si  Si23  1  0.14854536  0.61034012  0.24048920  1
  P  P24  1  0.99426008  0.95579364  0.75451955  1
  P  P25  1  0.99426008  0.04420636  0.25451955  1
  P  P26  1  0.49426008  0.45579364  0.75451955  1
  P  P27  1  0.49426008  0.54420636  0.25451955  1
  P  P28  1  0.35280129  0.91005377  0.75178089  1
  P  P29  1  0.35280129  0.08994623  0.25178089  1
  P  P30  1  0.85280129  0.41005377  0.75178089  1
  P  P31  1  0.85280129  0.58994623  0.25178089  1
  O  O32  1  0.15504839  0.56527168  0.75063630  1
  O  O33  1  0.85303059  0.57976996  0.75234835  1
  O  O34  1  0.85303059  0.42023004  0.25234835  1
  O  O35  1  0.15504839  0.43472832  0.25063630  1
  O  O36  1  0.65504839  0.06527168  0.75063630  1
  O  O37  1  0.35303059  0.07976996  0.75234835  1
  O  O38  1  0.35303059  0.92023004  0.25234835  1
  O  O39  1  0.65504839  0.93472832  0.25063630  1
  O  O40  1  0.43656904  0.56254072  0.59355562  1
  O  O41  1  0.55813329  0.54093103  0.92570807  1
  O  O42  1  0.55813329  0.45906897  0.42570807  1
  O  O43  1  0.43656904  0.43745928  0.09355562  1
  O  O44  1  0.93656904  0.06254072  0.59355562  1
  O  O45  1  0.05813329  0.04093103  0.92570807  1
  O  O46  1  0.05813329  0.95906897  0.42570807  1
  O  O47  1  0.93656904  0.93745928  0.09355562  1
  O  O48  1  0.25835118  0.86090331  0.74460031  1
  O  O49  1  0.74523889  0.80933729  0.75401103  1
  O  O50  1  0.74523889  0.19066271  0.25401103  1
  O  O51  1  0.25835118  0.13909669  0.24460031  1
  O  O52  1  0.75835118  0.36090331  0.74460031  1
  O  O53  1  0.24523889  0.30933729  0.75401103  1
  O  O54  1  0.24523889  0.69066271  0.25401103  1
  O  O55  1  0.75835118  0.63909669  0.24460031  1
  O  O56  1  0.35199235  0.86493604  0.58527281  1
  O  O57  1  0.64681191  0.83307212  0.90317313  1
  O  O58  1  0.64681191  0.16692788  0.40317313  1
  O  O59  1  0.35199235  0.13506396  0.08527281  1
  O  O60  1  0.85199235  0.36493604  0.58527281  1
  O  O61  1  0.14681191  0.33307212  0.90317313  1
  O  O62  1  0.14681191  0.66692788  0.40317313  1
  O  O63  1  0.85199235  0.63506396  0.08527281  1
  O  O64  1  0.44972083  0.85339543  0.92023651  1
  O  O65  1  0.53950784  0.83003107  0.55830615  1
  O  O66  1  0.53950784  0.16996893  0.05830615  1
  O  O67  1  0.44972083  0.14660457  0.42023651  1
  O  O68  1  0.94972083  0.35339543  0.92023651  1
  O  O69  1  0.03950784  0.33003107  0.55830615  1
  O  O70  1  0.03950784  0.66996893  0.05830615  1
  O  O71  1  0.94972083  0.64660457  0.42023651  1
  O  O72  1  0.06827030  0.85754843  0.74288950  1
  O  O73  1  0.91433846  0.85884181  0.75307319  1
  O  O74  1  0.91433846  0.14115819  0.25307319  1
  O  O75  1  0.06827030  0.14245157  0.24288950  1
  O  O76  1  0.56827030  0.35754843  0.74288950  1
  O  O77  1  0.41433846  0.35884181  0.75307319  1
  O  O78  1  0.41433846  0.64115819  0.25307319  1
  O  O79  1  0.56827030  0.64245157  0.24288950  1
