# generated using pymatgen
data_Na5Y3Si3Sn(SO8)3
_symmetry_space_group_name_H-M   'P 1'
_cell_length_a   9.32236959
_cell_length_b   9.29228828
_cell_length_c   23.51799663
_cell_angle_alpha   90.92730677
_cell_angle_beta   89.83429451
_cell_angle_gamma   119.99551468
_symmetry_Int_Tables_number   1
_chemical_formula_structural   Na5Y3Si3Sn(SO8)3
_chemical_formula_sum   'Na15 Y9 Si9 Sn3 S9 O72'
_cell_volume   1764.14738561
_cell_formula_units_Z   3
loop_
 _symmetry_equiv_pos_site_id
 _symmetry_equiv_pos_as_xyz
  1  'x, y, z'
loop_
 _atom_site_type_symbol
 _atom_site_label
 _atom_site_symmetry_multiplicity
 _atom_site_fract_x
 _atom_site_fract_y
 _atom_site_fract_z
 _atom_site_occupancy
  Na  Na0  1  0.65353064  0.01302163  0.25938270  1
  Na  Na1  1  -0.00001128  0.62018496  0.24777607  1
  Na  Na2  1  0.62851476  0.64046430  0.74643113  1
  Na  Na3  1  0.36910081  0.01212369  0.76036725  1
  Na  Na4  1  0.66693562  0.94813487  0.58476743  1
  Na  Na5  1  0.97215959  0.68275833  0.92399981  1
  Na  Na6  1  0.68926780  0.01090770  0.91123746  1
  Na  Na7  1  0.96016383  0.30680125  0.40883651  1
  Na  Na8  1  0.70570557  0.68312052  0.42854978  1
  Na  Na9  1  0.99651410  0.96554945  0.50190707  1
  Na  Na10  1  0.00610689  0.97496511  0.99801886  1
  Na  Na11  1  0.64151180  0.32048926  0.83301809  1
  Na  Na12  1  0.67244074  0.32017342  0.33751493  1
  Na  Na13  1  0.28838689  0.62459013  0.16049073  1
  Na  Na14  1  0.33692248  0.63333273  0.67064805  1
  Y  Y15  1  0.99819360  0.00331820  0.35267984  1
  Y  Y16  1  0.00750875  0.01171453  0.85021505  1
  Y  Y17  1  0.99658081  0.00233110  0.65245840  1
  Y  Y18  1  0.00119061  0.00150146  0.14320332  1
  Y  Y19  1  0.66397990  0.33898033  0.68658132  1
  Y  Y20  1  0.67698759  0.33936968  0.18151599  1
  Y  Y21  1  0.33298659  0.67212553  0.01857347  1
  Y  Y22  1  0.33458745  0.67134049  0.51694143  1
  Y  Y23  1  0.32201060  0.66454160  0.32076930  1
  Si  Si24  1  0.00083219  0.30076700  0.25122900  1
  Si  Si25  1  0.29686655  0.30639700  0.75141673  1
  Si  Si26  1  0.69331230  0.99761334  0.75243853  1
  Si  Si27  1  0.66877161  0.63397172  0.58285725  1
  Si  Si28  1  0.96239260  0.62843772  0.08181951  1
  Si  Si29  1  0.63250747  0.66315860  0.91755422  1
  Si  Si30  1  0.33866034  0.96457281  0.91727443  1
  Si  Si31  1  0.63220334  0.97421128  0.41835591  1
  Si  Si32  1  0.02459580  0.66205218  0.41803841  1
  Sn  Sn33  1  0.65759511  0.34212022  0.98027785  1
  Sn  Sn34  1  0.67509014  0.34215053  0.48362466  1
  Sn  Sn35  1  0.35969513  0.67448956  0.81872798  1
  S  S36  1  0.29704849  0.99924110  0.24938298  1
  S  S37  1  0.70161998  0.70483353  0.24991925  1
  S  S38  1  0.01037501  0.70497447  0.75229090  1
  S  S39  1  0.95786172  0.33014981  0.58143885  1
  S  S40  1  0.37665726  0.04740375  0.58087304  1
  S  S41  1  0.66924304  0.04249877  0.08080657  1
  S  S42  1  0.37323542  0.33112606  0.08169166  1
  S  S43  1  0.03657102  0.37886269  0.91634033  1
  S  S44  1  0.34184704  0.36999971  0.41777347  1
  O  O45  1  0.21782359  0.01712916  0.30148260  1
  O  O46  1  0.80289118  0.77920378  0.30239825  1
  O  O47  1  0.97855223  0.19951308  0.31051893  1
  O  O48  1  0.21954893  0.17894189  0.80361477  1
  O  O49  1  0.97981273  0.77792587  0.80426366  1
  O  O50  1  0.79599299  0.01287104  0.80999572  1
  O  O51  1  0.77565675  0.96168360  0.69548172  1
  O  O52  1  0.19067694  0.22067801  0.69348600  1
  O  O53  1  0.03587431  0.81166416  0.70257347  1
  O  O54  1  0.78913772  0.80722869  0.20050202  1
  O  O55  1  0.00718288  0.19206872  0.19744764  1
  O  O56  1  0.19311471  0.97486794  0.19898323  1
  O  O57  1  0.87244986  0.34751600  0.63103320  1
  O  O58  1  0.47374729  0.12417921  0.63323693  1
  O  O59  1  0.66081475  0.53236569  0.63901985  1
  O  O60  1  0.87448624  0.53310834  0.14109580  1
  O  O61  1  0.65152289  0.12056966  0.13393576  1
  O  O62  1  0.47005268  0.34333032  0.13284466  1
  O  O63  1  0.45118991  0.30598585  0.02915502  1
  O  O64  1  0.84255577  0.52427090  0.02420943  1
  O  O65  1  0.68071498  0.14157205  0.02993397  1
  O  O66  1  0.46396193  0.14962837  0.53000455  1
  O  O67  1  0.67940960  0.53526439  0.52252603  1
  O  O68  1  0.85637585  0.30547877  0.52773496  1
  O  O69  1  0.53619677  0.68767247  0.96984395  1
  O  O70  1  0.13224130  0.45266349  0.96836378  1
  O  O71  1  0.30373003  0.84089974  0.96883975  1
  O  O72  1  0.54869070  0.84955261  0.47140676  1
  O  O73  1  0.31491821  0.44676824  0.46891635  1
  O  O74  1  0.13785626  0.67403821  0.47137149  1
  O  O75  1  0.09704167  0.62344962  0.35922479  1
  O  O76  1  0.53140767  0.89623106  0.35823850  1
  O  O77  1  0.36933751  0.47578021  0.36753453  1
  O  O78  1  0.11822853  0.48332524  0.86568569  1
  O  O79  1  0.37490437  0.88236850  0.85749563  1
  O  O80  1  0.52828347  0.63442393  0.85682766  1
  O  O81  1  0.99287988  0.81906415  0.41370340  1
  O  O82  1  0.82274002  0.00531492  0.41430807  1
  O  O83  1  0.19445360  0.20481868  0.41071024  1
  O  O84  1  0.00772657  0.20783055  0.91092909  1
  O  O85  1  0.17613780  0.98309409  0.91099828  1
  O  O86  1  0.81821807  0.82791477  0.91378877  1
  O  O87  1  0.96644530  0.17489766  0.58428137  1
  O  O88  1  0.20971298  0.02741518  0.58343540  1
  O  O89  1  0.83388295  0.82166143  0.58119485  1
  O  O90  1  0.97649598  0.81141776  0.08113248  1
  O  O91  1  0.82112897  0.03000791  0.08314520  1
  O  O92  1  0.20618310  0.18239534  0.08406440  1
  O  O93  1  0.65850794  0.15250590  0.74653008  1
  O  O94  1  0.49038512  0.34418318  0.74691631  1
  O  O95  1  0.86260674  0.53922780  0.74458019  1
  O  O96  1  0.67949301  0.53538043  0.24492306  1
  O  O97  1  0.82703345  0.31448159  0.24885137  1
  O  O98  1  0.46572508  0.14523744  0.24495459  1
  O  O99  1  0.65946933  0.49745795  0.92053121  1
  O  O100  1  0.86770309  0.36502358  0.91977035  1
  O  O101  1  0.52225480  0.14514657  0.92582225  1
  O  O102  1  0.65113281  0.16245854  0.42808538  1
  O  O103  1  0.49389274  0.35575880  0.42278255  1
  O  O104  1  0.83487826  0.49002477  0.42241867  1
  O  O105  1  0.36173465  0.48278701  0.07855254  1
  O  O106  1  0.14128995  0.63760027  0.08018404  1
  O  O107  1  0.52162682  0.87383818  0.07862154  1
  O  O108  1  0.36675191  0.88310478  0.57620938  1
  O  O109  1  0.50421377  0.65668706  0.58045853  1
  O  O110  1  0.12381039  0.47667882  0.57712449  1
  O  O111  1  0.31421380  0.84703469  0.25303181  1
  O  O112  1  0.53996313  0.69791051  0.25481633  1
  O  O113  1  0.16080804  0.49183399  0.25140008  1
  O  O114  1  0.30920555  0.49194346  0.75984336  1
  O  O115  1  0.16308604  0.69348194  0.75824680  1
  O  O116  1  0.50426646  0.82339033  0.75441200  1
