# generated using pymatgen
data_Na4ScNb3Si5SO24
_symmetry_space_group_name_H-M   'P 1'
_cell_length_a   9.02375882
_cell_length_b   9.01283038
_cell_length_c   22.86882961
_cell_angle_alpha   90.15828928
_cell_angle_beta   90.10832275
_cell_angle_gamma   119.91864916
_symmetry_Int_Tables_number   1
_chemical_formula_structural   Na4ScNb3Si5SO24
_chemical_formula_sum   'Na12 Sc3 Nb9 Si15 S3 O72'
_cell_volume   1612.03300541
_cell_formula_units_Z   3
loop_
 _symmetry_equiv_pos_site_id
 _symmetry_equiv_pos_as_xyz
  1  'x, y, z'
loop_
 _atom_site_type_symbol
 _atom_site_label
 _atom_site_symmetry_multiplicity
 _atom_site_fract_x
 _atom_site_fract_y
 _atom_site_fract_z
 _atom_site_occupancy
  Na  Na0  1  0.63472605  0.62723857  0.74706901  1
  Na  Na1  1  0.99302792  0.36397509  0.74941622  1
  Na  Na2  1  0.37429114  0.00705886  0.74744263  1
  Na  Na3  1  0.66217314  0.68974704  0.08391920  1
  Na  Na4  1  0.02692455  0.33956071  0.08350753  1
  Na  Na5  1  0.32602333  0.02904587  0.41680772  1
  Na  Na6  1  0.99221879  0.99647532  0.49628735  1
  Na  Na7  1  0.00592073  0.99714438  0.99563299  1
  Na  Na8  1  0.66698728  0.33304017  0.83399172  1
  Na  Na9  1  0.68297229  0.33765265  0.33026335  1
  Na  Na10  1  0.33112437  0.67152034  0.16763897  1
  Na  Na11  1  0.33869747  0.67053573  0.66299684  1
  Sc  Sc12  1  0.99066170  0.00676156  0.35682385  1
  Sc  Sc13  1  0.65599673  0.32994962  0.68474076  1
  Sc  Sc14  1  0.67545545  0.33283101  0.18359164  1
  Nb  Nb15  1  0.99907900  0.00112156  0.85600932  1
  Nb  Nb16  1  0.00186243  0.99046647  0.64558831  1
  Nb  Nb17  1  0.00789233  0.01322200  0.14420287  1
  Nb  Nb18  1  0.66660546  0.33439424  0.97803443  1
  Nb  Nb19  1  0.65998306  0.34092663  0.47735222  1
  Nb  Nb20  1  0.33247302  0.67062832  0.01850358  1
  Nb  Nb21  1  0.34542453  0.67840802  0.51874142  1
  Nb  Nb22  1  0.32233232  0.65440958  0.31650496  1
  Nb  Nb23  1  0.33463064  0.66668129  0.81525859  1
  Si  Si24  1  0.99677891  0.29475516  0.25220224  1
  Si  Si25  1  0.28563134  0.28675814  0.75026755  1
  Si  Si26  1  0.00027870  0.70947122  0.75151061  1
  Si  Si27  1  0.71303824  0.00031926  0.74980216  1
  Si  Si28  1  0.37594722  0.04291088  0.58381701  1
  Si  Si29  1  0.66449057  0.62466577  0.58511023  1
  Si  Si30  1  0.95746138  0.62415927  0.08370016  1
  Si  Si31  1  0.66000236  0.04339164  0.08358965  1
  Si  Si32  1  0.38355846  0.33501102  0.08391237  1
  Si  Si33  1  0.62500478  0.66636409  0.91730100  1
  Si  Si34  1  0.04176047  0.37663330  0.91697875  1
  Si  Si35  1  0.33393159  0.95957491  0.91633195  1
  Si  Si36  1  0.62575101  0.95827912  0.41503492  1
  Si  Si37  1  0.32875531  0.37708659  0.41840380  1
  Si  Si38  1  0.04043294  0.66369776  0.41841474  1
  S  S39  1  0.29038667  -0.00023139  0.25078669  1
  S  S40  1  0.70900148  0.71058054  0.25004670  1
  S  S41  1  0.95829742  0.33370072  0.58301355  1
  O  O42  1  0.20935960  0.01751409  0.30399658  1
  O  O43  1  0.81521966  0.79226624  0.30183932  1
  O  O44  1  0.98049546  0.17514659  0.30591095  1
  O  O45  1  0.19119044  0.16314777  0.80639062  1
  O  O46  1  0.96998384  0.80637775  0.80633392  1
  O  O47  1  0.83568783  0.02779206  0.80653795  1
  O  O48  1  0.80436102  0.96354010  0.69351276  1
  O  O49  1  0.15843810  0.19668719  0.69360342  1
  O  O50  1  0.03763144  0.83683573  0.69394040  1
  O  O51  1  0.79268954  0.81598325  0.19567914  1
  O  O52  1  0.02540574  0.19577739  0.19221253  1
  O  O53  1  0.17817140  0.97470975  0.19758835  1
  O  O54  1  0.88393366  0.35984622  0.63769299  1
  O  O55  1  0.48492306  0.11668412  0.64328740  1
  O  O56  1  0.63778997  0.51767263  0.64414103  1
  O  O57  1  0.88071899  0.50213373  0.13924926  1
  O  O58  1  0.62954535  0.12184475  0.14142770  1
  O  O59  1  0.50046832  0.37858775  0.14071899  1
  O  O60  1  0.47001298  0.30190503  0.02596567  1
  O  O61  1  0.83098916  0.53579267  0.02655855  1
  O  O62  1  0.70700947  0.17028909  0.02695157  1
  O  O63  1  0.47244395  0.16326629  0.52592494  1
  O  O64  1  0.69341130  0.52695788  0.52797127  1
  O  O65  1  0.84840959  0.30872436  0.53139005  1
  O  O66  1  0.53179135  0.69276297  0.97455039  1
  O  O67  1  0.16179793  0.46788731  0.97448063  1
  O  O68  1  0.30700141  0.83430697  0.97212300  1
  O  O69  1  0.52614031  0.83735044  0.47246471  1
  O  O70  1  0.30740150  0.47530187  0.47407947  1
  O  O71  1  0.16845193  0.69240875  0.47315358  1
  O  O72  1  0.13529708  0.63130765  0.36015089  1
  O  O73  1  0.49261767  0.86337734  0.35944304  1
  O  O74  1  0.36436716  0.50139873  0.36042800  1
  O  O75  1  0.13612645  0.49675441  0.85865571  1
  O  O76  1  0.36063644  0.86537239  0.85805462  1
  O  O77  1  0.50416736  0.63949279  0.85880819  1
  O  O78  1  0.03518382  0.83652582  0.40944933  1
  O  O79  1  0.80791010  0.97125530  0.41353890  1
  O  O80  1  0.17654742  0.18390661  0.41200836  1
  O  O81  1  0.02617167  0.18963918  0.90965139  1
  O  O82  1  0.16276961  0.97421511  0.90978339  1
  O  O83  1  0.81128118  0.83703842  0.90974594  1
  O  O84  1  0.97409878  0.17701642  0.58793838  1
  O  O85  1  0.18534703  0.02769560  0.58969243  1
  O  O86  1  0.83623808  0.81765078  0.58961040  1
  O  O87  1  0.97110484  0.81256988  0.09313892  1
  O  O88  1  0.83496928  0.01961481  0.09234234  1
  O  O89  1  0.18584148  0.16470397  0.09087708  1
  O  O90  1  0.69448428  0.16900399  0.74593320  1
  O  O91  1  0.47471981  0.30876389  0.74707195  1
  O  O92  1  0.83605645  0.52141641  0.74520169  1
  O  O93  1  0.68589921  0.53760662  0.24406744  1
  O  O94  1  0.83293952  0.31909536  0.24618303  1
  O  O95  1  0.45916207  0.15307802  0.24395951  1
  O  O96  1  0.64034381  0.49488689  0.92335755  1
  O  O97  1  0.85526489  0.36041381  0.92372943  1
  O  O98  1  0.50539259  0.14446615  0.92393186  1
  O  O99  1  0.63048063  0.14132983  0.42525025  1
  O  O100  1  0.50521406  0.36212686  0.42364246  1
  O  O101  1  0.85590356  0.48865431  0.42590376  1
  O  O102  1  0.34835453  0.49658105  0.07401092  1
  O  O103  1  0.14688358  0.64368180  0.07360665  1
  O  O104  1  0.50485443  0.84550799  0.07461897  1
  O  O105  1  0.34589991  0.84829253  0.57458769  1
  O  O106  1  0.49504951  0.64418286  0.57489110  1
  O  O107  1  0.13061217  0.48687908  0.57668832  1
  O  O108  1  0.30572455  0.84135473  0.25340460  1
  O  O109  1  0.53785227  0.70021340  0.25433557  1
  O  O110  1  0.17929167  0.48614934  0.25551474  1
  O  O111  1  0.30227803  0.47758001  0.75672114  1
  O  O112  1  0.17657692  0.69800661  0.75642587  1
  O  O113  1  0.52318618  0.82570251  0.75675131  1
