# generated using pymatgen
data_NaZr2Ta2SiP5O24
_symmetry_space_group_name_H-M   'P 1'
_cell_length_a   8.87678397
_cell_length_b   8.87703040
_cell_length_c   23.00700207
_cell_angle_alpha   90.04303074
_cell_angle_beta   89.88960122
_cell_angle_gamma   119.99214211
_symmetry_Int_Tables_number   1
_chemical_formula_structural   NaZr2Ta2SiP5O24
_chemical_formula_sum   'Na3 Zr6 Ta6 Si3 P15 O72'
_cell_volume   1570.17328680
_cell_formula_units_Z   3
loop_
 _symmetry_equiv_pos_site_id
 _symmetry_equiv_pos_as_xyz
  1  'x, y, z'
loop_
 _atom_site_type_symbol
 _atom_site_label
 _atom_site_symmetry_multiplicity
 _atom_site_fract_x
 _atom_site_fract_y
 _atom_site_fract_z
 _atom_site_occupancy
  Na  Na0  1  0.99972488  0.99688622  0.99820789  1
  Na  Na1  1  0.66598087  0.33324413  0.83125700  1
  Na  Na2  1  0.66706900  0.33333245  0.33647001  1
  Zr  Zr3  1  0.00014079  0.99765490  0.85753122  1
  Zr  Zr4  1  0.00173795  0.00284973  0.14507562  1
  Zr  Zr5  1  0.66612571  0.33366473  0.68605880  1
  Zr  Zr6  1  0.66758467  0.33384487  0.48113953  1
  Zr  Zr7  1  0.33270888  0.66655999  0.52096172  1
  Zr  Zr8  1  0.33110194  0.66459741  0.30952798  1
  Ta  Ta9  1  0.99869298  0.00301342  0.35561986  1
  Ta  Ta10  1  0.00053368  0.00007497  0.64545866  1
  Ta  Ta11  1  0.66761198  0.33380612  0.18896881  1
  Ta  Ta12  1  0.66521841  0.33359198  0.97595864  1
  Ta  Ta13  1  0.33552564  0.67072105  0.02396184  1
  Ta  Ta14  1  0.33843108  0.67011539  0.80985657  1
  Si  Si15  1  0.99589167  0.28478838  0.24981857  1
  Si  Si16  1  0.61429209  0.66560296  0.91734297  1
  Si  Si17  1  0.33532816  0.94961754  0.91751410  1
  P  P18  1  0.28798315  0.00577676  0.25009560  1
  P  P19  1  0.71803341  0.71256313  0.25023029  1
  P  P20  1  0.28467259  0.28872858  0.75064488  1
  P  P21  1  0.00312597  0.71368387  0.75049544  1
  P  P22  1  0.71259323  0.99822245  0.75061187  1
  P  P23  1  0.95704907  0.32934329  0.58420990  1
  P  P24  1  0.37278624  0.04294653  0.58407949  1
  P  P25  1  0.67033704  0.62781863  0.58410453  1
  P  P26  1  0.95045474  0.61370459  0.08201341  1
  P  P27  1  0.66423090  0.04964132  0.08218270  1
  P  P28  1  0.38452125  0.33548317  0.08208316  1
  P  P29  1  0.05253639  0.38918129  0.91781289  1
  P  P30  1  0.62471431  0.95669806  0.41547695  1
  P  P31  1  0.33274427  0.37494798  0.41544796  1
  P  P32  1  0.04311731  0.66930191  0.41542601  1
  O  O33  1  0.20109937  0.03591366  0.30357173  1
  O  O34  1  0.83612369  0.79585395  0.30377045  1
  O  O35  1  0.96393675  0.15769260  0.30595083  1
  O  O36  1  0.20273345  0.17649185  0.80459651  1
  O  O37  1  0.97257557  0.79672643  0.80445610  1
  O  O38  1  0.82306346  0.02711248  0.80468407  1
  O  O39  1  0.80281680  0.97411818  0.69650557  1
  O  O40  1  0.17078784  0.19655313  0.69646137  1
  O  O41  1  0.02701249  0.82865321  0.69645670  1
  O  O42  1  0.80115550  0.81867127  0.19509736  1
  O  O43  1  0.02111399  0.19643817  0.19198851  1
  O  O44  1  0.17974165  0.97669712  0.19504530  1
  O  O45  1  0.87102132  0.35823822  0.63775301  1
  O  O46  1  0.48712925  0.12877101  0.63762419  1
  O  O47  1  0.64122645  0.51292597  0.63761112  1
  O  O48  1  0.85955409  0.50187973  0.13703948  1
  O  O49  1  0.64038053  0.13840706  0.13699674  1
  O  O50  1  0.49575173  0.35918802  0.13670577  1
  O  O51  1  0.47819962  0.31282652  0.02807975  1
  O  O52  1  0.83565001  0.52175584  0.02841111  1
  O  O53  1  0.68842576  0.16386083  0.02849944  1
  O  O54  1  0.45387364  0.16013713  0.53068854  1
  O  O55  1  0.70694743  0.54684505  0.53074737  1
  O  O56  1  0.84010943  0.29320236  0.53085753  1
  O  O57  1  0.51638698  0.68426907  0.97486792  1
  O  O58  1  0.16160161  0.47522867  0.97261137  1
  O  O59  1  0.30968444  0.83093644  0.97512910  1
  O  O60  1  0.54283821  0.84650482  0.47003710  1
  O  O61  1  0.30162233  0.45487010  0.46994935  1
  O  O62  1  0.15346396  0.69814553  0.47003381  1
  O  O63  1  0.12787222  0.63889856  0.36212643  1
  O  O64  1  0.51300747  0.87450406  0.36182534  1
  O  O65  1  0.36276544  0.48892253  0.36207304  1
  O  O66  1  0.13318291  0.49903248  0.86251919  1
  O  O67  1  0.36146449  0.85712530  0.85965182  1
  O  O68  1  0.49450972  0.63358903  0.85932730  1
  O  O69  1  0.02480094  0.83203314  0.40384962  1
  O  O70  1  0.80681162  0.97184133  0.40539232  1
  O  O71  1  0.16909148  0.19170325  0.40450755  1
  O  O72  1  0.02927603  0.20699170  0.91247286  1
  O  O73  1  0.17022438  0.97810840  0.91327967  1
  O  O74  1  0.80424162  0.83596078  0.91332822  1
  O  O75  1  0.97454739  0.16555657  0.59700698  1
  O  O76  1  0.19142129  0.02552362  0.59685580  1
  O  O77  1  0.83420930  0.80868563  0.59705297  1
  O  O78  1  0.97063174  0.79477417  0.08661973  1
  O  O79  1  0.82358870  0.02649969  0.08665595  1
  O  O80  1  0.20485921  0.17118673  0.08552508  1
  O  O81  1  0.68517531  0.15481938  0.74334792  1
  O  O82  1  0.46848944  0.31461488  0.74325461  1
  O  O83  1  0.84373031  0.53097631  0.74345221  1
  O  O84  1  0.69763717  0.52689568  0.24079681  1
  O  O85  1  0.81821611  0.30081282  0.24030180  1
  O  O86  1  0.47005423  0.17533753  0.24055172  1
  O  O87  1  0.63639676  0.49248868  0.92603710  1
  O  O88  1  0.86869848  0.37076147  0.92625409  1
  O  O89  1  0.51329647  0.14091094  0.92614369  1
  O  O90  1  0.65343467  0.14255864  0.42281275  1
  O  O91  1  0.49133631  0.34878899  0.42251710  1
  O  O92  1  0.85846706  0.50944971  0.42256431  1
  O  O93  1  0.36582219  0.49721471  0.07313266  1
  O  O94  1  0.12853591  0.62570859  0.07394734  1
  O  O95  1  0.49823163  0.86927489  0.07451493  1
  O  O96  1  0.34874300  0.86274447  0.57471954  1
  O  O97  1  0.51396884  0.65130897  0.57458273  1
  O  O98  1  0.13701566  0.48555113  0.57472706  1
  O  O99  1  0.31845088  0.85443346  0.25942514  1
  O  O100  1  0.53900512  0.68943955  0.25939662  1
  O  O101  1  0.15779535  0.47453275  0.25924700  1
  O  O102  1  0.29728459  0.46814297  0.75903788  1
  O  O103  1  0.16730012  0.69731696  0.75945508  1
  O  O104  1  0.53111487  0.83072335  0.75850396  1
