# generated using pymatgen
data_HfSiGe(SO6)2
_symmetry_space_group_name_H-M   'P 1'
_cell_length_a   8.67201619
_cell_length_b   8.69768105
_cell_length_c   22.49531920
_cell_angle_alpha   90.29404529
_cell_angle_beta   89.99796759
_cell_angle_gamma   120.20849087
_symmetry_Int_Tables_number   1
_chemical_formula_structural   HfSiGe(SO6)2
_chemical_formula_sum   'Hf6 Si6 Ge6 S12 O72'
_cell_volume   1466.29886954
_cell_formula_units_Z   6
loop_
 _symmetry_equiv_pos_site_id
 _symmetry_equiv_pos_as_xyz
  1  'x, y, z'
loop_
 _atom_site_type_symbol
 _atom_site_label
 _atom_site_symmetry_multiplicity
 _atom_site_fract_x
 _atom_site_fract_y
 _atom_site_fract_z
 _atom_site_occupancy
  Hf  Hf0  1  0.02337356  0.01008171  0.85314864  1
  Hf  Hf1  1  0.66524041  0.33697783  0.19607732  1
  Hf  Hf2  1  0.64970844  0.32492670  0.97918641  1
  Hf  Hf3  1  0.32915225  0.66719867  0.02738442  1
  Hf  Hf4  1  0.33354698  0.66288586  0.52467309  1
  Hf  Hf5  1  0.33420587  0.66746702  0.80372772  1
  Si  Si6  1  0.02080102  0.29912561  0.25489946  1
  Si  Si7  1  0.30370848  0.28390201  0.74227002  1
  Si  Si8  1  0.93659266  0.32267122  0.58449331  1
  Si  Si9  1  0.36295291  0.31909285  0.08868574  1
  Si  Si10  1  0.33462372  0.94957479  0.91603533  1
  Si  Si11  1  0.61842466  0.95015588  0.41368689  1
  Ge  Ge12  1  0.98654434  0.01047236  0.35610542  1
  Ge  Ge13  1  0.00266148  0.02401200  0.64225266  1
  Ge  Ge14  1  0.01883085  0.02823134  0.15057120  1
  Ge  Ge15  1  0.67094759  0.33978808  0.68444572  1
  Ge  Ge16  1  0.67121949  0.30902361  0.47448282  1
  Ge  Ge17  1  0.32892522  0.67199274  0.31427184  1
  S  S18  1  0.26966481  0.98524095  0.25454660  1
  S  S19  1  0.71986176  0.73295929  0.25199538  1
  S  S20  1  0.98779790  0.71006261  0.74306644  1
  S  S21  1  0.72009349  0.01021132  0.74426482  1
  S  S22  1  0.37440720  0.05454426  0.58236811  1
  S  S23  1  0.68250427  0.62366037  0.58386921  1
  S  S24  1  0.95030740  0.63728362  0.08900505  1
  S  S25  1  0.68452346  0.04928701  0.08766505  1
  S  S26  1  0.62101296  0.66954380  0.91543378  1
  S  S27  1  0.04542680  0.38197645  0.91584871  1
  S  S28  1  0.33873004  0.36928843  0.41666938  1
  S  S29  1  0.03546961  0.66746698  0.41516631  1
  O  O30  1  0.19231556  0.01938115  0.30813173  1
  O  O31  1  0.83716804  0.80596435  0.30547819  1
  O  O32  1  0.97780492  0.16982317  0.31191939  1
  O  O33  1  0.21775993  0.16242601  0.80141657  1
  O  O34  1  0.95800979  0.78857399  0.79735323  1
  O  O35  1  0.82694068  0.03561221  0.79789757  1
  O  O36  1  0.79493770  0.96537820  0.69137158  1
  O  O37  1  0.16638360  0.19188205  0.68623751  1
  O  O38  1  0.01927135  0.82089481  0.69019485  1
  O  O39  1  0.80056807  0.84178461  0.19788045  1
  O  O40  1  0.05957850  0.21217247  0.19569825  1
  O  O41  1  0.15870575  0.94879933  0.20002954  1
  O  O42  1  0.85265177  0.36396758  0.64305073  1
  O  O43  1  0.48865073  0.13136760  0.63554255  1
  O  O44  1  0.63688287  0.50888405  0.63767188  1
  O  O45  1  0.86821585  0.51708151  0.14025336  1
  O  O46  1  0.65479478  0.13271467  0.14015641  1
  O  O47  1  0.48912906  0.34921293  0.14576166  1
  O  O48  1  0.45925936  0.29271568  0.02989756  1
  O  O49  1  0.84814813  0.55637383  0.03407846  1
  O  O50  1  0.71935176  0.15994247  0.03406908  1
  O  O51  1  0.44836159  0.16977564  0.52887578  1
  O  O52  1  0.71342401  0.54510466  0.53053000  1
  O  O53  1  0.81326665  0.28625082  0.52457372  1
  O  O54  1  0.53755164  0.69030358  0.96963383  1
  O  O55  1  0.15908208  0.45697376  0.96915117  1
  O  O56  1  0.31208645  0.83499121  0.97484623  1
  O  O57  1  0.52270551  0.82833044  0.47069592  1
  O  O58  1  0.29544486  0.44559482  0.46894644  1
  O  O59  1  0.14841617  0.69652146  0.46790016  1
  O  O60  1  0.10857314  0.62081676  0.36185191  1
  O  O61  1  0.48661050  0.85643082  0.35518609  1
  O  O62  1  0.37442157  0.48083254  0.36352919  1
  O  O63  1  0.12946642  0.48473954  0.86170689  1
  O  O64  1  0.35364680  0.85429563  0.85685094  1
  O  O65  1  0.50588521  0.62942922  0.86235128  1
  O  O66  1  0.02745493  0.83133700  0.40502081  1
  O  O67  1  0.81266667  0.96467515  0.40632096  1
  O  O68  1  0.18387336  0.18486078  0.40837331  1
  O  O69  1  0.01346041  0.19973175  0.90776542  1
  O  O70  1  0.15791810  0.96767266  0.91069631  1
  O  O71  1  0.79081306  0.83294670  0.90556271  1
  O  O72  1  0.94729088  0.14105720  0.59090366  1
  O  O73  1  0.19175226  0.02430041  0.59017694  1
  O  O74  1  0.84407823  0.80005502  0.59423946  1
  O  O75  1  0.95648559  0.80659753  0.09982918  1
  O  O76  1  0.83829676  0.02312116  0.09642092  1
  O  O77  1  0.17572263  0.13228871  0.09453963  1
  O  O78  1  0.70513147  0.16904876  0.73672925  1
  O  O79  1  0.49669153  0.30018747  0.73226892  1
  O  O80  1  0.82611626  0.53178663  0.73851420  1
  O  O81  1  0.70051290  0.55412233  0.24535024  1
  O  O82  1  0.84948287  0.32126601  0.24348408  1
  O  O83  1  0.44953874  0.14300469  0.24712626  1
  O  O84  1  0.65219500  0.51856830  0.92358689  1
  O  O85  1  0.87660123  0.37721288  0.92535166  1
  O  O86  1  0.51297989  0.14380007  0.92219392  1
  O  O87  1  0.63369705  0.14584504  0.42049330  1
  O  O88  1  0.50358186  0.35958197  0.42831819  1
  O  O89  1  0.85120958  0.51322196  0.42431087  1
  O  O90  1  0.33721304  0.48784830  0.07807082  1
  O  O91  1  0.13197023  0.66275479  0.08273466  1
  O  O92  1  0.52444884  0.87247125  0.07953519  1
  O  O93  1  0.35999968  0.87874335  0.57355842  1
  O  O94  1  0.52314682  0.64460972  0.57603082  1
  O  O95  1  0.13153013  0.49573673  0.57412204  1
  O  O96  1  0.28568745  0.82395071  0.26039218  1
  O  O97  1  0.54420184  0.71561342  0.25950180  1
  O  O98  1  0.19975034  0.49237403  0.26723151  1
  O  O99  1  0.32275542  0.47611232  0.75316362  1
  O  O100  1  0.14493082  0.68762806  0.75072997  1
  O  O101  1  0.54008370  0.85141819  0.75033490  1
