# generated using pymatgen
data_NaScAlP(SO6)2
_symmetry_space_group_name_H-M   'P 1'
_cell_length_a   8.56849072
_cell_length_b   8.56396982
_cell_length_c   22.50068043
_cell_angle_alpha   90.06012620
_cell_angle_beta   89.90068551
_cell_angle_gamma   119.94615462
_symmetry_Int_Tables_number   1
_chemical_formula_structural   NaScAlP(SO6)2
_chemical_formula_sum   'Na6 Sc6 Al6 P6 S12 O72'
_cell_volume   1430.67327430
_cell_formula_units_Z   6
loop_
 _symmetry_equiv_pos_site_id
 _symmetry_equiv_pos_as_xyz
  1  'x, y, z'
loop_
 _atom_site_type_symbol
 _atom_site_label
 _atom_site_symmetry_multiplicity
 _atom_site_fract_x
 _atom_site_fract_y
 _atom_site_fract_z
 _atom_site_occupancy
  Na  Na0  1  0.99080241  0.99371482  0.50024880  1
  Na  Na1  1  0.00364096  0.99319552  0.99995157  1
  Na  Na2  1  0.66166434  0.32130803  0.83197119  1
  Na  Na3  1  0.66031772  0.32275873  0.33519044  1
  Na  Na4  1  0.32583198  0.67013320  0.16619212  1
  Na  Na5  1  0.34326435  0.66947614  0.66480130  1
  Sc  Sc6  1  0.99867721  0.00208740  0.85193545  1
  Sc  Sc7  1  0.00595653  0.99229958  0.14674941  1
  Sc  Sc8  1  0.66802885  0.33293965  0.18627437  1
  Sc  Sc9  1  0.66713176  0.33380159  0.98061370  1
  Sc  Sc10  1  0.33905078  0.68230901  0.31738225  1
  Sc  Sc11  1  0.34335445  0.68238439  0.81051137  1
  Al  Al12  1  0.99970855  0.00205841  0.35384638  1
  Al  Al13  1  0.98176241  0.98683377  0.64589481  1
  Al  Al14  1  0.66460566  0.33287701  0.68242974  1
  Al  Al15  1  0.66896912  0.33463468  0.48372880  1
  Al  Al16  1  0.32366529  0.67231163  0.01826085  1
  Al  Al17  1  0.35738056  0.67400445  0.51865515  1
  P  P18  1  0.28577501  0.00271092  0.25423792  1
  P  P19  1  0.71599430  0.01321566  0.74474145  1
  P  P20  1  0.66665050  0.61618627  0.58307630  1
  P  P21  1  0.96756938  0.62457113  0.08153697  1
  P  P22  1  0.33155536  0.95418133  0.91876913  1
  P  P23  1  0.63346092  0.96765505  0.42001678  1
  S  S24  1  0.71416739  0.71396553  0.25299160  1
  S  S25  1  0.00139959  0.28587312  0.25274845  1
  S  S26  1  0.29169330  0.28409416  0.74456859  1
  S  S27  1  0.99068938  0.70533827  0.74511503  1
  S  S28  1  0.95720279  0.33548292  0.58294017  1
  S  S29  1  0.37698750  0.04460229  0.58317749  1
  S  S30  1  0.65952989  0.03047643  0.08163324  1
  S  S31  1  0.37284323  0.34424090  0.08127560  1
  S  S32  1  0.61683163  0.66718475  0.91913634  1
  S  S33  1  0.05063541  0.38262709  0.91810777  1
  S  S34  1  0.33417151  0.37304316  0.41937257  1
  S  S35  1  0.03914620  0.66549060  0.42049371  1
  O  O36  1  0.18946150  0.02382215  0.30891238  1
  O  O37  1  0.82442206  0.80210366  0.30602365  1
  O  O38  1  0.97488314  0.17368456  0.30597307  1
  O  O39  1  0.21919985  0.18093480  0.80046054  1
  O  O40  1  0.96302872  0.78031687  0.80068543  1
  O  O41  1  0.82274004  0.04140034  0.80288451  1
  O  O42  1  0.80860638  0.98033374  0.69167427  1
  O  O43  1  0.17549862  0.19379662  0.69285776  1
  O  O44  1  0.02435781  0.82493786  0.69353510  1
  O  O45  1  0.78825402  0.81777099  0.19806300  1
  O  O46  1  0.02355577  0.20758223  0.19761600  1
  O  O47  1  0.17977008  0.97525773  0.19657021  1
  O  O48  1  0.87484044  0.36544154  0.63653473  1
  O  O49  1  0.49096635  0.12413798  0.63657888  1
  O  O50  1  0.63542591  0.49865353  0.63865073  1
  O  O51  1  0.88151662  0.51163212  0.13820482  1
  O  O52  1  0.62708871  0.10884747  0.13588330  1
  O  O53  1  0.48021494  0.37097453  0.13576352  1
  O  O54  1  0.45237355  0.30770219  0.02922909  1
  O  O55  1  0.84924945  0.53858925  0.02719990  1
  O  O56  1  0.68968760  0.14311246  0.02929131  1
  O  O57  1  0.45907672  0.15722326  0.52981498  1
  O  O58  1  0.69677911  0.52853089  0.52760305  1
  O  O59  1  0.84202560  0.30042636  0.52984449  1
  O  O60  1  0.52801409  0.68765956  0.97231713  1
  O  O61  1  0.16066539  0.46782616  0.97158075  1
  O  O62  1  0.30851168  0.83774678  0.97348015  1
  O  O63  1  0.54061125  0.84001210  0.47334248  1
  O  O64  1  0.30097307  0.45916042  0.47169944  1
  O  O65  1  0.15734482  0.69535675  0.47222753  1
  O  O66  1  0.11107012  0.62896381  0.36565862  1
  O  O67  1  0.51741301  0.88999504  0.36373239  1
  O  O68  1  0.36677224  0.48077824  0.36501581  1
  O  O69  1  0.12989964  0.48469793  0.86324090  1
  O  O70  1  0.35931203  0.87197155  0.86152423  1
  O  O71  1  0.51359778  0.63953824  0.86398424  1
  O  O72  1  0.02215776  0.82928559  0.41185677  1
  O  O73  1  0.82034675  0.98313718  0.40859145  1
  O  O74  1  0.17067541  0.19208719  0.41184485  1
  O  O75  1  0.03142618  0.20102553  0.91486500  1
  O  O76  1  0.16132642  0.97114435  0.91324341  1
  O  O77  1  0.79652855  0.83096723  0.91482358  1
  O  O78  1  0.97893179  0.17361706  0.59076150  1
  O  O79  1  0.19601672  0.02677581  0.59182986  1
  O  O80  1  0.83588915  0.80768621  0.59155614  1
  O  O81  1  0.98625966  0.81269483  0.08642102  1
  O  O82  1  0.82179008  0.01490873  0.08828278  1
  O  O83  1  0.19096324  0.18545135  0.08737498  1
  O  O84  1  0.69281373  0.17981963  0.73549297  1
  O  O85  1  0.47437694  0.30560107  0.73765249  1
  O  O86  1  0.82859813  0.52529137  0.73749934  1
  O  O87  1  0.69998634  0.53489857  0.24833586  1
  O  O88  1  0.83781334  0.30375312  0.24876749  1
  O  O89  1  0.47387813  0.17180554  0.24841199  1
  O  O90  1  0.63962679  0.50780027  0.92287537  1
  O  O91  1  0.86958104  0.36219573  0.92249030  1
  O  O92  1  0.49937649  0.14215880  0.92302683  1
  O  O93  1  0.65229072  0.15524944  0.43123664  1
  O  O94  1  0.49537713  0.35296656  0.42838275  1
  O  O95  1  0.85689736  0.50462215  0.42857558  1
  O  O96  1  0.35954420  0.50815368  0.07291411  1
  O  O97  1  0.15455582  0.64171467  0.07432943  1
  O  O98  1  0.49902462  0.84959392  0.07405807  1
  O  O99  1  0.35570119  0.86128120  0.57482392  1
  O  O100  1  0.49695324  0.63824059  0.57428390  1
  O  O101  1  0.13754239  0.49862064  0.57418374  1
  O  O102  1  0.30522812  0.83291121  0.25741128  1
  O  O103  1  0.53089099  0.68867581  0.25783550  1
  O  O104  1  0.16270702  0.46582978  0.25848295  1
  O  O105  1  0.30801589  0.46381196  0.75077305  1
  O  O106  1  0.15143846  0.68406356  0.75036765  1
  O  O107  1  0.52814593  0.84117237  0.75010221  1
