# generated using pymatgen
data_MgMn2(FeO2)4
_symmetry_space_group_name_H-M   'P 1'
_cell_length_a   6.50088884
_cell_length_b   6.47213784
_cell_length_c   5.93627163
_cell_angle_alpha   63.97857470
_cell_angle_beta   63.39507978
_cell_angle_gamma   55.65918677
_symmetry_Int_Tables_number   1
_chemical_formula_structural   MgMn2(FeO2)4
_chemical_formula_sum   'Mg1 Mn2 Fe4 O8'
_cell_volume   178.44168209
_cell_formula_units_Z   1
loop_
 _symmetry_equiv_pos_site_id
 _symmetry_equiv_pos_as_xyz
  1  'x, y, z'
loop_
 _atom_site_type_symbol
 _atom_site_label
 _atom_site_symmetry_multiplicity
 _atom_site_fract_x
 _atom_site_fract_y
 _atom_site_fract_z
 _atom_site_occupancy
  Mg  Mg0  1  0.79024900  0.76804000  0.21127100  1
  Mn  Mn1  1  0.10967400  0.62600400  0.63382600  1
  Mn  Mn2  1  0.61870200  0.10356700  0.64027500  1
  Fe  Fe3  1  0.04333900  0.04451100  0.95166300  1
  Fe  Fe4  1  0.23703800  0.23973900  0.26675200  1
  Fe  Fe5  1  0.55791200  0.57717000  0.15238500  1
  Fe  Fe6  1  0.57459800  0.57477600  0.68719200  1
  O  O7  1  0.35420100  0.36597200  0.40715000  1
  O  O8  1  0.41696400  0.86214000  0.36395300  1
  O  O9  1  0.34800300  0.37245100  0.89236700  1
  O  O10  1  0.86192700  0.40226600  0.37943700  1
  O  O11  1  0.40837200  0.86745500  0.85896200  1
  O  O12  1  0.85336900  0.40810100  0.87215000  1
  O  O13  1  0.92075600  0.89864900  0.33119000  1
  O  O14  1  0.91531300  0.89957900  0.84101000  1
