# generated using pymatgen
data_Na24Nb2Zn10Si9(SO8)9
_symmetry_space_group_name_H-M   'P 1'
_cell_length_a   9.22641383
_cell_length_b   9.20076371
_cell_length_c   22.13484426
_cell_angle_alpha   90.59397960
_cell_angle_beta   89.67976068
_cell_angle_gamma   119.83491468
_symmetry_Int_Tables_number   1
_chemical_formula_structural   Na24Nb2Zn10Si9(SO8)9
_chemical_formula_sum   'Na24 Nb2 Zn10 Si9 S9 O72'
_cell_volume   1629.89853794
_cell_formula_units_Z   1
loop_
 _symmetry_equiv_pos_site_id
 _symmetry_equiv_pos_as_xyz
  1  'x, y, z'
loop_
 _atom_site_type_symbol
 _atom_site_label
 _atom_site_symmetry_multiplicity
 _atom_site_fract_x
 _atom_site_fract_y
 _atom_site_fract_z
 _atom_site_occupancy
  Na  Na0  1  0.64159024  0.00944083  0.24485626  1
  Na  Na1  1  0.37546223  0.35180827  0.25257156  1
  Na  Na2  1  0.99128707  0.64491154  0.24884184  1
  Na  Na3  1  0.64476359  0.63323729  0.74985569  1
  Na  Na4  1  0.98257354  0.34702031  0.75038479  1
  Na  Na5  1  0.36898088  0.02085756  0.75113127  1
  Na  Na6  1  0.28939072  0.32747720  0.58795082  1
  Na  Na7  1  0.03281901  0.70717688  0.59305472  1
  Na  Na8  1  0.67293698  0.96384754  0.58895906  1
  Na  Na9  1  0.29413482  0.96054112  0.07935552  1
  Na  Na10  1  0.66794018  0.70521992  0.08437813  1
  Na  Na11  1  0.03907916  0.33500245  0.07394720  1
  Na  Na12  1  0.97216444  0.67654396  0.90756700  1
  Na  Na13  1  0.71465538  0.04680095  0.90488723  1
  Na  Na14  1  0.31434846  0.27671125  0.90899489  1
  Na  Na15  1  0.96686243  0.28614152  0.42145434  1
  Na  Na16  1  0.33651478  0.05074553  0.41160793  1
  Na  Na17  1  0.70154134  0.67353688  0.41538688  1
  Na  Na18  1  0.99986008  0.01008702  0.49743963  1
  Na  Na19  1  0.00848996  0.00823466  0.98878497  1
  Na  Na20  1  0.66683666  0.32710578  0.82916544  1
  Na  Na21  1  0.65108770  0.32813470  0.33449361  1
  Na  Na22  1  0.33668025  0.67443775  0.16209099  1
  Na  Na23  1  0.33675291  0.66566983  0.66784967  1
  Nb  Nb24  1  0.35345310  0.67874768  0.31602844  1
  Nb  Nb25  1  0.32142657  0.66980423  0.81240069  1
  Zn  Zn26  1  0.00376330  0.99952331  0.34877934  1
  Zn  Zn27  1  0.01112514  0.01183178  0.84256485  1
  Zn  Zn28  1  0.00073363  0.00406589  0.67665554  1
  Zn  Zn29  1  0.99551048  0.97572188  0.16416901  1
  Zn  Zn30  1  0.66871798  0.33151813  0.69227380  1
  Zn  Zn31  1  0.65041720  0.33067133  0.18536105  1
  Zn  Zn32  1  0.67014078  0.31989127  0.97404062  1
  Zn  Zn33  1  0.64925052  0.32198081  0.47954882  1
  Zn  Zn34  1  0.31719756  0.66389928  0.99595151  1
  Zn  Zn35  1  0.34940583  0.66483143  0.50773893  1
  Si  Si36  1  0.29674824  0.99908866  0.25004298  1
  Si  Si37  1  0.70893078  0.70440091  0.25020510  1
  Si  Si38  1  0.29925844  0.29962474  0.74917715  1
  Si  Si39  1  0.99563469  0.70700669  0.74996125  1
  Si  Si40  1  0.70353693  0.99668942  0.75036599  1
  Si  Si41  1  0.03651544  0.36657660  0.92037747  1
  Si  Si42  1  0.33176169  0.96612373  0.92169582  1
  Si  Si43  1  0.64007841  0.97147689  0.42165388  1
  Si  Si44  1  0.32813894  0.36624863  0.41981890  1
  S  S45  1  0.00260574  0.29855605  0.24928771  1
  S  S46  1  0.96072281  0.33783409  0.58040584  1
  S  S47  1  0.36842801  0.03370160  0.58109338  1
  S  S48  1  0.66712319  0.62555345  0.58110891  1
  S  S49  1  0.95586325  0.62397567  0.08496726  1
  S  S50  1  0.67212068  0.04043447  0.08497280  1
  S  S51  1  0.37075218  0.33530123  0.08408911  1
  S  S52  1  0.62339671  0.66458767  0.91997688  1
  S  S53  1  0.04357695  0.66562842  0.41849457  1
  O  O54  1  0.21547497  0.03621204  0.30860835  1
  O  O55  1  0.82139602  0.79003254  0.30921366  1
  O  O56  1  0.97650604  0.19879852  0.30341803  1
  O  O57  1  0.22338009  0.18283198  0.80781424  1
  O  O58  1  0.96190989  0.78768819  0.80940618  1
  O  O59  1  0.82038416  0.03213957  0.80874104  1
  O  O60  1  0.77102823  0.94947627  0.68850088  1
  O  O61  1  0.17996352  0.23215331  0.68882794  1
  O  O62  1  0.04676778  0.82230854  0.68930977  1
  O  O63  1  0.76947606  0.82217826  0.19004638  1
  O  O64  1  0.03313772  0.22299584  0.19427915  1
  O  O65  1  0.18540719  0.95740051  0.18836296  1
  O  O66  1  0.87653519  0.35226979  0.63529822  1
  O  O67  1  0.47086831  0.11572005  0.63511132  1
  O  O68  1  0.65161460  0.52692697  0.63522015  1
  O  O69  1  0.87419822  0.52508502  0.14053774  1
  O  O70  1  0.65159244  0.12259986  0.14063720  1
  O  O71  1  0.46858413  0.35308651  0.14024626  1
  O  O72  1  0.45448220  0.31476181  0.03017514  1
  O  O73  1  0.85547728  0.54018533  0.03055894  1
  O  O74  1  0.68810257  0.14020327  0.03078125  1
  O  O75  1  0.44986362  0.13280702  0.52540337  1
  O  O76  1  0.68260688  0.54119972  0.52496284  1
  O  O77  1  0.86162661  0.32246716  0.52485223  1
  O  O78  1  0.54578884  0.68739197  0.97634636  1
  O  O79  1  0.15034768  0.44139117  0.98153330  1
  O  O80  1  0.31329741  0.86308135  0.98375233  1
  O  O81  1  0.54954465  0.85492175  0.47896271  1
  O  O82  1  0.28870137  0.44564539  0.47883452  1
  O  O83  1  0.14436638  0.68707529  0.47258247  1
  O  O84  1  0.13035251  0.64658216  0.36259731  1
  O  O85  1  0.50741104  0.86279156  0.36101752  1
  O  O86  1  0.34771800  0.49824648  0.36113478  1
  O  O87  1  0.14909264  0.49930109  0.86414357  1
  O  O88  1  0.35529651  0.85673925  0.86424240  1
  O  O89  1  0.51749928  0.64461804  0.86619648  1
  O  O90  1  0.02515969  0.81549387  0.41360663  1
  O  O91  1  0.81898928  0.98239968  0.41159735  1
  O  O92  1  0.16658863  0.18101591  0.41125872  1
  O  O93  1  0.00917987  0.17951130  0.91338300  1
  O  O94  1  0.16147627  0.97393348  0.91491743  1
  O  O95  1  0.79073559  0.81402138  0.91560724  1
  O  O96  1  0.97961074  0.18557216  0.58118437  1
  O  O97  1  0.19987646  0.01909247  0.58340640  1
  O  O98  1  0.81856197  0.79572221  0.58200552  1
  O  O99  1  0.97178787  0.79509774  0.08758847  1
  O  O100  1  0.82798610  0.02783614  0.08777920  1
  O  O101  1  0.19940928  0.18443334  0.08785234  1
  O  O102  1  0.67073458  0.15463360  0.74432036  1
  O  O103  1  0.48833214  0.33162264  0.74176789  1
  O  O104  1  0.84421595  0.51508876  0.74377962  1
  O  O105  1  0.68058842  0.51459867  0.24430065  1
  O  O106  1  0.85574887  0.32310597  0.24266193  1
  O  O107  1  0.49070915  0.15364627  0.24487373  1
  O  O108  1  0.63575876  0.50976722  0.92246800  1
  O  O109  1  0.86190653  0.37332881  0.91905652  1
  O  O110  1  0.50302441  0.14976481  0.91832874  1
  O  O111  1  0.64811695  0.15253920  0.41779992  1
  O  O112  1  0.50722672  0.36879298  0.41721039  1
  O  O113  1  0.87708310  0.51129172  0.41917003  1
  O  O114  1  0.35809500  0.49128668  0.08261079  1
  O  O115  1  0.12672588  0.64301284  0.08326774  1
  O  O116  1  0.52261232  0.86845153  0.08273440  1
  O  O117  1  0.34820275  0.86079744  0.57755871  1
  O  O118  1  0.51226198  0.64227225  0.57993652  1
  O  O119  1  0.13026812  0.49351459  0.57922745  1
  O  O120  1  0.30578338  0.81869096  0.25863418  1
  O  O121  1  0.51096363  0.67942072  0.25766046  1
  O  O122  1  0.15659588  0.47214282  0.25496427  1
  O  O123  1  0.31718084  0.48965547  0.75993530  1
  O  O124  1  0.17143421  0.68941911  0.75763269  1
  O  O125  1  0.51418071  0.82372503  0.76003906  1
