# generated using pymatgen
data_Na10TaAl7(PO4)12
_symmetry_space_group_name_H-M   'P 1'
_cell_length_a   17.13344681
_cell_length_b   8.57243686
_cell_length_c   21.66064980
_cell_angle_alpha   89.99656641
_cell_angle_beta   89.97147519
_cell_angle_gamma   120.01757808
_symmetry_Int_Tables_number   1
_chemical_formula_structural   Na10TaAl7(PO4)12
_chemical_formula_sum   'Na30 Ta3 Al21 P36 O144'
_cell_volume   2754.69876314
_cell_formula_units_Z   3
loop_
 _symmetry_equiv_pos_site_id
 _symmetry_equiv_pos_as_xyz
  1  'x, y, z'
loop_
 _atom_site_type_symbol
 _atom_site_label
 _atom_site_symmetry_multiplicity
 _atom_site_fract_x
 _atom_site_fract_y
 _atom_site_fract_z
 _atom_site_occupancy
  Na  Na0  1  0.31842018  0.99916914  0.25131216  1
  Na  Na1  1  0.68193829  0.36209132  0.25139030  1
  Na  Na2  1  0.31733646  0.63449303  0.75142181  1
  Na  Na3  1  0.81734772  0.63456413  0.75129015  1
  Na  Na4  1  0.15052231  0.33375169  0.58276337  1
  Na  Na5  1  0.65062287  0.33356855  0.58241557  1
  Na  Na6  1  0.01591475  0.69807710  0.58281413  1
  Na  Na7  1  0.51611298  0.69850121  0.58294779  1
  Na  Na8  1  0.33317012  0.96858807  0.58250415  1
  Na  Na9  1  0.83302128  0.96829650  0.58268722  1
  Na  Na10  1  0.15080314  0.96806869  0.08268004  1
  Na  Na11  1  0.65105628  0.96846434  0.08356930  1
  Na  Na12  1  0.33308399  0.69763130  0.08347243  1
  Na  Na13  1  0.83326630  0.69822313  0.08282603  1
  Na  Na14  1  0.01570282  0.33376210  0.08303374  1
  Na  Na15  1  0.51572069  0.33367412  0.08333313  1
  Na  Na16  1  0.66542023  0.03305984  0.41465891  1
  Na  Na17  1  0.35049118  0.66902121  0.41447295  1
  Na  Na18  1  0.00020856  0.99916833  0.49964511  1
  Na  Na19  1  0.49965415  0.00917403  0.49647047  1
  Na  Na20  1  0.00010952  0.00004921  0.00071593  1
  Na  Na21  1  0.50009912  0.99978699  0.00085014  1
  Na  Na22  1  0.33377120  0.32555301  0.83565857  1
  Na  Na23  1  0.83375681  0.32556221  0.83563023  1
  Na  Na24  1  0.33451118  0.33458702  0.33280010  1
  Na  Na25  1  0.84040794  0.33922256  0.33282466  1
  Na  Na26  1  0.16356901  0.65730525  0.17016186  1
  Na  Na27  1  0.66563991  0.67498679  0.17013423  1
  Na  Na28  1  0.16274951  0.66730883  0.67019380  1
  Na  Na29  1  0.66295681  0.66725346  0.67020551  1
  Ta  Ta30  1  0.00006150  0.99873570  0.35424544  1
  Ta  Ta31  1  0.00050507  0.00163955  0.85682977  1
  Ta  Ta32  1  0.50053969  0.00175732  0.85682311  1
  Al  Al33  1  0.49930791  0.00531311  0.35163429  1
  Al  Al34  1  0.00057157  0.00058612  0.64976179  1
  Al  Al35  1  0.50070201  0.00058253  0.64966129  1
  Al  Al36  1  0.00013327  0.00178625  0.14948046  1
  Al  Al37  1  0.50028456  0.99841192  0.15114378  1
  Al  Al38  1  0.33380380  0.32885302  0.68694361  1
  Al  Al39  1  0.83400413  0.32953268  0.68682926  1
  Al  Al40  1  0.33443173  0.34197047  0.18711016  1
  Al  Al41  1  0.83487077  0.32912190  0.18721234  1
  Al  Al42  1  0.33323735  0.33354490  0.97871935  1
  Al  Al43  1  0.83360180  0.33346544  0.97875971  1
  Al  Al44  1  0.33311640  0.32547249  0.47878148  1
  Al  Al45  1  0.83570704  0.33941722  0.47864796  1
  Al  Al46  1  0.16626806  0.66648736  0.01752704  1
  Al  Al47  1  0.66634969  0.66677723  0.01746486  1
  Al  Al48  1  0.16685861  0.66907909  0.51651602  1
  Al  Al49  1  0.66550842  0.66282893  0.51602373  1
  Al  Al50  1  0.16486370  0.66183077  0.31350402  1
  Al  Al51  1  0.66489234  0.66920031  0.31391157  1
  Al  Al52  1  0.16409400  0.66753033  0.81493603  1
  Al  Al53  1  0.66409627  0.66751065  0.81493987  1
  P  P54  1  0.14695728  0.99989796  0.24667784  1
  P  P55  1  0.64462543  0.99633509  0.25032700  1
  P  P56  1  0.35553826  0.70750713  0.25086229  1
  P  P57  1  0.85294536  0.70602030  0.24671634  1
  P  P58  1  0.00049264  0.29620108  0.24718449  1
  P  P59  1  0.49969463  0.29189491  0.24972572  1
  P  P60  1  0.14645103  0.29330260  0.74712011  1
  P  P61  1  0.64650071  0.29335985  0.74713170  1
  P  P62  1  0.00214126  0.70613543  0.74730049  1
  P  P63  1  0.50209225  0.70611815  0.74727209  1
  P  P64  1  0.35274298  0.00280260  0.74762859  1
  P  P65  1  0.85274964  0.00289808  0.74761494  1
  P  P66  1  0.47674168  0.33323848  0.58339899  1
  P  P67  1  0.97664325  0.33347072  0.58311615  1
  P  P68  1  0.18992955  0.04680717  0.58321560  1
  P  P69  1  0.68963337  0.04569798  0.58297234  1
  P  P70  1  0.33332916  0.62121648  0.58320259  1
  P  P71  1  0.83326097  0.62094727  0.58364328  1
  P  P72  1  0.47653040  0.61986088  0.08303850  1
  P  P73  1  0.97638579  0.61958306  0.08328651  1
  P  P74  1  0.33336904  0.04652658  0.08361440  1
  P  P75  1  0.83334523  0.04675328  0.08297378  1
  P  P76  1  0.19010116  0.33331244  0.08306095  1
  P  P77  1  0.68988465  0.33330348  0.08348864  1
  P  P78  1  0.30520478  0.65530587  0.91748859  1
  P  P79  1  0.80521033  0.65512133  0.91749392  1
  P  P80  1  0.02242344  0.39002036  0.91810143  1
  P  P81  1  0.52240575  0.39005293  0.91816411  1
  P  P82  1  0.17254838  0.95504335  0.91802606  1
  P  P83  1  0.67255415  0.95515664  0.91800992  1
  P  P84  1  0.31066655  0.95850550  0.41585724  1
  P  P85  1  0.80770358  0.95376042  0.41844937  1
  P  P86  1  0.16911679  0.38450134  0.41845845  1
  P  P87  1  0.66694858  0.37964487  0.41602356  1
  P  P88  1  0.02286025  0.65714166  0.41769989  1
  P  P89  1  0.52132124  0.66179011  0.41673527  1
  O  O90  1  0.10210196  0.03146486  0.30474149  1
  O  O91  1  0.60240477  0.03598339  0.30750576  1
  O  O92  1  0.41378835  0.79590052  0.30873269  1
  O  O93  1  0.91357536  0.79585496  0.30479047  1
  O  O94  1  0.48086141  0.16584889  0.30525303  1
  O  O95  1  0.98490656  0.17180752  0.30502568  1
  O  O96  1  0.10169113  0.17149071  0.80457328  1
  O  O97  1  0.60165582  0.17151228  0.80458629  1
  O  O98  1  0.48243807  0.79534906  0.80404742  1
  O  O99  1  0.98248209  0.79539872  0.80407887  1
  O  O100  1  0.41390123  0.03178515  0.80494833  1
  O  O101  1  0.91392155  0.03191249  0.80493355  1
  O  O102  1  0.39589743  0.96348690  0.69089886  1
  O  O103  1  0.89594103  0.96360163  0.69092390  1
  O  O104  1  0.08731668  0.20623412  0.68993129  1
  O  O105  1  0.58733275  0.20633516  0.68994497  1
  O  O106  1  0.01616822  0.82427761  0.68983373  1
  O  O107  1  0.51611701  0.82427351  0.68980007  1
  O  O108  1  0.39678179  0.83022576  0.19262390  1
  O  O109  1  0.89730195  0.82589584  0.19012909  1
  O  O110  1  0.01606532  0.20753074  0.19009901  1
  O  O111  1  0.51860077  0.20893329  0.19118055  1
  O  O112  1  0.08703505  0.96887846  0.19010320  1
  O  O113  1  0.58713574  0.96782113  0.19144889  1
  O  O114  1  0.43559200  0.37306993  0.64014522  1
  O  O115  1  0.93539371  0.37282775  0.64002565  1
  O  O116  1  0.25071702  0.12906785  0.64004563  1
  O  O117  1  0.75123507  0.13129221  0.63916355  1
  O  O118  1  0.31487296  0.50213298  0.64103668  1
  O  O119  1  0.81454878  0.50347029  0.64203464  1
  O  O120  1  0.43555105  0.49836959  0.13990306  1
  O  O121  1  0.93504928  0.49806242  0.14014118  1
  O  O122  1  0.31439470  0.12602419  0.14202593  1
  O  O123  1  0.81360629  0.12833713  0.13994249  1
  O  O124  1  0.25053462  0.37180392  0.13999330  1
  O  O125  1  0.74855476  0.37131690  0.14194335  1
  O  O126  1  0.23112362  0.29398841  0.02638634  1
  O  O127  1  0.73233775  0.29516977  0.02749025  1
  O  O128  1  0.41578347  0.53798229  0.02641632  1
  O  O129  1  0.91580041  0.53777762  0.02650241  1
  O  O130  1  0.35245738  0.16930082  0.02756041  1
  O  O131  1  0.85311548  0.16825041  0.02639194  1
  O  O132  1  0.23111048  0.16878586  0.52668355  1
  O  O133  1  0.72965826  0.16386683  0.52489576  1
  O  O134  1  0.35177066  0.53852272  0.52586768  1
  O  O135  1  0.85249976  0.53603967  0.52773570  1
  O  O136  1  0.41591434  0.29387338  0.52685745  1
  O  O137  1  0.91556085  0.29375926  0.52659268  1
  O  O138  1  0.26696924  0.69543693  0.97564746  1
  O  O139  1  0.76696321  0.69529324  0.97563754  1
  O  O140  1  0.07975849  0.46356467  0.97682005  1
  O  O141  1  0.57984433  0.46373213  0.97684101  1
  O  O142  1  0.15180033  0.84004585  0.97676589  1
  O  O143  1  0.65172819  0.84012745  0.97673118  1
  O  O144  1  0.27002660  0.83690070  0.47447577  1
  O  O145  1  0.76857628  0.84069412  0.47743076  1
  O  O146  1  0.15145536  0.46289631  0.47732856  1
  O  O147  1  0.65105330  0.46117665  0.47535517  1
  O  O148  1  0.07933208  0.69655054  0.47702375  1
  O  O149  1  0.58089393  0.70237208  0.47558574  1
  O  O150  1  0.06743986  0.63411649  0.36023661  1
  O  O151  1  0.56655242  0.63381178  0.36041955  1
  O  O152  1  0.25252050  0.86982583  0.35810360  1
  O  O153  1  0.74875832  0.86759152  0.36144462  1
  O  O154  1  0.18532556  0.50250983  0.36157765  1
  O  O155  1  0.68242274  0.49622710  0.35819190  1
  O  O156  1  0.06690042  0.49937577  0.86001253  1
  O  O157  1  0.56684268  0.49941693  0.86006804  1
  O  O158  1  0.18340810  0.86665006  0.86004081  1
  O  O159  1  0.68343491  0.86675899  0.86001612  1
  O  O160  1  0.25220993  0.63509695  0.85790583  1
  O  O161  1  0.75222795  0.63500348  0.85791549  1
  O  O162  1  0.01282334  0.83027829  0.41081810  1
  O  O163  1  0.51161973  0.83379311  0.41021837  1
  O  O164  1  0.40484893  0.97295384  0.40951531  1
  O  O165  1  0.90318877  0.97410762  0.41189848  1
  O  O166  1  0.08397050  0.19326009  0.41198367  1
  O  O167  1  0.58302644  0.18701640  0.40928492  1
  O  O168  1  0.01310255  0.19631073  0.91106909  1
  O  O169  1  0.51310957  0.19638626  0.91110642  1
  O  O170  1  0.08498234  0.97357802  0.91067900  1
  O  O171  1  0.58496526  0.97362469  0.91064136  1
  O  O172  1  0.40203092  0.83019198  0.91084855  1
  O  O173  1  0.90201751  0.83007079  0.91085119  1
  O  O174  1  0.48814068  0.16456889  0.59104282  1
  O  O175  1  0.98807405  0.16444899  0.59078726  1
  O  O176  1  0.09387481  0.02321145  0.59054827  1
  O  O177  1  0.59389076  0.02366181  0.59047148  1
  O  O178  1  0.41791667  0.81287914  0.59037636  1
  O  O179  1  0.91789860  0.81284141  0.59052357  1
  O  O180  1  0.48819468  0.81198738  0.09093605  1
  O  O181  1  0.98842241  0.81214919  0.09063515  1
  O  O182  1  0.41787827  0.02304030  0.09084742  1
  O  O183  1  0.91775183  0.02324337  0.09049747  1
  O  O184  1  0.09383122  0.16461684  0.09049694  1
  O  O185  1  0.59369184  0.16415501  0.09053694  1
  O  O186  1  0.34588685  0.17222128  0.74164345  1
  O  O187  1  0.84577183  0.17220039  0.74150101  1
  O  O188  1  0.24089096  0.31393098  0.74142969  1
  O  O189  1  0.74086760  0.31362258  0.74154571  1
  O  O190  1  0.41447671  0.52256233  0.74142447  1
  O  O191  1  0.91455225  0.52253456  0.74154268  1
  O  O192  1  0.34626454  0.52146360  0.24264631  1
  O  O193  1  0.84338884  0.51826305  0.24185427  1
  O  O194  1  0.41395216  0.30563495  0.24195258  1
  O  O195  1  0.91467607  0.30822990  0.24217377  1
  O  O196  1  0.24102113  0.16830094  0.24177795  1
  O  O197  1  0.73795916  0.17021792  0.24265978  1
  O  O198  1  0.31915422  0.49382656  0.92405680  1
  O  O199  1  0.81912489  0.49362266  0.92415939  1
  O  O200  1  0.42750911  0.36116235  0.92466062  1
  O  O201  1  0.92756942  0.36138782  0.92445052  1
  O  O202  1  0.25320400  0.14462124  0.92458917  1
  O  O203  1  0.75307580  0.14484023  0.92461546  1
  O  O204  1  0.31984876  0.14438196  0.42418005  1
  O  O205  1  0.81829740  0.14241577  0.42479282  1
  O  O206  1  0.25313694  0.36404364  0.42498613  1
  O  O207  1  0.75038871  0.35479121  0.42383323  1
  O  O208  1  0.42597798  0.49785530  0.42462081  1
  O  O209  1  0.92790304  0.49460579  0.42436866  1
  O  O210  1  0.17813649  0.50159066  0.07614930  1
  O  O211  1  0.67826711  0.50194250  0.07634125  1
  O  O212  1  0.07261817  0.64347983  0.07638464  1
  O  O213  1  0.57272720  0.64395821  0.07619052  1
  O  O214  1  0.24908323  0.85429175  0.07640087  1
  O  O215  1  0.74920046  0.85436785  0.07610354  1
  O  O216  1  0.17843704  0.85507107  0.57591940  1
  O  O217  1  0.67775684  0.85378587  0.57648854  1
  O  O218  1  0.24896052  0.64440834  0.57658909  1
  O  O219  1  0.74883250  0.64329646  0.57648576  1
  O  O220  1  0.07270839  0.50189499  0.57630637  1
  O  O221  1  0.57270261  0.50172914  0.57597371  1
  O  O222  1  0.15663432  0.83228647  0.25606497  1
  O  O223  1  0.65436338  0.82872151  0.25793427  1
  O  O224  1  0.26168759  0.69369226  0.25749477  1
  O  O225  1  0.75934548  0.68646856  0.25638384  1
  O  O226  1  0.08543084  0.47911234  0.25737468  1
  O  O227  1  0.58588381  0.47742315  0.25719630  1
  O  O228  1  0.15707444  0.48137362  0.75609685  1
  O  O229  1  0.65707803  0.48138748  0.75613369  1
  O  O230  1  0.08605411  0.69083813  0.75674035  1
  O  O231  1  0.58600107  0.69076865  0.75670298  1
  O  O232  1  0.26110811  0.82926946  0.75647362  1
  O  O233  1  0.76114414  0.82935504  0.75645829  1
