# generated using pymatgen
data_Na3La2Sn2P5SO24
_symmetry_space_group_name_H-M   'P 1'
_cell_length_a   9.16789846
_cell_length_b   9.16343212
_cell_length_c   23.57095243
_cell_angle_alpha   90.28668843
_cell_angle_beta   89.88833451
_cell_angle_gamma   119.63241885
_symmetry_Int_Tables_number   1
_chemical_formula_structural   Na3La2Sn2P5SO24
_chemical_formula_sum   'Na9 La6 Sn6 P15 S3 O72'
_cell_volume   1721.18259066
_cell_formula_units_Z   3
loop_
 _symmetry_equiv_pos_site_id
 _symmetry_equiv_pos_as_xyz
  1  'x, y, z'
loop_
 _atom_site_type_symbol
 _atom_site_label
 _atom_site_symmetry_multiplicity
 _atom_site_fract_x
 _atom_site_fract_y
 _atom_site_fract_z
 _atom_site_occupancy
  Na  Na0  1  0.00445435  0.36064773  0.75102371  1
  Na  Na1  1  0.67113090  0.95889238  0.58279683  1
  Na  Na2  1  0.04315509  0.33095180  0.08337645  1
  Na  Na3  1  0.00680127  0.98991404  0.49599199  1
  Na  Na4  1  0.01143063  0.99416388  0.99510376  1
  Na  Na5  1  0.65465965  0.32295882  0.83424644  1
  Na  Na6  1  0.68317465  0.33805625  0.33345133  1
  Na  Na7  1  0.35334650  0.67001649  0.16705194  1
  Na  Na8  1  0.33611951  0.66551438  0.66675833  1
  La  La9  1  0.01382878  0.99547829  0.64433851  1
  La  La10  1  0.99432436  0.98647974  0.14448934  1
  La  La11  1  0.33629487  0.67706135  0.01541565  1
  La  La12  1  0.31970928  0.66385933  0.51547101  1
  La  La13  1  0.32968797  0.66544322  0.32050373  1
  La  La14  1  0.33708386  0.67905715  0.82236415  1
  Sn  Sn15  1  0.97920649  0.99033855  0.34706851  1
  Sn  Sn16  1  0.00751220  0.00640821  0.84629749  1
  Sn  Sn17  1  0.66247046  0.33856192  0.68689759  1
  Sn  Sn18  1  0.67078214  0.33922595  0.18651597  1
  Sn  Sn19  1  0.66214177  0.32565632  0.98212806  1
  Sn  Sn20  1  0.67571400  0.33989844  0.48192286  1
  P  P21  1  0.70257835  0.68908773  0.25006234  1
  P  P22  1  0.98491742  0.28968500  0.24817014  1
  P  P23  1  0.30426979  0.29454268  0.75101490  1
  P  P24  1  0.98390373  0.69199697  0.75204733  1
  P  P25  1  0.70975808  0.01241253  0.74715135  1
  P  P26  1  0.94774920  0.33782506  0.58627391  1
  P  P27  1  0.39730636  0.05977521  0.58126068  1
  P  P28  1  0.65948157  0.61260352  0.58246533  1
  P  P29  1  0.94378144  0.60598874  0.08099092  1
  P  P30  1  0.66164113  0.05379276  0.08518463  1
  P  P31  1  0.38920629  0.33864080  0.08398379  1
  P  P32  1  0.01063507  0.34277819  0.91633867  1
  P  P33  1  0.33105358  0.99247164  0.91669223  1
  P  P34  1  0.65209074  0.98753199  0.41934620  1
  P  P35  1  0.00985994  0.67032169  0.41541485  1
  S  S36  1  0.30720377  0.01814030  0.25175453  1
  S  S37  1  0.65983103  0.66877284  0.91623198  1
  S  S38  1  0.32985033  0.33949439  0.41579839  1
  O  O39  1  0.21744773  0.03306363  0.30301549  1
  O  O40  1  0.81489878  0.77679495  0.30389005  1
  O  O41  1  0.96569149  0.17377399  0.30087020  1
  O  O42  1  0.21953178  0.18174001  0.80435003  1
  O  O43  1  0.96712971  0.78559438  0.80550258  1
  O  O44  1  0.83298727  0.04128718  0.79875006  1
  O  O45  1  0.78224347  0.99107331  0.69143084  1
  O  O46  1  0.19647729  0.21949330  0.69832124  1
  O  O47  1  0.01111749  0.79081100  0.69810148  1
  O  O48  1  0.78307174  0.78917254  0.19681637  1
  O  O49  1  0.00847854  0.21763792  0.19256473  1
  O  O50  1  0.21346970  0.99844756  0.19964650  1
  O  O51  1  0.86367840  0.35025300  0.64287582  1
  O  O52  1  0.49380075  0.14495050  0.63719415  1
  O  O53  1  0.65258215  0.51686613  0.63768599  1
  O  O54  1  0.86040152  0.50954694  0.13674228  1
  O  O55  1  0.64854730  0.14113226  0.14022012  1
  O  O56  1  0.48678130  0.34766244  0.13925434  1
  O  O57  1  0.47915103  0.33163497  0.02917503  1
  O  O58  1  0.84440514  0.51525952  0.02700859  1
  O  O59  1  0.67251624  0.15103508  0.03028967  1
  O  O60  1  0.48825437  0.15683820  0.52723449  1
  O  O61  1  0.66598100  0.52179384  0.52773072  1
  O  O62  1  0.84725911  0.32902281  0.53229325  1
  O  O63  1  0.58358933  0.69835314  0.96694646  1
  O  O64  1  0.11937891  0.42062700  0.96987415  1
  O  O65  1  0.30211389  0.88320268  0.96923916  1
  O  O66  1  0.58143596  0.88516690  0.47413491  1
  O  O67  1  0.29890420  0.41407240  0.46678247  1
  O  O68  1  0.11638660  0.70263176  0.46910828  1
  O  O69  1  0.08603557  0.63215878  0.36373660  1
  O  O70  1  0.53942258  0.90251385  0.36799196  1
  O  O71  1  0.36150768  0.44599647  0.36572858  1
  O  O72  1  0.08876079  0.44976838  0.86303962  1
  O  O73  1  0.37062294  0.92088367  0.86395074  1
  O  O74  1  0.55499297  0.63732059  0.86557006  1
  O  O75  1  0.99685101  0.83379299  0.40639415  1
  O  O76  1  0.83242727  0.00878598  0.40988000  1
  O  O77  1  0.17804514  0.16981366  0.40683775  1
  O  O78  1  0.98900102  0.16223275  0.90775373  1
  O  O79  1  0.16715630  0.00346686  0.90833775  1
  O  O80  1  0.82866897  0.82126395  0.90853858  1
  O  O81  1  0.95156859  0.17141505  0.58455665  1
  O  O82  1  0.22172294  0.03933193  0.57845750  1
  O  O83  1  0.81557798  0.79002021  0.58058179  1
  O  O84  1  0.96545758  0.78219075  0.07884202  1
  O  O85  1  0.82880518  0.05060345  0.08417613  1
  O  O86  1  0.21170023  0.18209491  0.08284897  1
  O  O87  1  0.70562396  0.18378462  0.74645584  1
  O  O88  1  0.48028237  0.30678557  0.74638821  1
  O  O89  1  0.81915475  0.51511733  0.74904998  1
  O  O90  1  0.69212529  0.51217954  0.24766758  1
  O  O91  1  0.81652960  0.29762385  0.24706317  1
  O  O92  1  0.47464931  0.17606116  0.24984767  1
  O  O93  1  0.68097277  0.51812982  0.92351038  1
  O  O94  1  0.83080515  0.32282721  0.92349832  1
  O  O95  1  0.48434482  0.17435344  0.92427790  1
  O  O96  1  0.67527542  0.16914847  0.42420623  1
  O  O97  1  0.48046519  0.31852899  0.42322531  1
  O  O98  1  0.82847026  0.51560388  0.42310482  1
  O  O99  1  0.36583362  0.49535788  0.08364926  1
  O  O100  1  0.11578380  0.61137091  0.08048906  1
  O  O101  1  0.50819426  0.87684123  0.08459487  1
  O  O102  1  0.39016147  0.88657945  0.58159842  1
  O  O103  1  0.50249896  0.63485683  0.58260126  1
  O  O104  1  0.12391250  0.49301978  0.58539263  1
  O  O105  1  0.33279497  0.87167955  0.25630661  1
  O  O106  1  0.52619837  0.66658361  0.25625440  1
  O  O107  1  0.13521472  0.46626519  0.25690100  1
  O  O108  1  0.32037345  0.46898114  0.75896544  1
  O  O109  1  0.13079599  0.65496230  0.75793907  1
  O  O110  1  0.53398947  0.86298440  0.75601068  1
