# generated using pymatgen
data_Na14Ca2Hf6Si9(SO16)3
_symmetry_space_group_name_H-M   'P 1'
_cell_length_a   18.52808455
_cell_length_b   9.28748254
_cell_length_c   22.83484203
_cell_angle_alpha   90.03492090
_cell_angle_beta   90.05591647
_cell_angle_gamma   120.05757199
_symmetry_Int_Tables_number   1
_chemical_formula_structural   Na14Ca2Hf6Si9(SO16)3
_chemical_formula_sum   'Na42 Ca6 Hf18 Si27 S9 O144'
_cell_volume   3400.98236258
_cell_formula_units_Z   3
loop_
 _symmetry_equiv_pos_site_id
 _symmetry_equiv_pos_as_xyz
  1  'x, y, z'
loop_
 _atom_site_type_symbol
 _atom_site_label
 _atom_site_symmetry_multiplicity
 _atom_site_fract_x
 _atom_site_fract_y
 _atom_site_fract_z
 _atom_site_occupancy
  Na  Na0  1  0.31144833  0.00211659  0.24556625  1
  Na  Na1  1  0.81716335  0.01649278  0.24763441  1
  Na  Na2  1  0.18781976  0.36507269  0.25337074  1
  Na  Na3  1  0.69519897  0.36802246  0.24988869  1
  Na  Na4  1  0.99133839  0.61910609  0.25532583  1
  Na  Na5  1  0.49552505  0.63846388  0.24814243  1
  Na  Na6  1  0.31725054  0.61764057  0.74143676  1
  Na  Na7  1  0.81192986  0.62253421  0.74144049  1
  Na  Na8  1  0.99372032  0.34533575  0.74272998  1
  Na  Na9  1  0.49292845  0.36813325  0.75164667  1
  Na  Na10  1  0.19526312  0.02633520  0.74526914  1
  Na  Na11  1  0.68992279  0.01001052  0.74953047  1
  Na  Na12  1  0.15681180  0.34027152  0.58582285  1
  Na  Na13  1  0.66106488  0.35735743  0.57822462  1
  Na  Na14  1  0.01083704  0.69005867  0.57884696  1
  Na  Na15  1  0.51248139  0.69282248  0.57225835  1
  Na  Na16  1  0.32686235  0.96385123  0.58363010  1
  Na  Na17  1  0.83155587  0.95574787  0.57340819  1
  Na  Na18  1  0.16019512  0.96515472  0.08447671  1
  Na  Na19  1  0.65843551  0.97416090  0.08901070  1
  Na  Na20  1  0.33428441  0.70590935  0.08547778  1
  Na  Na21  1  0.82653258  0.68969314  0.08720673  1
  Na  Na22  1  0.01085978  0.32793371  0.07722499  1
  Na  Na23  1  0.51400902  0.33531744  0.08333020  1
  Na  Na24  1  0.98516712  0.67041953  0.91855269  1
  Na  Na25  1  0.34985924  0.03870890  0.91319177  1
  Na  Na26  1  0.16054618  0.29229943  0.91458274  1
  Na  Na27  1  0.48845567  0.30466594  0.41840999  1
  Na  Na28  1  0.66802671  0.02984905  0.41392013  1
  Na  Na29  1  0.84807606  0.67276201  0.41913634  1
  Na  Na30  1  0.99760795  0.99533377  0.49652647  1
  Na  Na31  1  0.49250072  0.98219341  0.49265390  1
  Na  Na32  1  0.98924100  0.00028176  0.99437126  1
  Na  Na33  1  0.50798335  0.01658163  0.00322037  1
  Na  Na34  1  0.33754034  0.33780369  0.82518132  1
  Na  Na35  1  0.82700309  0.31939780  0.83132763  1
  Na  Na36  1  0.32732916  0.33456704  0.33226672  1
  Na  Na37  1  0.83656719  0.32943667  0.32957323  1
  Na  Na38  1  0.17394471  0.68093376  0.17127431  1
  Na  Na39  1  0.67107323  0.67920573  0.16775098  1
  Na  Na40  1  0.16965279  0.66116284  0.66047893  1
  Na  Na41  1  0.67626521  0.66842918  0.66609294  1
  Ca  Ca42  1  0.32857658  0.33329756  0.68429911  1
  Ca  Ca43  1  0.83683005  0.33427254  0.68186424  1
  Ca  Ca44  1  0.33641574  0.33686833  0.18366739  1
  Ca  Ca45  1  0.82813722  0.32287721  0.18563128  1
  Ca  Ca46  1  0.16507588  0.67080721  0.01160035  1
  Ca  Ca47  1  0.66963532  0.66598113  0.50910710  1
  Hf  Hf48  1  0.99888251  0.99705720  0.35165518  1
  Hf  Hf49  1  0.49617310  0.98319081  0.35544194  1
  Hf  Hf50  1  0.99509585  0.00731650  0.85542117  1
  Hf  Hf51  1  0.50429772  0.00976383  0.85001742  1
  Hf  Hf52  1  0.99786090  0.01137468  0.64361884  1
  Hf  Hf53  1  0.49609349  0.98877397  0.65334110  1
  Hf  Hf54  1  0.99550871  0.00253332  0.15444801  1
  Hf  Hf55  1  0.49918244  0.98700639  0.14553571  1
  Hf  Hf56  1  0.34266509  0.32845051  0.98103642  1
  Hf  Hf57  1  0.82825407  0.32137513  0.97945238  1
  Hf  Hf58  1  0.32829381  0.33513230  0.47942303  1
  Hf  Hf59  1  0.84336739  0.34955622  0.47677217  1
  Hf  Hf60  1  0.66800547  0.65682113  0.01650716  1
  Hf  Hf61  1  0.16799560  0.67875569  0.51590591  1
  Hf  Hf62  1  0.16630667  0.68034908  0.31314983  1
  Hf  Hf63  1  0.67132466  0.67843944  0.32042156  1
  Hf  Hf64  1  0.16507604  0.66805885  0.81622332  1
  Hf  Hf65  1  0.66622200  0.65195505  0.81278378  1
  Si  Si66  1  0.14500848  0.99911786  0.24949162  1
  Si  Si67  1  0.64301887  0.99003315  0.25222659  1
  Si  Si68  1  0.35129650  0.70974052  0.24930915  1
  Si  Si69  1  0.84968813  0.70651672  0.25263197  1
  Si  Si70  1  0.00496707  0.29915478  0.25228379  1
  Si  Si71  1  0.14301304  0.29341754  0.75303843  1
  Si  Si72  1  0.64644506  0.29376757  0.74828990  1
  Si  Si73  1  0.50413086  0.71139087  0.75354482  1
  Si  Si74  1  0.35126774  0.99310741  0.75358467  1
  Si  Si75  1  0.85127772  0.99316053  0.74979719  1
  Si  Si76  1  0.98450883  0.33921689  0.58346587  1
  Si  Si77  1  0.18500207  0.03559485  0.58513912  1
  Si  Si78  1  0.33524452  0.63660778  0.58312319  1
  Si  Si79  1  0.83203444  0.63187573  0.58658025  1
  Si  Si80  1  0.48388634  0.63138469  0.08253317  1
  Si  Si81  1  0.33311789  0.02898275  0.08604253  1
  Si  Si82  1  0.83566571  0.03391787  0.08232200  1
  Si  Si83  1  0.68521788  0.33413323  0.08447150  1
  Si  Si84  1  0.81354656  0.66048432  0.91618374  1
  Si  Si85  1  0.01513954  0.36925915  0.91877330  1
  Si  Si86  1  0.52050198  0.36796893  0.91577489  1
  Si  Si87  1  0.16669348  0.97089098  0.91712213  1
  Si  Si88  1  0.31398257  0.96670045  0.41630812  1
  Si  Si89  1  0.82141743  0.97598223  0.41896122  1
  Si  Si90  1  0.66532378  0.36431209  0.41703175  1
  Si  Si91  1  0.02177357  0.67431655  0.41539471  1
  Si  Si92  1  0.51473750  0.65968962  0.41860154  1
  S  S93  1  0.50355697  0.29077189  0.25111437  1
  S  S94  1  0.00370088  0.71482256  0.75245861  1
  S  S95  1  0.48003268  0.32849934  0.58396795  1
  S  S96  1  0.68121380  0.03627682  0.58382732  1
  S  S97  1  0.97974837  0.63107361  0.08319760  1
  S  S98  1  0.18320014  0.32780342  0.08177640  1
  S  S99  1  0.31638754  0.66605811  0.91654648  1
  S  S100  1  0.66592379  0.95743113  0.91628418  1
  S  S101  1  0.16708460  0.37650332  0.41618051  1
  O  O102  1  0.09404789  0.01761576  0.30385575  1
  O  O103  1  0.59283545  0.01024786  0.30702366  1
  O  O104  1  0.41239106  0.81776441  0.30249644  1
  O  O105  1  0.90907486  0.80666461  0.30850724  1
  O  O106  1  0.49439541  0.18974721  0.30368140  1
  O  O107  1  0.99430892  0.17290920  0.30479248  1
  O  O108  1  0.09425764  0.17489814  0.80877254  1
  O  O109  1  0.59466232  0.17511961  0.80402458  1
  O  O110  1  0.49321992  0.81459056  0.80742381  1
  O  O111  1  0.99539298  0.79772350  0.80508648  1
  O  O112  1  0.40851720  0.00826255  0.81107612  1
  O  O113  1  0.91190631  0.00801663  0.80360711  1
  O  O114  1  0.39713336  0.96573174  0.69501718  1
  O  O115  1  0.89581206  0.96762842  0.69070633  1
  O  O116  1  0.08581193  0.20364796  0.69386826  1
  O  O117  1  0.58747552  0.20318346  0.68972290  1
  O  O118  1  0.01508337  0.81470617  0.69866538  1
  O  O119  1  0.51654669  0.82653020  0.69337545  1
  O  O120  1  0.39476901  0.82161419  0.18885916  1
  O  O121  1  0.89589249  0.82660024  0.19341493  1
  O  O122  1  0.01755240  0.21086683  0.19087995  1
  O  O123  1  0.51170213  0.20821551  0.19713439  1
  O  O124  1  0.08819965  0.97256844  0.18868287  1
  O  O125  1  0.58666555  0.97022184  0.19227565  1
  O  O126  1  0.44190935  0.34629207  0.63748858  1
  O  O127  1  0.95898285  0.38568685  0.64524713  1
  O  O128  1  0.23886468  0.08914075  0.64472559  1
  O  O129  1  0.72927775  0.10876779  0.63753192  1
  O  O130  1  0.31528834  0.53704976  0.64414981  1
  O  O131  1  0.81788848  0.52714495  0.64609676  1
  O  O132  1  0.45574041  0.52696199  0.14253197  1
  O  O133  1  0.94128806  0.53576079  0.13636913  1
  O  O134  1  0.31374887  0.10580561  0.14279087  1
  O  O135  1  0.81523391  0.09466855  0.14270563  1
  O  O136  1  0.23230442  0.35132510  0.13516932  1
  O  O137  1  0.74000705  0.38882567  0.14311873  1
  O  O138  1  0.22658508  0.31113344  0.02876866  1
  O  O139  1  0.73517947  0.30181458  0.03018672  1
  O  O140  1  0.41489628  0.52924985  0.02959649  1
  O  O141  1  0.92750709  0.54666172  0.02996797  1
  O  O142  1  0.34488484  0.15237296  0.02726271  1
  O  O143  1  0.85201914  0.16840510  0.02877640  1
  O  O144  1  0.23581828  0.16953393  0.53176937  1
  O  O145  1  0.72338165  0.13968451  0.53140258  1
  O  O146  1  0.35154889  0.53393817  0.53030931  1
  O  O147  1  0.84365044  0.53229769  0.52910008  1
  O  O148  1  0.42699505  0.30650157  0.53128043  1
  O  O149  1  0.91613922  0.30590822  0.53164219  1
  O  O150  1  0.28293669  0.69513786  0.96906352  1
  O  O151  1  0.76948770  0.69007154  0.97328905  1
  O  O152  1  0.06929952  0.43031215  0.97810512  1
  O  O153  1  0.57562520  0.46277117  0.97317559  1
  O  O154  1  0.14731731  0.86620519  0.97680584  1
  O  O155  1  0.65653701  0.85862318  0.96938949  1
  O  O156  1  0.27019841  0.84942516  0.47370148  1
  O  O157  1  0.78773687  0.86573073  0.47740749  1
  O  O158  1  0.15849738  0.45808575  0.46948104  1
  O  O159  1  0.63988480  0.42145629  0.47661598  1
  O  O160  1  0.07641610  0.68665831  0.47310670  1
  O  O161  1  0.56639196  0.70217440  0.47901690  1
  O  O162  1  0.06573939  0.64583984  0.35757109  1
  O  O163  1  0.56477364  0.63316358  0.36258099  1
  O  O164  1  0.25641646  0.87248833  0.35838317  1
  O  O165  1  0.75586490  0.87528488  0.36260959  1
  O  O166  1  0.17827297  0.47809032  0.36317844  1
  O  O167  1  0.68173358  0.49495047  0.36163884  1
  O  O168  1  0.06793273  0.49948455  0.86362114  1
  O  O169  1  0.56434617  0.48053186  0.85737808  1
  O  O170  1  0.18489810  0.87367804  0.86200579  1
  O  O171  1  0.67639124  0.87820244  0.86319088  1
  O  O172  1  0.26082169  0.64397008  0.86425828  1
  O  O173  1  0.75576136  0.63986237  0.85846828  1
  O  O174  1  0.00867009  0.83601313  0.41258133  1
  O  O175  1  0.50575124  0.82530714  0.40828561  1
  O  O176  1  0.40998932  0.00134066  0.41011462  1
  O  O177  1  0.91253433  0.99323022  0.40828190  1
  O  O178  1  0.09343116  0.20857364  0.41196647  1
  O  O179  1  0.58482438  0.17919173  0.40423320  1
  O  O180  1  0.00585550  0.18572750  0.90828001  1
  O  O181  1  0.50343659  0.17457549  0.91353436  1
  O  O182  1  0.08435240  0.98827318  0.90557313  1
  O  O183  1  0.59116494  0.97789321  0.91221210  1
  O  O184  1  0.40075837  0.81328104  0.90790791  1
  O  O185  1  0.90972534  0.81820720  0.91016666  1
  O  O186  1  0.48717598  0.17304865  0.58639591  1
  O  O187  1  0.98930470  0.16456330  0.58628269  1
  O  O188  1  0.09274028  0.02052356  0.59075779  1
  O  O189  1  0.59720654  0.02859419  0.58705034  1
  O  O190  1  0.42209766  0.82612804  0.58627033  1
  O  O191  1  0.92163918  0.81407812  0.58895965  1
  O  O192  1  0.48811558  0.81466734  0.08589529  1
  O  O193  1  0.98735477  0.80059640  0.08518518  1
  O  O194  1  0.42305094  0.03098732  0.08748193  1
  O  O195  1  0.92266912  0.01825945  0.08534142  1
  O  O196  1  0.09988836  0.16878222  0.08453984  1
  O  O197  1  0.59257670  0.16459975  0.08935218  1
  O  O198  1  0.34525346  0.15931018  0.75276043  1
  O  O199  1  0.84323108  0.15904796  0.75081329  1
  O  O200  1  0.23564424  0.31767767  0.75352986  1
  O  O201  1  0.73773774  0.31401086  0.75094362  1
  O  O202  1  0.42376986  0.52810454  0.75051715  1
  O  O203  1  0.93098031  0.54683691  0.75003161  1
  O  O204  1  0.34335956  0.52790359  0.25019456  1
  O  O205  1  0.84436842  0.52873346  0.25112376  1
  O  O206  1  0.42903598  0.30965743  0.24868039  1
  O  O207  1  0.92478632  0.32228826  0.24922006  1
  O  O208  1  0.23766766  0.16035429  0.25028634  1
  O  O209  1  0.73500932  0.15164241  0.25276849  1
  O  O210  1  0.31928735  0.50803190  0.91935116  1
  O  O211  1  0.82478881  0.49609853  0.92513350  1
  O  O212  1  0.42528470  0.34481219  0.92184069  1
  O  O213  1  0.92542376  0.36495268  0.92188278  1
  O  O214  1  0.25036142  0.16066221  0.92258983  1
  O  O215  1  0.74199035  0.12678902  0.92130161  1
  O  O216  1  0.32414073  0.15253316  0.42571510  1
  O  O217  1  0.81923490  0.15046340  0.42279788  1
  O  O218  1  0.24401188  0.36132285  0.42155019  1
  O  O219  1  0.75038635  0.35077476  0.42345807  1
  O  O220  1  0.42392638  0.48524663  0.42226886  1
  O  O221  1  0.92691770  0.51020298  0.42107829  1
  O  O222  1  0.17044180  0.47189040  0.07711304  1
  O  O223  1  0.66918570  0.49254746  0.07236898  1
  O  O224  1  0.06392088  0.65022308  0.07862091  1
  O  O225  1  0.57864195  0.66889018  0.06817232  1
  O  O226  1  0.25570881  0.83906401  0.07956152  1
  O  O227  1  0.75402442  0.84840853  0.06996551  1
  O  O228  1  0.16994789  0.84613204  0.57282002  1
  O  O229  1  0.66662232  0.86480564  0.57931541  1
  O  O230  1  0.25382181  0.65943180  0.57130300  1
  O  O231  1  0.75214064  0.66099501  0.58288509  1
  O  O232  1  0.07993768  0.49105990  0.56973296  1
  O  O233  1  0.56412572  0.47723349  0.57917513  1
  O  O234  1  0.14989134  0.82485391  0.25333026  1
  O  O235  1  0.64595137  0.81384338  0.25593430  1
  O  O236  1  0.25928769  0.69501918  0.25495259  1
  O  O237  1  0.75708651  0.69290946  0.25548705  1
  O  O238  1  0.09279012  0.47834158  0.25704376  1
  O  O239  1  0.58062050  0.45771870  0.25439395  1
  O  O240  1  0.14866319  0.47875343  0.75932562  1
  O  O241  1  0.65028803  0.47597600  0.75317099  1
  O  O242  1  0.08224393  0.70246758  0.75707805  1
  O  O243  1  0.59149976  0.70690572  0.75861415  1
  O  O244  1  0.25902350  0.82031266  0.75788551  1
  O  O245  1  0.75883473  0.82455547  0.75616264  1
