# generated using pymatgen
data_MgFe8(OF)8
_symmetry_space_group_name_H-M   'P 1'
_cell_length_a   9.75712401
_cell_length_b   9.91446704
_cell_length_c   3.18319900
_cell_angle_alpha   90.00000000
_cell_angle_beta   90.00000000
_cell_angle_gamma   82.92705904
_symmetry_Int_Tables_number   1
_chemical_formula_structural   MgFe8(OF)8
_chemical_formula_sum   'Mg1 Fe8 O8 F8'
_cell_volume   305.58881540
_cell_formula_units_Z   1
loop_
 _symmetry_equiv_pos_site_id
 _symmetry_equiv_pos_as_xyz
  1  'x, y, z'
loop_
 _atom_site_type_symbol
 _atom_site_label
 _atom_site_symmetry_multiplicity
 _atom_site_fract_x
 _atom_site_fract_y
 _atom_site_fract_z
 _atom_site_occupancy
  Mg  Mg0  1  0.75253700  0.00089000  0.50000000  1
  Fe  Fe1  1  0.06085200  0.01467400  0.00000000  1
  Fe  Fe2  1  0.01557500  0.52887800  0.00000000  1
  Fe  Fe3  1  0.22641200  0.25999000  0.50000000  1
  Fe  Fe4  1  0.22558400  0.73141700  0.50000000  1
  Fe  Fe5  1  0.50697000  0.46555200  0.00000000  1
  Fe  Fe6  1  0.46932000  0.97132200  0.00000000  1
  Fe  Fe7  1  0.79671100  0.34049500  0.50000000  1
  Fe  Fe8  1  0.71434700  0.64980400  0.50000000  1
  O  O9  1  0.11463900  0.42380200  0.50000000  1
  O  O10  1  0.12165900  0.92003400  0.50000000  1
  O  O11  1  0.15013700  0.16955600  0.00000000  1
  O  O12  1  0.14890700  0.66618400  0.00000000  1
  O  O13  1  0.60116000  0.36895900  0.50000000  1
  O  O14  1  0.61054900  0.61308600  0.00000000  1
  O  O15  1  0.87579000  0.38695300  0.00000000  1
  O  O16  1  0.90988000  0.61685900  0.50000000  1
  F  F17  1  0.35562600  0.32807100  0.00000000  1
  F  F18  1  0.35028500  0.81935300  0.00000000  1
  F  F19  1  0.38360600  0.08743100  0.50000000  1
  F  F20  1  0.38317100  0.56638400  0.50000000  1
  F  F21  1  0.60420800  0.87878100  0.50000000  1
  F  F22  1  0.64101400  0.08218900  0.00000000  1
  F  F23  1  0.87205200  0.93230400  0.00000000  1
  F  F24  1  0.87984500  0.14230900  0.50000000  1
