# generated using pymatgen
data_Na4Zr2Ga2Si3(SO8)3
_symmetry_space_group_name_H-M   'P 1'
_cell_length_a   8.96202688
_cell_length_b   8.95336776
_cell_length_c   22.81426372
_cell_angle_alpha   90.18723677
_cell_angle_beta   88.40795264
_cell_angle_gamma   119.85516249
_symmetry_Int_Tables_number   1
_chemical_formula_structural   Na4Zr2Ga2Si3(SO8)3
_chemical_formula_sum   'Na12 Zr6 Ga6 Si9 S9 O72'
_cell_volume   1586.94485558
_cell_formula_units_Z   3
loop_
 _symmetry_equiv_pos_site_id
 _symmetry_equiv_pos_as_xyz
  1  'x, y, z'
loop_
 _atom_site_type_symbol
 _atom_site_label
 _atom_site_symmetry_multiplicity
 _atom_site_fract_x
 _atom_site_fract_y
 _atom_site_fract_z
 _atom_site_occupancy
  Na  Na0  1  0.00059589  0.64256091  0.25301041  1
  Na  Na1  1  0.99735263  0.35902014  0.74010570  1
  Na  Na2  1  0.66435352  0.97144167  0.58742649  1
  Na  Na3  1  0.66904628  0.69902082  0.08159005  1
  Na  Na4  1  0.33430598  0.30296450  0.90342184  1
  Na  Na5  1  0.32555639  0.02794293  0.42123910  1
  Na  Na6  1  0.00952974  0.00237714  0.49995999  1
  Na  Na7  1  0.98843908  0.98175986  0.99270960  1
  Na  Na8  1  0.65663595  0.32951968  0.82004303  1
  Na  Na9  1  0.66464944  0.34403326  0.33112805  1
  Na  Na10  1  0.33533055  0.67712589  0.16724181  1
  Na  Na11  1  0.33423027  0.66654281  0.65896715  1
  Zr  Zr12  1  0.01096408  0.01317541  0.64558866  1
  Zr  Zr13  1  0.00319273  0.98766785  0.14946376  1
  Zr  Zr14  1  0.67709743  0.34892966  0.97995395  1
  Zr  Zr15  1  0.67627963  0.33958290  0.48366867  1
  Zr  Zr16  1  0.33803826  0.67206991  0.31325939  1
  Zr  Zr17  1  0.35095078  0.66904731  0.80957888  1
  Ga  Ga18  1  0.00274770  0.96565989  0.34700455  1
  Ga  Ga19  1  0.97675814  0.99010893  0.84202104  1
  Ga  Ga20  1  0.64251133  0.29217077  0.68442311  1
  Ga  Ga21  1  0.67547341  0.34629714  0.19077318  1
  Ga  Ga22  1  0.33220992  0.67650913  0.01610459  1
  Ga  Ga23  1  0.28050101  0.66452227  0.52380644  1
  Si  Si24  1  0.30790943  0.01545427  0.25087388  1
  Si  Si25  1  0.70619512  0.70169401  0.24952698  1
  Si  Si26  1  0.29580650  0.27850661  0.75386152  1
  Si  Si27  1  0.71212949  0.00912634  0.74842870  1
  Si  Si28  1  0.95720588  0.34041483  0.58817543  1
  Si  Si29  1  0.37357531  0.03346945  0.57989845  1
  Si  Si30  1  0.97110056  0.61966288  0.08521677  1
  Si  Si31  1  0.63270172  0.68554787  0.91936062  1
  Si  Si32  1  0.03442012  0.66992934  0.41486609  1
  S  S33  1  0.99693462  0.28486084  0.25189932  1
  S  S34  1  0.99523875  0.70679915  0.75293041  1
  S  S35  1  0.66111740  0.62198604  0.58601882  1
  S  S36  1  0.66331221  0.04235747  0.08455787  1
  S  S37  1  0.37507530  0.33814244  0.08385008  1
  S  S38  1  0.04722235  0.37551304  0.91850724  1
  S  S39  1  0.32897216  0.95653153  0.91951250  1
  S  S40  1  0.63488107  0.95766628  0.41700132  1
  S  S41  1  0.32614072  0.37432041  0.41882449  1
  O  O42  1  0.22144322  0.04368593  0.31090508  1
  O  O43  1  0.83446651  0.79686986  0.30310416  1
  O  O44  1  0.97720044  0.18094892  0.30387711  1
  O  O45  1  0.20420828  0.16629732  0.81536889  1
  O  O46  1  0.97611761  0.78975998  0.80735094  1
  O  O47  1  0.83098015  0.04204945  0.80528591  1
  O  O48  1  0.78864198  0.96706224  0.68946527  1
  O  O49  1  0.16746656  0.19422639  0.69903208  1
  O  O50  1  0.02715455  0.81321223  0.70009667  1
  O  O51  1  0.78544222  0.81517014  0.18797111  1
  O  O52  1  0.02061021  0.20825396  0.19666026  1
  O  O53  1  0.17361517  0.97368171  0.19630303  1
  O  O54  1  0.86702873  0.36630572  0.64722461  1
  O  O55  1  0.49831618  0.12112516  0.63482665  1
  O  O56  1  0.63934569  0.51663632  0.63783212  1
  O  O57  1  0.87391562  0.50327548  0.14369832  1
  O  O58  1  0.64271036  0.12500403  0.13700404  1
  O  O59  1  0.48358121  0.35933382  0.13368578  1
  O  O60  1  0.45048556  0.30852902  0.02820368  1
  O  O61  1  0.83982633  0.52928721  0.02967749  1
  O  O62  1  0.67800178  0.14104903  0.03013980  1
  O  O63  1  0.45210568  0.14560715  0.51861459  1
  O  O64  1  0.68805895  0.54346912  0.53096648  1
  O  O65  1  0.83848564  0.31094851  0.53064933  1
  O  O66  1  0.53678844  0.70063427  0.98074420  1
  O  O67  1  0.15316329  0.46572291  0.96967737  1
  O  O68  1  0.30718373  0.85294901  0.97328817  1
  O  O69  1  0.55666715  0.85720704  0.47091793  1
  O  O70  1  0.31483079  0.46469448  0.47125884  1
  O  O71  1  0.16628753  0.71029470  0.46850620  1
  O  O72  1  0.12296343  0.64495350  0.35445531  1
  O  O73  1  0.52062404  0.86945631  0.36567953  1
  O  O74  1  0.35203918  0.47875135  0.36431622  1
  O  O75  1  0.11678453  0.47724261  0.86400555  1
  O  O76  1  0.35118946  0.87529016  0.86656338  1
  O  O77  1  0.49908218  0.63697057  0.86581234  1
  O  O78  1  0.02707869  0.85109375  0.41190319  1
  O  O79  1  0.80923735  0.98514161  0.40652300  1
  O  O80  1  0.17048958  0.20218704  0.41448399  1
  O  O81  1  0.03672363  0.20581137  0.91582850  1
  O  O82  1  0.18015234  0.98339908  0.91743297  1
  O  O83  1  0.82604758  0.84951011  0.90831296  1
  O  O84  1  0.96677122  0.16060620  0.58818611  1
  O  O85  1  0.17908838  0.00140279  0.58670389  1
  O  O86  1  0.81983830  0.79635823  0.58770760  1
  O  O87  1  0.97865846  0.80981840  0.08667386  1
  O  O88  1  0.82265793  0.02590436  0.08504278  1
  O  O89  1  0.19890497  0.18770462  0.08856782  1
  O  O90  1  0.70120810  0.18482508  0.74557728  1
  O  O91  1  0.48942069  0.31323301  0.74250424  1
  O  O92  1  0.84395449  0.53559273  0.74947717  1
  O  O93  1  0.70524271  0.51922735  0.24444887  1
  O  O94  1  0.84442615  0.30863114  0.24766625  1
  O  O95  1  0.49759444  0.17833474  0.23810594  1
  O  O96  1  0.63818585  0.50018296  0.92511356  1
  O  O97  1  0.86827456  0.34753548  0.92521240  1
  O  O98  1  0.48845122  0.13198527  0.92365078  1
  O  O99  1  0.63878004  0.12852565  0.41851437  1
  O  O100  1  0.48080682  0.34934441  0.41947415  1
  O  O101  1  0.84352310  0.50032070  0.41971161  1
  O  O102  1  0.36632691  0.49904047  0.07830846  1
  O  O103  1  0.16268541  0.64254464  0.07347685  1
  O  O104  1  0.51180102  0.86348690  0.08119577  1
  O  O105  1  0.37388011  0.84942372  0.57474482  1
  O  O106  1  0.51222100  0.64720201  0.57899634  1
  O  O107  1  0.15176759  0.50259131  0.58027129  1
  O  O108  1  0.31091894  0.83197280  0.25475466  1
  O  O109  1  0.51339820  0.67367968  0.25466376  1
  O  O110  1  0.15306905  0.46278486  0.25399365  1
  O  O111  1  0.29725555  0.46602950  0.75960304  1
  O  O112  1  0.15046513  0.68432951  0.75868760  1
  O  O113  1  0.51719329  0.84224936  0.75551214  1
