# generated using pymatgen
data_MgCO3
_symmetry_space_group_name_H-M   'P 1'
_cell_length_a   9.52529817
_cell_length_b   7.14228800
_cell_length_c   8.24341312
_cell_angle_alpha   90.00000000
_cell_angle_beta   102.90277733
_cell_angle_gamma   90.00000000
_symmetry_Int_Tables_number   1
_chemical_formula_structural   MgCO3
_chemical_formula_sum   'Mg12 C12 O36'
_cell_volume   546.65888600
_cell_formula_units_Z   12
loop_
 _symmetry_equiv_pos_site_id
 _symmetry_equiv_pos_as_xyz
  1  'x, y, z'
loop_
 _atom_site_type_symbol
 _atom_site_label
 _atom_site_symmetry_multiplicity
 _atom_site_fract_x
 _atom_site_fract_y
 _atom_site_fract_z
 _atom_site_occupancy
  Mg  Mg0  1  0.52689600  0.00000000  0.70015900  1
  Mg  Mg1  1  0.47310400  0.00000000  0.29984100  1
  Mg  Mg2  1  0.02689600  0.50000000  0.70015900  1
  Mg  Mg3  1  0.97310400  0.50000000  0.29984100  1
  Mg  Mg4  1  0.15819200  0.00000000  0.34582900  1
  Mg  Mg5  1  0.84180800  0.00000000  0.65417100  1
  Mg  Mg6  1  0.65819200  0.50000000  0.34582900  1
  Mg  Mg7  1  0.34180800  0.50000000  0.65417100  1
  Mg  Mg8  1  0.00000000  0.22998300  0.00000000  1
  Mg  Mg9  1  0.00000000  0.77001700  0.00000000  1
  Mg  Mg10  1  0.50000000  0.72998300  0.00000000  1
  Mg  Mg11  1  0.50000000  0.27001700  0.00000000  1
  C  C12  1  0.13462500  0.17566800  0.70092800  1
  C  C13  1  0.86537500  0.17566800  0.29907200  1
  C  C14  1  0.86537500  0.82433200  0.29907200  1
  C  C15  1  0.13462500  0.82433200  0.70092800  1
  C  C16  1  0.63462500  0.67566800  0.70092800  1
  C  C17  1  0.36537500  0.67566800  0.29907200  1
  C  C18  1  0.36537500  0.32433200  0.29907200  1
  C  C19  1  0.63462500  0.32433200  0.70092800  1
  C  C20  1  0.25103300  0.00000000  0.95675200  1
  C  C21  1  0.74896700  0.00000000  0.04324800  1
  C  C22  1  0.75103300  0.50000000  0.95675200  1
  C  C23  1  0.24896700  0.50000000  0.04324800  1
  O  O24  1  0.24887600  0.16092800  0.84652000  1
  O  O25  1  0.75112400  0.16092800  0.15348000  1
  O  O26  1  0.75112400  0.83907200  0.15348000  1
  O  O27  1  0.24887600  0.83907200  0.84652000  1
  O  O28  1  0.74887600  0.66092800  0.84652000  1
  O  O29  1  0.25112400  0.66092800  0.15348000  1
  O  O30  1  0.25112400  0.33907200  0.15348000  1
  O  O31  1  0.74887600  0.33907200  0.84652000  1
  O  O32  1  0.33625000  0.17821400  0.38777400  1
  O  O33  1  0.66375000  0.17821400  0.61222600  1
  O  O34  1  0.66375000  0.82178600  0.61222600  1
  O  O35  1  0.33625000  0.82178600  0.38777400  1
  O  O36  1  0.83625000  0.67821400  0.38777400  1
  O  O37  1  0.16375000  0.67821400  0.61222600  1
  O  O38  1  0.16375000  0.32178600  0.61222600  1
  O  O39  1  0.83625000  0.32178600  0.38777400  1
  O  O40  1  0.99949600  0.20016900  0.25897300  1
  O  O41  1  0.00050400  0.20016900  0.74102700  1
  O  O42  1  0.00050400  0.79983100  0.74102700  1
  O  O43  1  0.99949600  0.79983100  0.25897300  1
  O  O44  1  0.49949600  0.70016900  0.25897300  1
  O  O45  1  0.50050400  0.70016900  0.74102700  1
  O  O46  1  0.50050400  0.29983100  0.74102700  1
  O  O47  1  0.49949600  0.29983100  0.25897300  1
  O  O48  1  0.14125400  0.00000000  0.03487100  1
  O  O49  1  0.85874600  0.00000000  0.96512900  1
  O  O50  1  0.64125400  0.50000000  0.03487100  1
  O  O51  1  0.35874600  0.50000000  0.96512900  1
  O  O52  1  0.38613700  0.00000000  0.05359200  1
  O  O53  1  0.61386300  0.00000000  0.94640800  1
  O  O54  1  0.88613700  0.50000000  0.05359200  1
  O  O55  1  0.11386300  0.50000000  0.94640800  1
  O  O56  1  0.13760900  0.00000000  0.60532200  1
  O  O57  1  0.86239100  0.00000000  0.39467800  1
  O  O58  1  0.63760900  0.50000000  0.60532200  1
  O  O59  1  0.36239100  0.50000000  0.39467800  1
