# generated using pymatgen
data_Na3ScZn3(SO4)6
_symmetry_space_group_name_H-M   'P 1'
_cell_length_a   8.79281976
_cell_length_b   8.79521336
_cell_length_c   22.70282860
_cell_angle_alpha   90.01593154
_cell_angle_beta   89.97276325
_cell_angle_gamma   120.06158045
_symmetry_Int_Tables_number   1
_chemical_formula_structural   Na3ScZn3(SO4)6
_chemical_formula_sum   'Na9 Sc3 Zn9 S18 O72'
_cell_volume   1519.55098947
_cell_formula_units_Z   3
loop_
 _symmetry_equiv_pos_site_id
 _symmetry_equiv_pos_as_xyz
  1  'x, y, z'
loop_
 _atom_site_type_symbol
 _atom_site_label
 _atom_site_symmetry_multiplicity
 _atom_site_fract_x
 _atom_site_fract_y
 _atom_site_fract_z
 _atom_site_occupancy
  Na  Na0  1  0.63447797  0.99933571  0.24925444  1
  Na  Na1  1  0.36548086  0.36463888  0.24912019  1
  Na  Na2  1  0.03203383  0.69907140  0.58497443  1
  Na  Na3  1  0.99929552  0.00633907  0.49946446  1
  Na  Na4  1  0.99999418  0.99954302  0.99901926  1
  Na  Na5  1  0.66613822  0.33271979  0.83093944  1
  Na  Na6  1  0.67415095  0.34016405  0.33436448  1
  Na  Na7  1  0.32560556  0.66589670  0.16182172  1
  Na  Na8  1  0.34055545  0.66597670  0.66752603  1
  Sc  Sc9  1  0.66729098  0.33410898  0.98094194  1
  Sc  Sc10  1  0.66509655  0.33136597  0.48155822  1
  Sc  Sc11  1  0.33393710  0.66672655  0.81421204  1
  Zn  Zn12  1  0.00006092  0.99792962  0.35203825  1
  Zn  Zn13  1  0.00008526  0.00079252  0.84935841  1
  Zn  Zn14  1  0.99931925  0.00650527  0.65403514  1
  Zn  Zn15  1  0.99985755  0.99714118  0.14601143  1
  Zn  Zn16  1  0.66390612  0.33050947  0.68640927  1
  Zn  Zn17  1  0.67314179  0.33919390  0.17722674  1
  Zn  Zn18  1  0.33263164  0.66680604  0.01609872  1
  Zn  Zn19  1  0.33938855  0.66585303  0.51561437  1
  Zn  Zn20  1  0.32683929  0.66587671  0.32077932  1
  S  S21  1  0.28939968  0.99696232  0.24995436  1
  S  S22  1  0.71055727  0.70753381  0.25016304  1
  S  S23  1  0.99998892  0.29280533  0.25002197  1
  S  S24  1  0.29252925  0.28973672  0.74996872  1
  S  S25  1  0.99730291  0.70687895  0.74940439  1
  S  S26  1  0.71040705  0.00276698  0.74993677  1
  S  S27  1  0.95965273  0.33130620  0.58404825  1
  S  S28  1  0.37375103  0.04024325  0.58430874  1
  S  S29  1  0.66401523  0.62613115  0.58438253  1
  S  S30  1  0.96257043  0.62819557  0.08381901  1
  S  S31  1  0.66578283  0.03727689  0.08443066  1
  S  S32  1  0.37131860  0.33413936  0.08443449  1
  S  S33  1  0.62740603  0.67053970  0.91751627  1
  S  S34  1  0.04318498  0.37262088  0.91746758  1
  S  S35  1  0.32950340  0.95695507  0.91744035  1
  S  S36  1  0.62746264  0.95765458  0.41602994  1
  S  S37  1  0.33035063  0.37266459  0.41607105  1
  S  S38  1  0.04205970  0.66956557  0.41723453  1
  O  O39  1  0.21396318  0.03192359  0.30286107  1
  O  O40  1  0.81500819  0.78604957  0.30354764  1
  O  O41  1  0.96697672  0.18181916  0.30305709  1
  O  O42  1  0.21347621  0.18452334  0.80306669  1
  O  O43  1  0.97186000  0.78855514  0.80179296  1
  O  O44  1  0.81544016  0.02900108  0.80303818  1
  O  O45  1  0.78328182  0.96898017  0.69621817  1
  O  O46  1  0.18642722  0.21657876  0.69623859  1
  O  O47  1  0.02951355  0.81105541  0.69432838  1
  O  O48  1  0.78655275  0.81852175  0.19768774  1
  O  O49  1  0.03287904  0.21435574  0.19745253  1
  O  O50  1  0.18461974  0.97112424  0.19698929  1
  O  O51  1  0.88041301  0.36579169  0.63586299  1
  O  O52  1  0.48186963  0.12014963  0.63634489  1
  O  O53  1  0.63810152  0.51796026  0.63657812  1
  O  O54  1  0.88441112  0.52135782  0.13745949  1
  O  O55  1  0.63772382  0.11416138  0.13946558  1
  O  O56  1  0.47581634  0.36141904  0.13947611  1
  O  O57  1  0.45936196  0.30803159  0.03255249  1
  O  O58  1  0.84988334  0.54244898  0.03125028  1
  O  O59  1  0.69211877  0.15147863  0.03255591  1
  O  O60  1  0.45636861  0.14890691  0.53054579  1
  O  O61  1  0.69591590  0.54353627  0.53086673  1
  O  O62  1  0.85025287  0.30685065  0.53028807  1
  O  O63  1  0.54710553  0.69562119  0.97039093  1
  O  O64  1  0.14851589  0.45275035  0.97031683  1
  O  O65  1  0.30427527  0.85163610  0.97032464  1
  O  O66  1  0.54507660  0.85065877  0.46846085  1
  O  O67  1  0.30468034  0.45450228  0.46845468  1
  O  O68  1  0.14528556  0.69484436  0.47141779  1
  O  O69  1  0.11810535  0.63674239  0.36416682  1
  O  O70  1  0.52277014  0.88511630  0.36115171  1
  O  O71  1  0.36326854  0.47773132  0.36120706  1
  O  O72  1  0.12291210  0.48362288  0.86419009  1
  O  O73  1  0.36079682  0.87722824  0.86418312  1
  O  O74  1  0.51644080  0.63919158  0.86424506  1
  O  O75  1  0.02211500  0.82576630  0.41086993  1
  O  O76  1  0.80424498  0.97860120  0.41031369  1
  O  O77  1  0.17408858  0.19583303  0.41026692  1
  O  O78  1  0.02165661  0.19644247  0.91029292  1
  O  O79  1  0.17463205  0.97807939  0.91023061  1
  O  O80  1  0.80373958  0.82528209  0.91023421  1
  O  O81  1  0.97716537  0.17395600  0.58880185  1
  O  O82  1  0.19428881  0.01860474  0.58840699  1
  O  O83  1  0.82861144  0.80117331  0.58848614  1
  O  O84  1  0.97577901  0.80245345  0.08878077  1
  O  O85  1  0.82689604  0.02428230  0.08925387  1
  O  O86  1  0.19688956  0.17317121  0.08917930  1
  O  O87  1  0.68886009  0.15888225  0.74378723  1
  O  O88  1  0.47045280  0.31179499  0.74389520  1
  O  O89  1  0.84096079  0.52916144  0.74354578  1
  O  O90  1  0.68334366  0.52652655  0.24419604  1
  O  O91  1  0.83899729  0.30837531  0.24381154  1
  O  O92  1  0.47132322  0.15920833  0.24458376  1
  O  O93  1  0.64274942  0.50798239  0.92311126  1
  O  O94  1  0.86500644  0.35679803  0.92310506  1
  O  O95  1  0.49213069  0.13510418  0.92315849  1
  O  O96  1  0.64437388  0.13610698  0.42264829  1
  O  O97  1  0.49188249  0.35583150  0.42277804  1
  O  O98  1  0.86296601  0.50804655  0.42328149  1
  O  O99  1  0.35575797  0.49262030  0.07772024  1
  O  O100  1  0.13744229  0.64500587  0.07716789  1
  O  O101  1  0.50733068  0.86291881  0.07771468  1
  O  O102  1  0.35063597  0.86045346  0.57705099  1
  O  O103  1  0.50800699  0.64510332  0.57650844  1
  O  O104  1  0.13497946  0.49479486  0.57654391  1
  O  O105  1  0.31628137  0.84292054  0.25628392  1
  O  O106  1  0.52882619  0.68813253  0.25597007  1
  O  O107  1  0.16142999  0.46944805  0.25672300  1
  O  O108  1  0.31118615  0.46945946  0.75657545  1
  O  O109  1  0.15849135  0.68921956  0.75610760  1
  O  O110  1  0.53044556  0.84169415  0.75651210  1
