# generated using pymatgen
data_NaZrSn(PO4)3
_symmetry_space_group_name_H-M   'P 1'
_cell_length_a   8.81394840
_cell_length_b   8.81394811
_cell_length_c   23.20087896
_cell_angle_alpha   90.00000000
_cell_angle_beta   90.00000000
_cell_angle_gamma   120.00000108
_symmetry_Int_Tables_number   1
_chemical_formula_structural   NaZrSn(PO4)3
_chemical_formula_sum   'Na6 Zr6 Sn6 P18 O72'
_cell_volume   1560.90351457
_cell_formula_units_Z   6
loop_
 _symmetry_equiv_pos_site_id
 _symmetry_equiv_pos_as_xyz
  1  'x, y, z'
loop_
 _atom_site_type_symbol
 _atom_site_label
 _atom_site_symmetry_multiplicity
 _atom_site_fract_x
 _atom_site_fract_y
 _atom_site_fract_z
 _atom_site_occupancy
  Na  Na0  1  -0.00000000  -0.00000000  0.49957386  1
  Na  Na1  1  -0.00000000  -0.00000000  0.99947746  1
  Na  Na2  1  0.66666700  0.33333300  0.83381159  1
  Na  Na3  1  0.66666700  0.33333300  0.33287469  1
  Na  Na4  1  0.33333300  0.66666700  0.16617366  1
  Na  Na5  1  0.33333300  0.66666700  0.66708264  1
  Zr  Zr6  1  -0.00000000  -0.00000000  0.64745292  1
  Zr  Zr7  1  -0.00000000  -0.00000000  0.14546598  1
  Zr  Zr8  1  0.66666700  0.33333300  0.68746815  1
  Zr  Zr9  1  0.66666700  0.33333300  0.47979228  1
  Zr  Zr10  1  0.33333300  0.66666700  0.51895833  1
  Zr  Zr11  1  0.33333300  0.66666700  0.31293793  1
  Sn  Sn12  1  -0.00000000  -0.00000000  0.35131428  1
  Sn  Sn13  1  -0.00000000  -0.00000000  0.85283363  1
  Sn  Sn14  1  0.66666700  0.33333300  0.18526316  1
  Sn  Sn15  1  0.66666700  0.33333300  0.98035791  1
  Sn  Sn16  1  0.33333300  0.66666700  0.01861456  1
  Sn  Sn17  1  0.33333300  0.66666700  0.81514909  1
  P  P18  1  0.29158348  0.00332216  0.24967117  1
  P  P19  1  0.71173869  0.70841652  0.24967117  1
  P  P20  1  0.99667784  0.28826131  0.24967117  1
  P  P21  1  0.28829051  0.29197302  0.75164985  1
  P  P22  1  0.00368251  0.71170949  0.75164985  1
  P  P23  1  0.70802698  0.99631749  0.75164985  1
  P  P24  1  0.95718844  0.33342044  0.58338153  1
  P  P25  1  0.37623300  0.04281156  0.58338153  1
  P  P26  1  0.66657956  0.62376700  0.58338153  1
  P  P27  1  0.95604917  0.61917009  0.08238881  1
  P  P28  1  0.66312193  0.04395083  0.08238881  1
  P  P29  1  0.38082991  0.33687807  0.08238881  1
  P  P30  1  0.62323719  0.66665984  0.91672114  1
  P  P31  1  0.04342166  0.37676281  0.91672114  1
  P  P32  1  0.33334016  0.95657834  0.91672114  1
  P  P33  1  0.62768840  0.95753955  0.41574161  1
  P  P34  1  0.32985015  0.37231160  0.41574161  1
  P  P35  1  0.04246045  0.67014985  0.41574161  1
  O  O36  1  0.21315679  0.03565287  0.30477290  1
  O  O37  1  0.82249608  0.78684321  0.30477290  1
  O  O38  1  0.96434713  0.17750392  0.30477290  1
  O  O39  1  0.21024302  0.17734453  0.80581114  1
  O  O40  1  0.96710152  0.78975698  0.80581114  1
  O  O41  1  0.82265547  0.03289848  0.80581114  1
  O  O42  1  0.78954431  0.96728920  0.69718757  1
  O  O43  1  0.17774488  0.21045569  0.69718757  1
  O  O44  1  0.03271080  0.82225512  0.69718757  1
  O  O45  1  0.79333282  0.82208981  0.19606041  1
  O  O46  1  0.02875699  0.20666718  0.19606041  1
  O  O47  1  0.17791019  0.97124301  0.19606041  1
  O  O48  1  0.87421435  0.36320836  0.63741807  1
  O  O49  1  0.48899501  0.12578565  0.63741807  1
  O  O50  1  0.63679164  0.51100499  0.63741807  1
  O  O51  1  0.87878018  0.50955327  0.13777235  1
  O  O52  1  0.63077410  0.12121982  0.13777235  1
  O  O53  1  0.49044673  0.36922590  0.13777235  1
  O  O54  1  0.45718317  0.30027308  0.02798264  1
  O  O55  1  0.84309092  0.54281683  0.02798264  1
  O  O56  1  0.69972692  0.15690908  0.02798264  1
  O  O57  1  0.45866261  0.15529321  0.52940455  1
  O  O58  1  0.69663160  0.54133739  0.52940455  1
  O  O59  1  0.84470679  0.30336840  0.52940455  1
  O  O60  1  0.54555993  0.70119037  0.97145551  1
  O  O61  1  0.15562943  0.45444007  0.97145551  1
  O  O62  1  0.29880963  0.84437057  0.97145551  1
  O  O63  1  0.54469436  0.84560763  0.46998859  1
  O  O64  1  0.30091226  0.45530564  0.46998859  1
  O  O65  1  0.15439237  0.69908774  0.46998859  1
  O  O66  1  0.12529912  0.63805835  0.36237327  1
  O  O67  1  0.51275823  0.87470088  0.36237327  1
  O  O68  1  0.36194165  0.48724177  0.36237327  1
  O  O69  1  0.12080640  0.48870214  0.86203588  1
  O  O70  1  0.36789474  0.87919360  0.86203588  1
  O  O71  1  0.51129786  0.63210526  0.86203588  1
  O  O72  1  0.02408245  0.83556671  0.40971597  1
  O  O73  1  0.81148426  0.97591755  0.40971597  1
  O  O74  1  0.16443329  0.18851574  0.40971597  1
  O  O75  1  0.02407860  0.19213049  0.91019074  1
  O  O76  1  0.16805189  0.97592140  0.91019074  1
  O  O77  1  0.80786951  0.83194811  0.91019074  1
  O  O78  1  0.97628658  0.16993372  0.58993203  1
  O  O79  1  0.19364714  0.02371342  0.58993203  1
  O  O80  1  0.83006628  0.80635286  0.58993203  1
  O  O81  1  0.97569570  0.80223056  0.08946410  1
  O  O82  1  0.82653487  0.02430430  0.08946410  1
  O  O83  1  0.19776944  0.17346513  0.08946410  1
  O  O84  1  0.68961805  0.16028449  0.74430858  1
  O  O85  1  0.47066743  0.31038195  0.74430858  1
  O  O86  1  0.83971551  0.52933257  0.74430858  1
  O  O87  1  0.69125139  0.52336951  0.24329441  1
  O  O88  1  0.83211912  0.30874861  0.24329441  1
  O  O89  1  0.47663049  0.16788088  0.24329441  1
  O  O90  1  0.64260391  0.50138491  0.92323090  1
  O  O91  1  0.85878200  0.35739609  0.92323090  1
  O  O92  1  0.49861509  0.14121800  0.92323090  1
  O  O93  1  0.64504394  0.13905820  0.42283682  1
  O  O94  1  0.49401525  0.35495606  0.42283682  1
  O  O95  1  0.86094180  0.50598475  0.42283682  1
  O  O96  1  0.35913207  0.50099752  0.07640917  1
  O  O97  1  0.14186445  0.64086793  0.07640917  1
  O  O98  1  0.49900248  0.85813555  0.07640917  1
  O  O99  1  0.35705357  0.86021905  0.57680519  1
  O  O100  1  0.50316448  0.64294643  0.57680519  1
  O  O101  1  0.13978095  0.49683552  0.57680519  1
  O  O102  1  0.31045391  0.83971002  0.25653727  1
  O  O103  1  0.52925511  0.68954609  0.25653727  1
  O  O104  1  0.16028998  0.47074489  0.25653727  1
  O  O105  1  0.30809306  0.47668539  0.75725712  1
  O  O106  1  0.16859133  0.69190694  0.75725712  1
  O  O107  1  0.52331461  0.83140867  0.75725712  1
