# generated using pymatgen
data_Lu2MgCr2O8
_symmetry_space_group_name_H-M   'P 1'
_cell_length_a   6.09605972
_cell_length_b   6.11851145
_cell_length_c   5.96888684
_cell_angle_alpha   105.91420914
_cell_angle_beta   105.77077663
_cell_angle_gamma   117.79005018
_symmetry_Int_Tables_number   1
_chemical_formula_structural   Lu2MgCr2O8
_chemical_formula_sum   'Lu2 Mg1 Cr2 O8'
_cell_volume   167.20888776
_cell_formula_units_Z   1
loop_
 _symmetry_equiv_pos_site_id
 _symmetry_equiv_pos_as_xyz
  1  'x, y, z'
loop_
 _atom_site_type_symbol
 _atom_site_label
 _atom_site_symmetry_multiplicity
 _atom_site_fract_x
 _atom_site_fract_y
 _atom_site_fract_z
 _atom_site_occupancy
  Lu  Lu0  1  0.37688300  0.62682300  0.75355200  1
  Lu  Lu1  1  0.59473500  0.34467500  0.18937000  1
  Mg  Mg2  1  0.88271500  0.63251900  0.76523200  1
  Cr  Cr3  1  0.87272900  0.12291400  0.74565800  1
  Cr  Cr4  1  0.15130300  0.90152800  0.30266500  1
  O  O5  1  0.35264400  0.27065000  0.46906800  1
  O  O6  1  0.86471200  0.30881700  0.55920700  1
  O  O7  1  0.24555600  0.31782100  0.92752900  1
  O  O8  1  0.27661900  0.86694500  0.05130900  1
  O  O9  1  0.11633600  0.69841500  0.46915800  1
  O  O10  1  0.69446500  0.75038500  0.55941600  1
  O  O11  1  0.68208200  0.10966600  0.92744100  1
  O  O12  1  0.77463700  0.68426000  0.05122600  1
