# generated using pymatgen
data_MgGe4(MoO6)2
_symmetry_space_group_name_H-M   'P 1'
_cell_length_a   5.61187194
_cell_length_b   7.20096105
_cell_length_c   7.20102679
_cell_angle_alpha   79.56123340
_cell_angle_beta   76.31635710
_cell_angle_gamma   76.31524080
_symmetry_Int_Tables_number   1
_chemical_formula_structural   MgGe4(MoO6)2
_chemical_formula_sum   'Mg1 Ge4 Mo2 O12'
_cell_volume   272.28643853
_cell_formula_units_Z   1
loop_
 _symmetry_equiv_pos_site_id
 _symmetry_equiv_pos_as_xyz
  1  'x, y, z'
loop_
 _atom_site_type_symbol
 _atom_site_label
 _atom_site_symmetry_multiplicity
 _atom_site_fract_x
 _atom_site_fract_y
 _atom_site_fract_z
 _atom_site_occupancy
  Mg  Mg0  1  0.74989900  0.58044800  0.41955100  1
  Ge  Ge1  1  0.75376700  0.36764600  0.16353400  1
  Ge  Ge2  1  0.74625800  0.83643900  0.63235300  1
  Ge  Ge3  1  0.23828600  0.63064400  0.81397900  1
  Ge  Ge4  1  0.26172500  0.18604800  0.36935200  1
  Mo  Mo5  1  0.75000700  0.91566500  0.08433500  1
  Mo  Mo6  1  0.25001000  0.11045100  0.88954600  1
  O  O7  1  0.47582900  0.34374100  0.33888000  1
  O  O8  1  0.02421300  0.66111900  0.65627300  1
  O  O9  1  0.54308700  0.65722900  0.66760200  1
  O  O10  1  0.95691300  0.33243000  0.34275900  1
  O  O11  1  0.22763700  0.07669100  0.60560700  1
  O  O12  1  0.27237500  0.39438500  0.92333400  1
  O  O13  1  0.79482500  0.86203100  0.37988700  1
  O  O14  1  0.70514200  0.62011900  0.13792500  1
  O  O15  1  0.85334400  0.19587800  0.00621100  1
  O  O16  1  0.64667000  0.99377600  0.80412100  1
  O  O17  1  0.14255500  0.82217000  0.95728700  1
  O  O18  1  0.35745800  0.04272100  0.17783500  1
