# generated using pymatgen
data_PbSeO4
_symmetry_space_group_name_H-M   'P 1'
_cell_length_a   7.43366695
_cell_length_b   6.97765326
_cell_length_c   8.78504137
_cell_angle_alpha   52.70553259
_cell_angle_beta   90.00000000
_cell_angle_gamma   90.00000000
_symmetry_Int_Tables_number   1
_chemical_formula_structural   PbSeO4
_chemical_formula_sum   'Pb4 Se4 O16'
_cell_volume   362.50495291
_cell_formula_units_Z   4
loop_
 _symmetry_equiv_pos_site_id
 _symmetry_equiv_pos_as_xyz
  1  'x, y, z'
loop_
 _atom_site_type_symbol
 _atom_site_label
 _atom_site_symmetry_multiplicity
 _atom_site_fract_x
 _atom_site_fract_y
 _atom_site_fract_z
 _atom_site_occupancy
  Pb  Pb0  1  0.64802328  0.81226242  0.28427925  1
  Pb  Pb1  1  0.14802328  0.18773758  0.21572075  1
  Pb  Pb2  1  0.35197672  0.18773758  0.71572075  1
  Pb  Pb3  1  0.85197672  0.81226242  0.78427925  1
  Se  Se4  1  0.66429769  0.31346665  0.30474212  1
  Se  Se5  1  0.16429769  0.68653335  0.19525788  1
  Se  Se6  1  0.33570231  0.68653335  0.69525788  1
  Se  Se7  1  0.83570231  0.31346665  0.80474212  1
  O  O8  1  0.70833343  0.59352320  0.11816687  1
  O  O9  1  0.20833343  0.40647680  0.38183313  1
  O  O10  1  0.29166657  0.40647680  0.88183313  1
  O  O11  1  0.79166657  0.59352320  0.61816687  1
  O  O12  1  0.60879835  0.34430160  0.47298182  1
  O  O13  1  0.10879835  0.65569840  0.02701818  1
  O  O14  1  0.39120165  0.65569840  0.52701818  1
  O  O15  1  0.89120165  0.34430160  0.97298182  1
  O  O16  1  0.99590221  0.18783491  0.76249108  1
  O  O17  1  0.49590221  0.81216509  0.73750892  1
  O  O18  1  0.00409779  0.81216509  0.23750892  1
  O  O19  1  0.50409779  0.18783491  0.26249108  1
  O  O20  1  0.65782698  0.13289855  0.88244695  1
  O  O21  1  0.15782698  0.86710145  0.61755305  1
  O  O22  1  0.34217302  0.86710145  0.11755305  1
  O  O23  1  0.84217302  0.13289855  0.38244695  1
