# generated using pymatgen
data_K3HoMgV2O8
_symmetry_space_group_name_H-M   'P 1'
_cell_length_a   6.15213357
_cell_length_b   6.25981723
_cell_length_c   8.05121325
_cell_angle_alpha   87.01533269
_cell_angle_beta   89.97363420
_cell_angle_gamma   119.42849453
_symmetry_Int_Tables_number   1
_chemical_formula_structural   K3HoMgV2O8
_chemical_formula_sum   'K3 Ho1 Mg1 V2 O8'
_cell_volume   269.56743802
_cell_formula_units_Z   1
loop_
 _symmetry_equiv_pos_site_id
 _symmetry_equiv_pos_as_xyz
  1  'x, y, z'
loop_
 _atom_site_type_symbol
 _atom_site_label
 _atom_site_symmetry_multiplicity
 _atom_site_fract_x
 _atom_site_fract_y
 _atom_site_fract_z
 _atom_site_occupancy
  K  K0  1  0.71103200  0.42250200  0.72727600  1
  K  K1  1  0.28896800  0.57749800  0.27272400  1
  K  K2  1  0.00000000  0.00000000  0.00000000  1
  Ho  Ho3  1  0.00000000  0.00000000  0.50000000  1
  Mg  Mg4  1  0.50000000  0.00000000  0.50000000  1
  V  V5  1  0.69107100  0.38154100  0.24620400  1
  V  V6  1  0.30892900  0.61845900  0.75379600  1
  O  O7  1  0.67396100  0.34765800  0.03701100  1
  O  O8  1  0.32603900  0.65234300  0.96298900  1
  O  O9  1  0.18795900  0.81739000  0.63985200  1
  O  O10  1  0.15604800  0.31223700  0.68266400  1
  O  O11  1  0.62924000  0.81738500  0.63979500  1
  O  O12  1  0.81204100  0.18261000  0.36014800  1
  O  O13  1  0.84395200  0.68776300  0.31733600  1
  O  O14  1  0.37076000  0.18261500  0.36020500  1
