# generated using pymatgen
data_Rb2CoI4
_symmetry_space_group_name_H-M   'P 1'
_cell_length_a   7.71296899
_cell_length_b   8.15719131
_cell_length_c   10.43412223
_cell_angle_alpha   90.00000000
_cell_angle_beta   109.44846029
_cell_angle_gamma   90.00000000
_symmetry_Int_Tables_number   1
_chemical_formula_structural   Rb2CoI4
_chemical_formula_sum   'Rb4 Co2 I8'
_cell_volume   619.01738804
_cell_formula_units_Z   2
loop_
 _symmetry_equiv_pos_site_id
 _symmetry_equiv_pos_as_xyz
  1  'x, y, z'
loop_
 _atom_site_type_symbol
 _atom_site_label
 _atom_site_symmetry_multiplicity
 _atom_site_fract_x
 _atom_site_fract_y
 _atom_site_fract_z
 _atom_site_occupancy
  Rb  Rb0  1  0.30150765  0.75000000  0.96265943  1
  Rb  Rb1  1  0.69849380  0.25000000  0.03735159  1
  Rb  Rb2  1  0.79760015  0.25000000  0.58579651  1
  Rb  Rb3  1  0.20250318  0.75000000  0.41434198  1
  Co  Co4  1  0.30335496  0.25000000  0.21508352  1
  Co  Co5  1  0.69668401  0.75000000  0.78499912  1
  I  I6  1  0.86178049  0.75000000  0.04698279  1
  I  I7  1  0.13821716  0.25000000  0.95303470  1
  I  I8  1  0.91630513  0.75000000  0.64419545  1
  I  I9  1  0.08348015  0.25000000  0.35567043  1
  I  I10  1  0.48183522  0.00153455  0.72226301  1
  I  I11  1  0.51820095  0.50151063  0.27767873  1
  I  I12  1  0.51820095  0.99848937  0.27767873  1
  I  I13  1  0.48183522  0.49846545  0.72226301  1
