# generated using pymatgen
data_Na4Ta2Ti2Si5SO24
_symmetry_space_group_name_H-M   'P 1'
_cell_length_a   8.89250930
_cell_length_b   8.89438250
_cell_length_c   22.54498368
_cell_angle_alpha   90.10290087
_cell_angle_beta   89.90949272
_cell_angle_gamma   119.85290540
_symmetry_Int_Tables_number   1
_chemical_formula_structural   Na4Ta2Ti2Si5SO24
_chemical_formula_sum   'Na12 Ta6 Ti6 Si15 S3 O72'
_cell_volume   1546.54181166
_cell_formula_units_Z   3
loop_
 _symmetry_equiv_pos_site_id
 _symmetry_equiv_pos_as_xyz
  1  'x, y, z'
loop_
 _atom_site_type_symbol
 _atom_site_label
 _atom_site_symmetry_multiplicity
 _atom_site_fract_x
 _atom_site_fract_y
 _atom_site_fract_z
 _atom_site_occupancy
  Na  Na0  1  0.63821721  0.99983664  0.25038076  1
  Na  Na1  1  0.99750178  0.36314838  0.75012819  1
  Na  Na2  1  0.30058165  0.33751557  0.58128473  1
  Na  Na3  1  0.66537876  0.96755271  0.58100286  1
  Na  Na4  1  0.03038176  0.33142204  0.08406169  1
  Na  Na5  1  0.96378751  0.66720365  0.91502536  1
  Na  Na6  1  0.99939688  0.99761821  0.49325562  1
  Na  Na7  1  0.99058352  0.99685896  0.00110979  1
  Na  Na8  1  0.65409635  0.32932793  0.83544301  1
  Na  Na9  1  0.66205758  0.33791090  0.33398963  1
  Na  Na10  1  0.33059993  0.67153540  0.16483084  1
  Na  Na11  1  0.33044348  0.67460246  0.66397676  1
  Ta  Ta12  1  0.99954771  0.99535907  0.64606102  1
  Ta  Ta13  1  0.66457053  0.33482299  0.68817908  1
  Ta  Ta14  1  0.67284099  0.33197044  0.18911597  1
  Ta  Ta15  1  0.65865914  0.32570577  0.47802490  1
  Ta  Ta16  1  0.33960696  0.66617084  0.31063376  1
  Ta  Ta17  1  0.33628468  0.65944445  0.81158671  1
  Ti  Ti18  1  0.99972392  0.01224531  0.35132763  1
  Ti  Ti19  1  0.98812193  0.00588807  0.85230267  1
  Ti  Ti20  1  0.98781396  0.98300636  0.14938967  1
  Ti  Ti21  1  0.69164320  0.34578714  0.98078545  1
  Ti  Ti22  1  0.34417478  0.66979993  0.02038088  1
  Ti  Ti23  1  0.34201902  0.66260022  0.51934174  1
  Si  Si24  1  0.27952768  0.00029149  0.25051320  1
  Si  Si25  1  0.71987652  0.71219186  0.25216548  1
  Si  Si26  1  0.00777257  0.28743555  0.24787945  1
  Si  Si27  1  0.28700692  0.27953784  0.75187634  1
  Si  Si28  1  0.00037715  0.71547075  0.75328860  1
  Si  Si29  1  0.70708969  0.99679124  0.74990553  1
  Si  Si30  1  0.96006448  0.34167810  0.58267123  1
  Si  Si31  1  0.37504333  0.03751040  0.58303557  1
  Si  Si32  1  0.67076413  0.62260948  0.58165398  1
  Si  Si33  1  0.96291660  0.63198799  0.08295935  1
  Si  Si34  1  0.66459896  0.03941178  0.08179444  1
  Si  Si35  1  0.62537721  0.66459075  0.91860004  1
  Si  Si36  1  0.04880315  0.37311425  0.91873297  1
  Si  Si37  1  0.62738914  0.95314225  0.41676448  1
  Si  Si38  1  0.32823463  0.37230189  0.41689105  1
  S  S39  1  0.38121470  0.33263436  0.08219662  1
  S  S40  1  0.33768724  0.95821025  0.91760598  1
  S  S41  1  0.04722635  0.66794152  0.41759486  1
  O  O42  1  0.19219466  0.03129295  0.30881232  1
  O  O43  1  0.83647583  0.80404326  0.30957004  1
  O  O44  1  0.96029122  0.16226897  0.30590215  1
  O  O45  1  0.19017578  0.16102517  0.80869436  1
  O  O46  1  0.97085517  0.80223396  0.81186964  1
  O  O47  1  0.83589862  0.03688500  0.80638327  1
  O  O48  1  0.79639837  0.96854223  0.69039694  1
  O  O49  1  0.16675458  0.20320356  0.69163015  1
  O  O50  1  0.03006266  0.83514595  0.69389169  1
  O  O51  1  0.79755777  0.83709391  0.19334864  1
  O  O52  1  0.03246677  0.20243771  0.18769857  1
  O  O53  1  0.16010884  0.96941465  0.19181444  1
  O  O54  1  0.86763611  0.36345905  0.64278004  1
  O  O55  1  0.50345568  0.13469976  0.64000546  1
  O  O56  1  0.63222955  0.49698632  0.63964393  1
  O  O57  1  0.85892755  0.49576214  0.13815525  1
  O  O58  1  0.63504893  0.13153835  0.14143241  1
  O  O59  1  0.48690665  0.35968131  0.13620304  1
  O  O60  1  0.46393386  0.31018819  0.02889510  1
  O  O61  1  0.84058798  0.53674522  0.02395647  1
  O  O62  1  0.69319365  0.17369497  0.02674519  1
  O  O63  1  0.46612957  0.17027677  0.52657175  1
  O  O64  1  0.70009703  0.52968794  0.52474937  1
  O  O65  1  0.82739183  0.29842320  0.52705878  1
  O  O66  1  0.52472031  0.69517977  0.97433643  1
  O  O67  1  0.16628682  0.47402793  0.97627625  1
  O  O68  1  0.30455426  0.84312595  0.97009364  1
  O  O69  1  0.52574692  0.83525787  0.47559550  1
  O  O70  1  0.30615445  0.46820357  0.47646282  1
  O  O71  1  0.15296425  0.68931045  0.47091116  1
  O  O72  1  0.12653677  0.63922595  0.36346443  1
  O  O73  1  0.50210771  0.86572146  0.35846578  1
  O  O74  1  0.35684425  0.50129848  0.36057994  1
  O  O75  1  0.13229260  0.50061388  0.85958011  1
  O  O76  1  0.36166563  0.87334696  0.86315463  1
  O  O77  1  0.49993900  0.64150563  0.86073994  1
  O  O78  1  0.02689775  0.82080147  0.41218121  1
  O  O79  1  0.81627079  0.97034393  0.41096326  1
  O  O80  1  0.16027829  0.18157756  0.41060589  1
  O  O81  1  0.02758438  0.18252052  0.91050773  1
  O  O82  1  0.17554414  0.96764878  0.91170644  1
  O  O83  1  0.81966453  0.83267545  0.91087131  1
  O  O84  1  0.97506768  0.16397850  0.59022751  1
  O  O85  1  0.18981955  0.03314689  0.59011927  1
  O  O86  1  0.83583504  0.81789348  0.58918382  1
  O  O87  1  0.97848842  0.82033635  0.08951976  1
  O  O88  1  0.84550279  0.03606430  0.08819035  1
  O  O89  1  0.20440029  0.18086076  0.08750168  1
  O  O90  1  0.69746074  0.17481463  0.74338930  1
  O  O91  1  0.48058542  0.30830654  0.74386745  1
  O  O92  1  0.83401295  0.51956404  0.74339711  1
  O  O93  1  0.68698397  0.51736694  0.24087339  1
  O  O94  1  0.82820171  0.30245417  0.24221624  1
  O  O95  1  0.47813972  0.16669186  0.24127368  1
  O  O96  1  0.64210829  0.49055546  0.92474518  1
  O  O97  1  0.85657800  0.36108722  0.92364754  1
  O  O98  1  0.48930351  0.12846858  0.92318772  1
  O  O99  1  0.64512160  0.14695461  0.42381421  1
  O  O100  1  0.50863683  0.36340759  0.42304509  1
  O  O101  1  0.87201394  0.50711692  0.42267132  1
  O  O102  1  0.36022445  0.49094228  0.07818717  1
  O  O103  1  0.14641398  0.63389314  0.07558340  1
  O  O104  1  0.49147255  0.84929884  0.07418434  1
  O  O105  1  0.36190012  0.85192200  0.57568293  1
  O  O106  1  0.49741464  0.64230870  0.57688337  1
  O  O107  1  0.15368883  0.50516963  0.57629447  1
  O  O108  1  0.31225502  0.83359086  0.25809125  1
  O  O109  1  0.52606287  0.69768949  0.25758732  1
  O  O110  1  0.16906421  0.48278409  0.25827905  1
  O  O111  1  0.30092459  0.47247155  0.75799594  1
  O  O112  1  0.16927577  0.68708125  0.75837004  1
  O  O113  1  0.51594139  0.82914396  0.75820280  1
