# generated using pymatgen
data_Na5Y3Si3Ge(SO8)3
_symmetry_space_group_name_H-M   'P 1'
_cell_length_a   9.31893665
_cell_length_b   9.18363368
_cell_length_c   23.16880128
_cell_angle_alpha   92.69613924
_cell_angle_beta   89.27169328
_cell_angle_gamma   119.83850053
_symmetry_Int_Tables_number   1
_chemical_formula_structural   Na5Y3Si3Ge(SO8)3
_chemical_formula_sum   'Na15 Y9 Si9 Ge3 S9 O72'
_cell_volume   1717.93007583
_cell_formula_units_Z   3
loop_
 _symmetry_equiv_pos_site_id
 _symmetry_equiv_pos_as_xyz
  1  'x, y, z'
loop_
 _atom_site_type_symbol
 _atom_site_label
 _atom_site_symmetry_multiplicity
 _atom_site_fract_x
 _atom_site_fract_y
 _atom_site_fract_z
 _atom_site_occupancy
  Na  Na0  1  0.65749659  0.01577936  0.26150429  1
  Na  Na1  1  -0.00164457  0.62223955  0.24744633  1
  Na  Na2  1  0.64977504  0.65605849  0.74174891  1
  Na  Na3  1  0.35800169  0.00850456  0.76583236  1
  Na  Na4  1  0.66417164  0.94097907  0.58369887  1
  Na  Na5  1  0.98226893  0.68140454  0.92330620  1
  Na  Na6  1  0.70085575  0.02418011  0.91616517  1
  Na  Na7  1  0.97368686  0.31972952  0.40647495  1
  Na  Na8  1  0.69484133  0.68329745  0.43522907  1
  Na  Na9  1  0.00768396  0.96461095  0.50359665  1
  Na  Na10  1  0.00766415  0.97547913  0.99673804  1
  Na  Na11  1  0.64741279  0.31970331  0.83451895  1
  Na  Na12  1  0.66394633  0.31287860  0.34037525  1
  Na  Na13  1  0.27148116  0.60933915  0.15910456  1
  Na  Na14  1  0.32361181  0.61418726  0.67530042  1
  Y  Y15  1  0.99543439  0.00555946  0.35407220  1
  Y  Y16  1  0.01264675  0.01604583  0.85078254  1
  Y  Y17  1  0.00051825  0.00995535  0.65245174  1
  Y  Y18  1  -0.00017375  -0.00488871  0.14032119  1
  Y  Y19  1  0.65891832  0.33763122  0.68794175  1
  Y  Y20  1  0.67593375  0.33548068  0.18092695  1
  Y  Y21  1  0.32938903  0.67036308  0.01835422  1
  Y  Y22  1  0.33365625  0.67073084  0.51716809  1
  Y  Y23  1  0.32175862  0.67067375  0.32241020  1
  Si  Si24  1  0.00120186  0.30425940  0.25256162  1
  Si  Si25  1  0.30014533  0.32204306  0.75510474  1
  Si  Si26  1  0.69195563  0.99915357  0.75434787  1
  Si  Si27  1  0.67328253  0.62920020  0.58221216  1
  Si  Si28  1  0.94429038  0.61494499  0.07775399  1
  Si  Si29  1  0.63787465  0.66613176  0.91829663  1
  Si  Si30  1  0.35078411  0.96817892  0.91845586  1
  Si  Si31  1  0.63538884  0.98733269  0.42161475  1
  Si  Si32  1  0.01847369  0.66190950  0.41896064  1
  Ge  Ge33  1  0.64328016  0.35319977  0.97490494  1
  Ge  Ge34  1  0.70252606  0.35640705  0.48256369  1
  Ge  Ge35  1  0.40339193  0.69509588  0.81913176  1
  S  S36  1  0.29791945  -0.00302831  0.24908768  1
  S  S37  1  0.69556916  0.70341007  0.25006331  1
  S  S38  1  0.01615598  0.70639515  0.75069627  1
  S  S39  1  0.95369569  0.32903020  0.57875452  1
  S  S40  1  0.37311585  0.04925789  0.58088262  1
  S  S41  1  0.66977977  0.03022804  0.08046952  1
  S  S42  1  0.37531053  0.32587824  0.07700319  1
  S  S43  1  0.02678757  0.37877375  0.91547779  1
  S  S44  1  0.35093452  0.36945371  0.41623364  1
  O  O45  1  0.21410374  0.00876959  0.30203258  1
  O  O46  1  0.79368632  0.78074649  0.30449259  1
  O  O47  1  0.98826412  0.21272758  0.31347400  1
  O  O48  1  0.22485869  0.18107590  0.80318229  1
  O  O49  1  0.98659660  0.77633249  0.80589573  1
  O  O50  1  0.79390797  0.01077105  0.81202976  1
  O  O51  1  0.77244992  0.96326731  0.69518279  1
  O  O52  1  0.19092810  0.24425087  0.69516339  1
  O  O53  1  0.02634232  0.81487045  0.70274801  1
  O  O54  1  0.79127796  0.80126844  0.20070574  1
  O  O55  1  -0.00121542  0.18465923  0.19791027  1
  O  O56  1  0.19728676  0.97631947  0.19719795  1
  O  O57  1  0.86314946  0.34063242  0.62890348  1
  O  O58  1  0.45770744  0.12683263  0.63701300  1
  O  O59  1  0.67421781  0.54148788  0.64064530  1
  O  O60  1  0.86346953  0.54028526  0.14041166  1
  O  O61  1  0.66479786  0.11511928  0.13664028  1
  O  O62  1  0.46977419  0.33153106  0.12804873  1
  O  O63  1  0.45439305  0.30664199  0.02143878  1
  O  O64  1  0.81075553  0.49024421  0.02105212  1
  O  O65  1  0.66760764  0.12094763  0.03050136  1
  O  O66  1  0.46828097  0.14729964  0.53180014  1
  O  O67  1  0.67561914  0.50993012  0.52198052  1
  O  O68  1  0.86051556  0.31665794  0.52305928  1
  O  O69  1  0.53884836  0.69004690  0.97063079  1
  O  O70  1  0.11330952  0.45367438  0.97087640  1
  O  O71  1  0.31033745  0.84998946  0.97142117  1
  O  O72  1  0.55037277  0.85188676  0.47170749  1
  O  O73  1  0.32694474  0.44614850  0.47022873  1
  O  O74  1  0.13401223  0.67020079  0.47149764  1
  O  O75  1  0.08691639  0.62321004  0.35776110  1
  O  O76  1  0.53554534  0.91729735  0.35948993  1
  O  O77  1  0.36501776  0.47578496  0.36713854  1
  O  O78  1  0.12146123  0.47596897  0.86645867  1
  O  O79  1  0.39798993  0.87520395  0.85924138  1
  O  O80  1  0.54140166  0.64815592  0.85554712  1
  O  O81  1  0.97796812  0.81473632  0.41686366  1
  O  O82  1  0.82847959  0.02820979  0.41715410  1
  O  O83  1  0.20530506  0.19972461  0.40963438  1
  O  O84  1  -0.00728402  0.20114400  0.91353447  1
  O  O85  1  0.19370724  0.99062805  0.90647425  1
  O  O86  1  0.82862675  0.82000988  0.91557884  1
  O  O87  1  0.95635138  0.16809602  0.57799410  1
  O  O88  1  0.20466551  0.02820649  0.58128817  1
  O  O89  1  0.83643844  0.81747859  0.57738543  1
  O  O90  1  0.96439905  0.80048849  0.07154036  1
  O  O91  1  0.82436270  0.01950401  0.07949966  1
  O  O92  1  0.20832315  0.17498505  0.07685314  1
  O  O93  1  0.64418911  0.14712495  0.75042363  1
  O  O94  1  0.49579419  0.36962010  0.74871333  1
  O  O95  1  0.87147259  0.53547203  0.74280549  1
  O  O96  1  0.66495283  0.52920809  0.24597066  1
  O  O97  1  0.82911714  0.32138839  0.25143712  1
  O  O98  1  0.46620457  0.14588744  0.24699640  1
  O  O99  1  0.64233336  0.48444153  0.91956025  1
  O  O100  1  0.86114901  0.37085601  0.91434824  1
  O  O101  1  0.53392244  0.15676141  0.92906388  1
  O  O102  1  0.64402194  0.17354501  0.43633081  1
  O  O103  1  0.50493061  0.36095510  0.41785922  1
  O  O104  1  0.83241856  0.48423356  0.42514303  1
  O  O105  1  0.36439392  0.48033702  0.07731265  1
  O  O106  1  0.12077930  0.61990649  0.07621358  1
  O  O107  1  0.52341517  0.85860648  0.08244934  1
  O  O108  1  0.36171054  0.88034747  0.57850443  1
  O  O109  1  0.50813027  0.64913973  0.57772755  1
  O  O110  1  0.12136317  0.47411594  0.57778318  1
  O  O111  1  0.31622345  0.84370824  0.25030830  1
  O  O112  1  0.53813644  0.70593809  0.25349892  1
  O  O113  1  0.16216735  0.49556563  0.25021802  1
  O  O114  1  0.30513097  0.50688818  0.77051870  1
  O  O115  1  0.17183536  0.70377240  0.75257249  1
  O  O116  1  0.50743229  0.81565541  0.75688642  1
