# generated using pymatgen
data_Na7MgTi3Si3(PO8)3
_symmetry_space_group_name_H-M   'P 1'
_cell_length_a   8.95374271
_cell_length_b   8.94846319
_cell_length_c   21.98006403
_cell_angle_alpha   89.89309596
_cell_angle_beta   90.25268590
_cell_angle_gamma   119.93556049
_symmetry_Int_Tables_number   1
_chemical_formula_structural   Na7MgTi3Si3(PO8)3
_chemical_formula_sum   'Na21 Mg3 Ti9 Si9 P9 O72'
_cell_volume   1526.12473767
_cell_formula_units_Z   3
loop_
 _symmetry_equiv_pos_site_id
 _symmetry_equiv_pos_as_xyz
  1  'x, y, z'
loop_
 _atom_site_type_symbol
 _atom_site_label
 _atom_site_symmetry_multiplicity
 _atom_site_fract_x
 _atom_site_fract_y
 _atom_site_fract_z
 _atom_site_occupancy
  Na  Na0  1  0.63490337  0.00795803  0.24560011  1
  Na  Na1  1  0.37464983  0.36675987  0.24566463  1
  Na  Na2  1  0.99358421  0.63061596  0.24817471  1
  Na  Na3  1  0.63134621  0.62323594  0.74691887  1
  Na  Na4  1  0.98971224  0.37007547  0.74431188  1
  Na  Na5  1  0.37486132  0.00526842  0.74639920  1
  Na  Na6  1  0.02903087  0.69174627  0.58469633  1
  Na  Na7  1  0.66463952  0.96883704  0.58169741  1
  Na  Na8  1  0.30908949  0.97127661  0.08373171  1
  Na  Na9  1  0.66202652  0.68940889  0.08599466  1
  Na  Na10  1  0.02843562  0.33634967  0.08152418  1
  Na  Na11  1  0.33341549  0.29697033  0.91735113  1
  Na  Na12  1  0.96579693  0.28725700  0.41480363  1
  Na  Na13  1  0.32214720  0.03503065  0.41566120  1
  Na  Na14  1  0.71279019  0.67699135  0.41576654  1
  Na  Na15  1  0.00812799  0.00970265  0.49565976  1
  Na  Na16  1  0.98984826  0.99248366  0.99634585  1
  Na  Na17  1  0.68130023  0.34002727  0.83469991  1
  Na  Na18  1  0.66472818  0.33356217  0.33231491  1
  Na  Na19  1  0.33716205  0.66860702  0.16556773  1
  Na  Na20  1  0.32944445  0.65305116  0.66357164  1
  Mg  Mg21  1  0.99885640  0.99945303  0.35472010  1
  Mg  Mg22  1  0.67226430  0.33962813  0.68489565  1
  Mg  Mg23  1  0.66334491  0.33197353  0.18239025  1
  Ti  Ti24  1  0.98823100  0.98974956  0.85618435  1
  Ti  Ti25  1  0.00814747  0.00518853  0.64508848  1
  Ti  Ti26  1  0.00062332  0.00552962  0.14593032  1
  Ti  Ti27  1  0.67176985  0.33065473  0.97949330  1
  Ti  Ti28  1  0.67062472  0.32986962  0.48015145  1
  Ti  Ti29  1  0.34058930  0.66321789  0.01673472  1
  Ti  Ti30  1  0.32843546  0.65697963  0.51833724  1
  Ti  Ti31  1  0.33399143  0.66706229  0.31773125  1
  Ti  Ti32  1  0.32413472  0.66185015  0.81628851  1
  Si  Si33  1  0.00196791  0.71134599  0.75044366  1
  Si  Si34  1  0.96426909  0.33478331  0.58614014  1
  Si  Si35  1  0.66348335  0.03915251  0.08525160  1
  Si  Si36  1  0.37544482  0.33373575  0.08374933  1
  Si  Si37  1  0.62582490  0.66520277  0.91536651  1
  Si  Si38  1  0.03679374  0.37328548  0.91662785  1
  Si  Si39  1  0.62102297  0.95712792  0.41886735  1
  Si  Si40  1  0.33756516  0.37676075  0.41648252  1
  Si  Si41  1  0.04203793  0.66416609  0.41767746  1
  P  P42  1  0.29066603  0.99889419  0.25142314  1
  P  P43  1  0.70880363  0.70931227  0.25108700  1
  P  P44  1  0.00094183  0.29379531  0.25112661  1
  P  P45  1  0.28613194  0.28767066  0.75179199  1
  P  P46  1  0.71108446  0.99672385  0.74983848  1
  P  P47  1  0.37584236  0.04424530  0.58485866  1
  P  P48  1  0.66464947  0.62431493  0.58507578  1
  P  P49  1  0.95860512  0.62491877  0.08409646  1
  P  P50  1  0.33380852  0.95588456  0.91676744  1
  O  O51  1  0.20572211  0.02023720  0.30797634  1
  O  O52  1  0.81448793  0.79312706  0.30808924  1
  O  O53  1  0.97657015  0.18577219  0.30752208  1
  O  O54  1  0.20123964  0.18091570  0.80948316  1
  O  O55  1  0.98287192  0.82101960  0.80724708  1
  O  O56  1  0.83032655  0.02499964  0.80570875  1
  O  O57  1  0.79785404  0.97100845  0.69211579  1
  O  O58  1  0.16595598  0.19652379  0.69539204  1
  O  O59  1  0.03139851  0.83463926  0.68980092  1
  O  O60  1  0.80196264  0.82443223  0.19315231  1
  O  O61  1  0.02212226  0.19875089  0.19307416  1
  O  O62  1  0.17563091  0.97705149  0.19319873  1
  O  O63  1  0.88674613  0.37377853  0.64575135  1
  O  O64  1  0.48316075  0.12361680  0.64215884  1
  O  O65  1  0.63968670  0.52372273  0.64358556  1
  O  O66  1  0.88828194  0.51862394  0.14227957  1
  O  O67  1  0.62521107  0.11195439  0.14596058  1
  O  O68  1  0.49052729  0.38042046  0.14414768  1
  O  O69  1  0.46462945  0.29660685  0.02452718  1
  O  O70  1  0.83406620  0.53498803  0.02932692  1
  O  O71  1  0.70342000  0.17474191  0.02800684  1
  O  O72  1  0.46359405  0.15511558  0.52694869  1
  O  O73  1  0.69309306  0.53500696  0.52851721  1
  O  O74  1  0.83352250  0.30204097  0.52632399  1
  O  O75  1  0.53215398  0.69139820  0.97572425  1
  O  O76  1  0.16366424  0.47074801  0.97493929  1
  O  O77  1  0.30980346  0.84579354  0.97417104  1
  O  O78  1  0.52635966  0.83757024  0.47801715  1
  O  O79  1  0.30856150  0.47852032  0.47296460  1
  O  O80  1  0.16554226  0.69277365  0.47670236  1
  O  O81  1  0.13305916  0.62800198  0.35713879  1
  O  O82  1  0.49461631  0.86471508  0.35782600  1
  O  O83  1  0.37147817  0.50275177  0.35554485  1
  O  O84  1  0.13342195  0.49638798  0.85612976  1
  O  O85  1  0.35509817  0.86576808  0.85918856  1
  O  O86  1  0.49872791  0.63777409  0.85659880  1
  O  O87  1  0.02104126  0.83133788  0.41362411  1
  O  O88  1  0.80982219  0.98004797  0.41398781  1
  O  O89  1  0.16900526  0.19014619  0.41290520  1
  O  O90  1  0.03240133  0.18895783  0.91061594  1
  O  O91  1  0.17438304  0.98103950  0.91138974  1
  O  O92  1  0.81542970  0.83837091  0.91052653  1
  O  O93  1  0.97246769  0.15379015  0.58941368  1
  O  O94  1  0.18953391  0.02097105  0.58766210  1
  O  O95  1  0.83454667  0.80830530  0.58762071  1
  O  O96  1  0.97564628  0.80836900  0.08857841  1
  O  O97  1  0.83797700  0.01703669  0.08952706  1
  O  O98  1  0.17995077  0.15780186  0.08990462  1
  O  O99  1  0.68769448  0.15535266  0.74690770  1
  O  O100  1  0.46534110  0.30629493  0.74579372  1
  O  O101  1  0.83100277  0.52339534  0.75067886  1
  O  O102  1  0.68731951  0.52733118  0.24582265  1
  O  O103  1  0.84394777  0.31998615  0.24455977  1
  O  O104  1  0.47317492  0.15807276  0.24665477  1
  O  O105  1  0.63296261  0.48739712  0.92214820  1
  O  O106  1  0.84833108  0.35689730  0.92308861  1
  O  O107  1  0.49661560  0.13784659  0.92070026  1
  O  O108  1  0.63017967  0.14613343  0.42262863  1
  O  O109  1  0.51485901  0.36751299  0.42314229  1
  O  O110  1  0.85311897  0.48643549  0.42325332  1
  O  O111  1  0.34201269  0.49945226  0.07490607  1
  O  O112  1  0.14256878  0.65220159  0.07476106  1
  O  O113  1  0.49494135  0.84550309  0.07488318  1
  O  O114  1  0.35276175  0.85958079  0.57919899  1
  O  O115  1  0.51136480  0.65835629  0.57784604  1
  O  O116  1  0.15488330  0.50652334  0.57675758  1
  O  O117  1  0.30228288  0.82822556  0.25195166  1
  O  O118  1  0.52671757  0.69743157  0.25140260  1
  O  O119  1  0.17198441  0.47392412  0.25116482  1
  O  O120  1  0.30125341  0.47057474  0.75365184  1
  O  O121  1  0.18131849  0.69945929  0.75462031  1
  O  O122  1  0.53156011  0.82897989  0.75474013  1
