# generated using pymatgen
data_Na6Nb3Al(SiO4)6
_symmetry_space_group_name_H-M   'P 1'
_cell_length_a   9.01456847
_cell_length_b   9.01751497
_cell_length_c   22.25030745
_cell_angle_alpha   90.04988884
_cell_angle_beta   90.00722065
_cell_angle_gamma   119.96785669
_symmetry_Int_Tables_number   1
_chemical_formula_structural   Na6Nb3Al(SiO4)6
_chemical_formula_sum   'Na18 Nb9 Al3 Si18 O72'
_cell_volume   1566.89098539
_cell_formula_units_Z   3
loop_
 _symmetry_equiv_pos_site_id
 _symmetry_equiv_pos_as_xyz
  1  'x, y, z'
loop_
 _atom_site_type_symbol
 _atom_site_label
 _atom_site_symmetry_multiplicity
 _atom_site_fract_x
 _atom_site_fract_y
 _atom_site_fract_z
 _atom_site_occupancy
  Na  Na0  1  0.00841548  0.00060443  0.49797678  1
  Na  Na1  1  0.98958883  0.99035827  0.99693663  1
  Na  Na2  1  0.66662266  0.33232302  0.83323017  1
  Na  Na3  1  0.66677432  0.33268857  0.32647084  1
  Na  Na4  1  0.34435746  0.66765759  0.16363607  1
  Na  Na5  1  0.32344272  0.65710330  0.66512438  1
  Na  Na6  1  0.63519883  0.01188730  0.24497289  1
  Na  Na7  1  0.37550044  0.36385767  0.24398995  1
  Na  Na8  1  0.98895329  0.62353968  0.24449070  1
  Na  Na9  1  0.63492207  0.62472453  0.74519126  1
  Na  Na10  1  0.98860985  0.36408932  0.74571278  1
  Na  Na11  1  0.37657489  0.01044905  0.74624299  1
  Na  Na12  1  0.66633454  0.96745707  0.58652482  1
  Na  Na13  1  0.30279754  0.97234379  0.08396577  1
  Na  Na14  1  0.03053507  0.33570422  0.08408457  1
  Na  Na15  1  0.96512429  0.28886530  0.41133128  1
  Na  Na16  1  0.32433015  0.03355686  0.41148641  1
  Na  Na17  1  0.71045859  0.67726663  0.41189922  1
  Nb  Nb18  1  0.00101307  0.00098053  0.85548194  1
  Nb  Nb19  1  0.00476334  0.00019402  0.64284359  1
  Nb  Nb20  1  0.99563191  0.99610842  0.14549928  1
  Nb  Nb21  1  0.66734478  0.33457771  0.97734739  1
  Nb  Nb22  1  0.66634178  0.33460036  0.48076516  1
  Nb  Nb23  1  0.33805401  0.66693909  0.02205819  1
  Nb  Nb24  1  0.32900380  0.66231372  0.52329257  1
  Nb  Nb25  1  0.33291469  0.66671688  0.31082192  1
  Nb  Nb26  1  0.33394286  0.66718200  0.81316074  1
  Al  Al27  1  0.99948634  0.99984689  0.35191122  1
  Al  Al28  1  0.66723857  0.33407757  0.68749652  1
  Al  Al29  1  0.66605092  0.33340820  0.18779530  1
  Si  Si30  1  0.29044815  0.00743600  0.25293937  1
  Si  Si31  1  0.71644886  0.70865794  0.25376540  1
  Si  Si32  1  0.99289730  0.28294618  0.25256911  1
  Si  Si33  1  0.29550211  0.28968886  0.74851048  1
  Si  Si34  1  0.99351403  0.70381618  0.74899765  1
  Si  Si35  1  0.71041984  0.00567572  0.74786304  1
  Si  Si36  1  0.95260541  0.33692280  0.58806392  1
  Si  Si37  1  0.38228348  0.04961944  0.58683774  1
  Si  Si38  1  0.66506224  0.61636915  0.58793299  1
  Si  Si39  1  0.94722293  0.61543964  0.08729495  1
  Si  Si40  1  0.66542161  0.05093915  0.08748739  1
  Si  Si41  1  0.38753338  0.33724248  0.08825103  1
  Si  Si42  1  0.62609406  0.66693192  0.91606811  1
  Si  Si43  1  0.04167053  0.37526038  0.91719795  1
  Si  Si44  1  0.33279267  0.95791708  0.91771074  1
  Si  Si45  1  0.63016891  0.95739504  0.41658967  1
  Si  Si46  1  0.32774570  0.37032742  0.41513168  1
  Si  Si47  1  0.04311845  0.67283791  0.41568220  1
  O  O48  1  0.19765307  0.03314139  0.31121682  1
  O  O49  1  0.83387389  0.79911449  0.31243322  1
  O  O50  1  0.96612649  0.16426794  0.31089061  1
  O  O51  1  0.19897928  0.16276302  0.80595772  1
  O  O52  1  0.96479164  0.80177171  0.80625326  1
  O  O53  1  0.83934392  0.03460071  0.80467470  1
  O  O54  1  0.79481322  0.96481355  0.68879472  1
  O  O55  1  0.16150871  0.19727344  0.69178980  1
  O  O56  1  0.03306691  0.83676407  0.69207151  1
  O  O57  1  0.80686131  0.83887402  0.19555421  1
  O  O58  1  0.03372401  0.20046134  0.19242475  1
  O  O59  1  0.16755663  0.96793864  0.19270660  1
  O  O60  1  0.86238546  0.35800927  0.64659782  1
  O  O61  1  0.50270526  0.13619894  0.64433422  1
  O  O62  1  0.64152953  0.50314582  0.64595309  1
  O  O63  1  0.86414106  0.49787964  0.14628578  1
  O  O64  1  0.63346892  0.13435723  0.14713219  1
  O  O65  1  0.49545195  0.35874701  0.14853073  1
  O  O66  1  0.47408165  0.30134945  0.02914334  1
  O  O67  1  0.83187859  0.52531822  0.02734029  1
  O  O68  1  0.69902818  0.17165127  0.02826700  1
  O  O69  1  0.47154393  0.16223050  0.52439632  1
  O  O70  1  0.68923281  0.52750855  0.52533179  1
  O  O71  1  0.83484311  0.30784212  0.52605937  1
  O  O72  1  0.52287933  0.68823425  0.97379030  1
  O  O73  1  0.15850996  0.47078511  0.97706707  1
  O  O74  1  0.31010394  0.84052925  0.97740259  1
  O  O75  1  0.53596671  0.83553636  0.47512308  1
  O  O76  1  0.30143185  0.47229328  0.47185382  1
  O  O77  1  0.17232586  0.70053499  0.47213139  1
  O  O78  1  0.13174441  0.63379193  0.35672384  1
  O  O79  1  0.50003400  0.86487583  0.35819607  1
  O  O80  1  0.36595013  0.49782785  0.35640581  1
  O  O81  1  0.13902397  0.49372364  0.85716807  1
  O  O82  1  0.35490897  0.86105488  0.85751040  1
  O  O83  1  0.50894244  0.64439207  0.85557734  1
  O  O84  1  0.02572875  0.84177679  0.41042505  1
  O  O85  1  0.81710737  0.97599933  0.41001629  1
  O  O86  1  0.15885432  0.18390385  0.41015854  1
  O  O87  1  0.02843189  0.18882698  0.91130144  1
  O  O88  1  0.16002346  0.97168480  0.91140337  1
  O  O89  1  0.81169428  0.84024587  0.91151891  1
  O  O90  1  0.96331302  0.15936619  0.58817715  1
  O  O91  1  0.19115442  0.02902958  0.58775190  1
  O  O92  1  0.83301318  0.81204483  0.58791941  1
  O  O93  1  0.97963018  0.81320296  0.08943955  1
  O  O94  1  0.84050530  0.03508760  0.09022279  1
  O  O95  1  0.19162937  0.16391098  0.09029527  1
  O  O96  1  0.68906890  0.17308999  0.74453450  1
  O  O97  1  0.48239853  0.30828524  0.74318113  1
  O  O98  1  0.82622318  0.51618741  0.74434582  1
  O  O99  1  0.69233806  0.51921301  0.24552390  1
  O  O100  1  0.82748824  0.30841990  0.24546165  1
  O  O101  1  0.48183141  0.17193440  0.24657808  1
  O  O102  1  0.63854210  0.49421207  0.92117919  1
  O  O103  1  0.85455256  0.35978943  0.92058049  1
  O  O104  1  0.50523144  0.14403221  0.92156717  1
  O  O105  1  0.64409830  0.14706502  0.42023766  1
  O  O106  1  0.50301168  0.35683015  0.42022387  1
  O  O107  1  0.85464772  0.49751574  0.42098077  1
  O  O108  1  0.35272304  0.50043870  0.08112086  1
  O  O109  1  0.14277534  0.63960020  0.08073638  1
  O  O110  1  0.49252135  0.85991560  0.08038351  1
  O  O111  1  0.36852936  0.86084809  0.57779893  1
  O  O112  1  0.49796185  0.64478264  0.57888246  1
  O  O113  1  0.14388726  0.50538487  0.57855247  1
  O  O114  1  0.30624278  0.82946195  0.25546040  1
  O  O115  1  0.52386953  0.69441748  0.25510177  1
  O  O116  1  0.17054642  0.47663847  0.25544293  1
  O  O117  1  0.30971600  0.47964690  0.75311987  1
  O  O118  1  0.16973620  0.68980899  0.75311501  1
  O  O119  1  0.51928529  0.83035471  0.75353710  1
