# generated using pymatgen
data_Na4Ca3GeP2(SO6)4
_symmetry_space_group_name_H-M   'P 1'
_cell_length_a   9.11830243
_cell_length_b   9.11237096
_cell_length_c   23.16041694
_cell_angle_alpha   90.53727578
_cell_angle_beta   89.95437037
_cell_angle_gamma   119.86735034
_symmetry_Int_Tables_number   1
_chemical_formula_structural   Na4Ca3GeP2(SO6)4
_chemical_formula_sum   'Na12 Ca9 Ge3 P6 S12 O72'
_cell_volume   1668.69866238
_cell_formula_units_Z   3
loop_
 _symmetry_equiv_pos_site_id
 _symmetry_equiv_pos_as_xyz
  1  'x, y, z'
loop_
 _atom_site_type_symbol
 _atom_site_label
 _atom_site_symmetry_multiplicity
 _atom_site_fract_x
 _atom_site_fract_y
 _atom_site_fract_z
 _atom_site_occupancy
  Na  Na0  1  0.63957007  0.00237972  0.25798818  1
  Na  Na1  1  0.35870010  0.36007079  0.25228121  1
  Na  Na2  1  0.31069180  0.34610746  0.59338633  1
  Na  Na3  1  0.66304767  0.94792780  0.57893671  1
  Na  Na4  1  0.98549782  0.67839040  0.91286464  1
  Na  Na5  1  0.32206279  0.29680894  0.90873422  1
  Na  Na6  1  0.97848170  0.97363616  0.49716216  1
  Na  Na7  1  0.98104872  0.00335197  0.99579841  1
  Na  Na8  1  0.65521023  0.31790923  0.82667339  1
  Na  Na9  1  0.67956650  0.33691647  0.34315669  1
  Na  Na10  1  0.31308911  0.66487653  0.16068691  1
  Na  Na11  1  0.32536443  0.65839466  0.68141759  1
  Ca  Ca12  1  0.99447290  0.99679124  0.35654322  1
  Ca  Ca13  1  0.99427816  0.00168671  0.84753921  1
  Ca  Ca14  1  0.00230908  0.99352729  0.65705361  1
  Ca  Ca15  1  0.99876072  0.99387583  0.14225713  1
  Ca  Ca16  1  0.66642543  0.34459461  0.69085180  1
  Ca  Ca17  1  0.67615684  0.34283899  0.18255717  1
  Ca  Ca18  1  0.34009135  0.66882121  0.01721196  1
  Ca  Ca19  1  0.33253372  0.66910639  0.51178541  1
  Ca  Ca20  1  0.33421072  0.68123711  0.32918054  1
  Ge  Ge21  1  0.66769897  0.32634934  0.97437322  1
  Ge  Ge22  1  0.66972983  0.33925057  0.48350268  1
  Ge  Ge23  1  0.33322266  0.65955271  0.82374822  1
  P  P24  1  0.30724340  0.32608943  0.75707562  1
  P  P25  1  0.67084960  0.62044766  0.57726921  1
  P  P26  1  0.62400522  0.65141694  0.91881784  1
  P  P27  1  0.03264734  0.37789166  0.91860904  1
  P  P28  1  0.34813061  0.96293038  0.91677341  1
  P  P29  1  0.64702164  0.99979669  0.42357476  1
  S  S30  1  0.30131591  -0.00105145  0.24937410  1
  S  S31  1  0.69232865  0.70060958  0.25078988  1
  S  S32  1  0.00552501  0.30075625  0.25050337  1
  S  S33  1  0.02231980  0.69413019  0.75850686  1
  S  S34  1  0.67288033  0.97985792  0.75198744  1
  S  S35  1  0.95118895  0.32796983  0.57968280  1
  S  S36  1  0.38246091  0.05445170  0.57968348  1
  S  S37  1  0.95155762  0.62222011  0.07463394  1
  S  S38  1  0.67290508  0.05172180  0.07812053  1
  S  S39  1  0.37567492  0.32787111  0.07849084  1
  S  S40  1  0.35036494  0.35820267  0.41957991  1
  S  S41  1  0.00700994  0.64917656  0.42180506  1
  O  O42  1  0.21605547  0.01434099  0.30106692  1
  O  O43  1  0.79016115  0.78421796  0.30303052  1
  O  O44  1  0.98757009  0.19730351  0.30147646  1
  O  O45  1  0.21705678  0.21755730  0.80920664  1
  O  O46  1  0.99725314  0.77023870  0.81101413  1
  O  O47  1  0.78374108  0.00019410  0.80047070  1
  O  O48  1  0.74165078  0.95735898  0.69584295  1
  O  O49  1  0.21027754  0.25681647  0.69860423  1
  O  O50  1  0.04096653  0.79424167  0.70611947  1
  O  O51  1  0.77592779  0.79716942  0.19831171  1
  O  O52  1  0.02350022  0.21918884  0.19728175  1
  O  O53  1  0.20680406  0.98594519  0.19619871  1
  O  O54  1  0.87281895  0.34501549  0.63199408  1
  O  O55  1  0.48288978  0.12971353  0.63184106  1
  O  O56  1  0.64682222  0.51232681  0.62928850  1
  O  O57  1  0.86376198  0.53131819  0.12675764  1
  O  O58  1  0.67023994  0.13123467  0.13350891  1
  O  O59  1  0.46254490  0.33128522  0.13274284  1
  O  O60  1  0.47020131  0.31859217  0.02480266  1
  O  O61  1  0.85126961  0.53036375  0.01952157  1
  O  O62  1  0.68504320  0.16145012  0.02616731  1
  O  O63  1  0.46936751  0.16394040  0.52683924  1
  O  O64  1  0.69102452  0.52727269  0.52029429  1
  O  O65  1  0.84394176  0.30906679  0.52626220  1
  O  O66  1  0.55513877  0.67840969  0.97404103  1
  O  O67  1  0.13432226  0.45317807  0.97276197  1
  O  O68  1  0.31240087  0.85960523  0.97034421  1
  O  O69  1  0.55641616  0.89115923  0.47578363  1
  O  O70  1  0.32804398  0.44112772  0.47068826  1
  O  O71  1  0.10817500  0.66639360  0.47280096  1
  O  O72  1  0.08120717  0.62593199  0.36804067  1
  O  O73  1  0.54856874  0.93042998  0.36566670  1
  O  O74  1  0.36764950  0.45412229  0.36565310  1
  O  O75  1  0.12016188  0.50540195  0.86558872  1
  O  O76  1  0.37674078  0.87038969  0.86217486  1
  O  O77  1  0.49671804  0.61395128  0.86575889  1
  O  O78  1  0.98161213  0.79619327  0.41810746  1
  O  O79  1  0.82721258  0.02872549  0.42041295  1
  O  O80  1  0.20886553  0.18382488  0.41564538  1
  O  O81  1  0.00866698  0.20153121  0.90936178  1
  O  O82  1  0.20045126  0.99623790  0.90626823  1
  O  O83  1  0.80616386  0.79006229  0.90814571  1
  O  O84  1  0.96173366  0.16824921  0.58029055  1
  O  O85  1  0.21564543  0.04728067  0.58220956  1
  O  O86  1  0.82596409  0.80096386  0.57873388  1
  O  O87  1  0.96595374  0.79138896  0.07291551  1
  O  O88  1  0.82586713  0.03428732  0.07490206  1
  O  O89  1  0.20541761  0.17475859  0.07590512  1
  O  O90  1  0.64750538  0.12738528  0.74924349  1
  O  O91  1  0.48904422  0.35835813  0.75451985  1
  O  O92  1  0.88074815  0.51949590  0.75257573  1
  O  O93  1  0.66140703  0.52356548  0.24862272  1
  O  O94  1  0.84904763  0.31452425  0.24832168  1
  O  O95  1  0.47418503  0.15654460  0.24817647  1
  O  O96  1  0.62784290  0.47190785  0.92230730  1
  O  O97  1  0.85016652  0.36874902  0.92187782  1
  O  O98  1  0.51665828  0.14807036  0.92197616  1
  O  O99  1  0.65513004  0.17995559  0.43061025  1
  O  O100  1  0.51457398  0.35385756  0.42432799  1
  O  O101  1  0.83508015  0.48930151  0.42580553  1
  O  O102  1  0.36169245  0.48221823  0.07867755  1
  O  O103  1  0.11990194  0.63769728  0.07556980  1
  O  O104  1  0.51824383  0.88586514  0.07624156  1
  O  O105  1  0.36072978  0.88349905  0.57327512  1
  O  O106  1  0.50853520  0.63544850  0.57202545  1
  O  O107  1  0.12545260  0.47228051  0.57423289  1
  O  O108  1  0.33032149  0.85131930  0.25193223  1
  O  O109  1  0.52069480  0.68761116  0.25347807  1
  O  O110  1  0.16056381  0.47098517  0.25522500  1
  O  O111  1  0.31313926  0.50573888  0.76564800  1
  O  O112  1  0.18748037  0.69195315  0.76363625  1
  O  O113  1  0.50361653  0.81971963  0.75987873  1
