# generated using pymatgen
data_Na42Mg16Nb8Si21(S5O48)3
_symmetry_space_group_name_H-M   'P 1'
_cell_length_a   18.19851575
_cell_length_b   9.07740711
_cell_length_c   22.35630613
_cell_angle_alpha   89.92035064
_cell_angle_beta   90.26231740
_cell_angle_gamma   120.02769300
_symmetry_Int_Tables_number   1
_chemical_formula_structural   Na42Mg16Nb8Si21(S5O48)3
_chemical_formula_sum   'Na42 Mg16 Nb8 Si21 S15 O144'
_cell_volume   3197.44009186
_cell_formula_units_Z   1
loop_
 _symmetry_equiv_pos_site_id
 _symmetry_equiv_pos_as_xyz
  1  'x, y, z'
loop_
 _atom_site_type_symbol
 _atom_site_label
 _atom_site_symmetry_multiplicity
 _atom_site_fract_x
 _atom_site_fract_y
 _atom_site_fract_z
 _atom_site_occupancy
  Na  Na0  1  0.32165466  0.02754674  0.24659558  1
  Na  Na1  1  0.82383638  0.01151483  0.24873486  1
  Na  Na2  1  0.99066879  0.63329781  0.25112783  1
  Na  Na3  1  0.32278197  0.63226927  0.74613148  1
  Na  Na4  1  0.82302237  0.61837738  0.74399412  1
  Na  Na5  1  0.49044719  0.34969277  0.74958455  1
  Na  Na6  1  0.15766965  0.35000470  0.58207007  1
  Na  Na7  1  0.65836531  0.34627548  0.58804391  1
  Na  Na8  1  0.01564127  0.67574128  0.58470473  1
  Na  Na9  1  0.50968703  0.68621498  0.57266320  1
  Na  Na10  1  0.32131177  0.95261745  0.58006074  1
  Na  Na11  1  0.83271708  0.97117200  0.57375301  1
  Na  Na12  1  0.15780000  0.96992395  0.08682443  1
  Na  Na13  1  0.65559792  0.95351855  0.08475978  1
  Na  Na14  1  0.33045859  0.68880267  0.07141049  1
  Na  Na15  1  0.82798615  0.70545850  0.07642964  1
  Na  Na16  1  0.01174838  0.33326544  0.07189965  1
  Na  Na17  1  0.50600701  0.34651219  0.08410310  1
  Na  Na18  1  0.47386467  0.66723736  0.91607680  1
  Na  Na19  1  0.97539786  0.65868295  0.90766198  1
  Na  Na20  1  0.35078472  0.02135620  0.91763261  1
  Na  Na21  1  0.85723447  0.03989739  0.92253564  1
  Na  Na22  1  0.16711480  0.31388429  0.91719528  1
  Na  Na23  1  0.67008558  0.30025445  0.90885622  1
  Na  Na24  1  0.47322860  0.29240662  0.41124610  1
  Na  Na25  1  0.97500543  0.28167244  0.41923787  1
  Na  Na26  1  0.17260121  0.04551027  0.41899247  1
  Na  Na27  1  0.66682219  0.01856695  0.42004817  1
  Na  Na28  1  0.35552318  0.67216405  0.42621336  1
  Na  Na29  1  0.85137996  0.68071789  0.42086076  1
  Na  Na30  1  0.99415547  0.00374783  0.49671998  1
  Na  Na31  1  0.49181115  0.97971032  0.49397514  1
  Na  Na32  1  0.99401762  0.00604001  0.99208735  1
  Na  Na33  1  0.48916644  0.97794219  0.99423709  1
  Na  Na34  1  0.33248482  0.33248590  0.82741297  1
  Na  Na35  1  0.83944897  0.34410777  0.82768713  1
  Na  Na36  1  0.33805287  0.33204769  0.33116590  1
  Na  Na37  1  0.83322671  0.33261046  0.33030135  1
  Na  Na38  1  0.17068522  0.66938487  0.16268802  1
  Na  Na39  1  0.66215126  0.66388297  0.16465017  1
  Na  Na40  1  0.16310075  0.67326966  0.65934341  1
  Na  Na41  1  0.67134711  0.67142685  0.66098001  1
  Mg  Mg42  1  0.99438075  0.99589356  0.34664516  1
  Mg  Mg43  1  0.49590094  0.99695869  0.35424220  1
  Mg  Mg44  1  0.99538466  0.99493810  0.85294659  1
  Mg  Mg45  1  0.49423691  0.99135749  0.84602653  1
  Mg  Mg46  1  0.32993968  0.32712258  0.68394539  1
  Mg  Mg47  1  0.84011350  0.35270064  0.68514273  1
  Mg  Mg48  1  0.33985616  0.32809547  0.18562551  1
  Mg  Mg49  1  0.83373651  0.32997150  0.18637980  1
  Mg  Mg50  1  0.33892140  0.34933042  0.98573147  1
  Mg  Mg51  1  0.84103581  0.33354641  0.97748304  1
  Mg  Mg52  1  0.33296382  0.33742343  0.48197908  1
  Mg  Mg53  1  0.83863523  0.32926600  0.48782563  1
  Mg  Mg54  1  0.17238187  0.66743869  0.01190336  1
  Mg  Mg55  1  0.67043281  0.67977821  0.02016834  1
  Mg  Mg56  1  0.17104997  0.67115512  0.52431782  1
  Mg  Mg57  1  0.67188250  0.67735667  0.51361722  1
  Nb  Nb58  1  0.00281407  0.98865004  0.64133733  1
  Nb  Nb59  1  0.49399717  0.98567755  0.65531073  1
  Nb  Nb60  1  0.99532689  0.00420912  0.15525247  1
  Nb  Nb61  1  0.49695381  0.00529582  0.14584596  1
  Nb  Nb62  1  0.16781997  0.67785437  0.31150662  1
  Nb  Nb63  1  0.66392004  0.66652893  0.31395405  1
  Nb  Nb64  1  0.16361628  0.65863034  0.81166740  1
  Nb  Nb65  1  0.67015463  0.66044839  0.80940366  1
  Si  Si66  1  0.14845147  0.01678627  0.25360975  1
  Si  Si67  1  0.84803589  0.69267500  0.25442111  1
  Si  Si68  1  0.99971914  0.29898937  0.25492961  1
  Si  Si69  1  0.50100245  0.29651367  0.25500439  1
  Si  Si70  1  0.64817420  0.27790317  0.75331468  1
  Si  Si71  1  0.99955246  0.70654401  0.75507943  1
  Si  Si72  1  0.49883840  0.69992728  0.75504268  1
  Si  Si73  1  0.34897743  0.00535141  0.75579972  1
  Si  Si74  1  0.97909434  0.33440605  0.58332367  1
  Si  Si75  1  0.19286343  0.04627833  0.58007188  1
  Si  Si76  1  0.33447966  0.62416902  0.58476333  1
  Si  Si77  1  0.82637390  0.61783541  0.58161112  1
  Si  Si78  1  0.48090845  0.62427726  0.08310420  1
  Si  Si79  1  0.32623154  0.03505286  0.08157070  1
  Si  Si80  1  0.83296681  0.04206541  0.08461070  1
  Si  Si81  1  0.31736615  0.66666739  0.91785241  1
  Si  Si82  1  0.81437934  0.66564261  0.92218433  1
  Si  Si83  1  0.01967622  0.36978083  0.91982171  1
  Si  Si84  1  0.31584102  0.96325571  0.42125686  1
  Si  Si85  1  0.81798995  0.96896233  0.41818493  1
  Si  Si86  1  0.51802859  0.66778692  0.42032765  1
  S  S87  1  0.64511683  0.00220020  0.25159505  1
  S  S88  1  0.35437340  0.70489178  0.25067976  1
  S  S89  1  0.14431098  0.28716144  0.75205345  1
  S  S90  1  0.85494569  0.00418836  0.75099734  1
  S  S91  1  0.48155678  0.33231711  0.58332033  1
  S  S92  1  0.68634248  0.04226491  0.58425596  1
  S  S93  1  0.97981334  0.62896984  0.08327839  1
  S  S94  1  0.18648946  0.33031810  0.08443704  1
  S  S95  1  0.68804350  0.33096588  0.08291145  1
  S  S96  1  0.52269760  0.37682763  0.91787284  1
  S  S97  1  0.16743388  0.95920915  0.91779161  1
  S  S98  1  0.66554071  0.95653140  0.91774287  1
  S  S99  1  0.16521496  0.37734360  0.41684434  1
  S  S100  1  0.66728512  0.37529871  0.41750483  1
  S  S101  1  0.02160552  0.66784228  0.41711688  1
  O  O102  1  0.10002566  0.01543710  0.31250687  1
  O  O103  1  0.60331639  0.01689058  0.30500716  1
  O  O104  1  0.40462793  0.78629528  0.30438542  1
  O  O105  1  0.90878658  0.77570144  0.31110893  1
  O  O106  1  0.48969596  0.17400134  0.30960572  1
  O  O107  1  0.98274952  0.17920887  0.31070317  1
  O  O108  1  0.10282943  0.18996859  0.80601381  1
  O  O109  1  0.60097000  0.18593980  0.81336741  1
  O  O110  1  0.48416893  0.78577226  0.81182312  1
  O  O111  1  0.98853070  0.80079131  0.81180964  1
  O  O112  1  0.40860308  0.03732928  0.81275666  1
  O  O113  1  0.90266331  0.02239554  0.80568393  1
  O  O114  1  0.39976091  0.96609073  0.69641326  1
  O  O115  1  0.89173938  0.96779684  0.69787497  1
  O  O116  1  0.09290474  0.20871411  0.69720590  1
  O  O117  1  0.58429275  0.20188050  0.69259133  1
  O  O118  1  0.01181534  0.82989404  0.69426636  1
  O  O119  1  0.51612107  0.82769507  0.69433750  1
  O  O120  1  0.39561979  0.82070763  0.19640008  1
  O  O121  1  0.90000560  0.83397809  0.19507827  1
  O  O122  1  0.01543933  0.20414688  0.19378545  1
  O  O123  1  0.51337957  0.19399658  0.19312884  1
  O  O124  1  0.08394981  0.96733538  0.19210941  1
  O  O125  1  0.59303551  0.97849726  0.19611132  1
  O  O126  1  0.44431660  0.35768055  0.63768894  1
  O  O127  1  0.93245601  0.36501515  0.63805796  1
  O  O128  1  0.25180806  0.13246529  0.63684677  1
  O  O129  1  0.73986712  0.12441289  0.63658735  1
  O  O130  1  0.32519136  0.52134169  0.64555549  1
  O  O131  1  0.81043002  0.50723162  0.64128850  1
  O  O132  1  0.43354941  0.50491479  0.13870006  1
  O  O133  1  0.94016071  0.52796246  0.13730769  1
  O  O134  1  0.31325709  0.11553610  0.14144646  1
  O  O135  1  0.81944584  0.12690864  0.14394421  1
  O  O136  1  0.23959494  0.35454308  0.13671999  1
  O  O137  1  0.74062800  0.35653204  0.13565870  1
  O  O138  1  0.22254675  0.30349877  0.02871467  1
  O  O139  1  0.72275448  0.29921678  0.02823439  1
  O  O140  1  0.42471953  0.57081545  0.02172769  1
  O  O141  1  0.92680149  0.55264216  0.02941893  1
  O  O142  1  0.35366877  0.15547527  0.02257150  1
  O  O143  1  0.85431967  0.15942041  0.02510125  1
  O  O144  1  0.22187264  0.16084918  0.51963301  1
  O  O145  1  0.72223814  0.14095448  0.52831725  1
  O  O146  1  0.36043345  0.55772292  0.52530105  1
  O  O147  1  0.85086585  0.54925773  0.52177840  1
  O  O148  1  0.42903364  0.30275004  0.52927656  1
  O  O149  1  0.92287732  0.27657879  0.52147916  1
  O  O150  1  0.27534230  0.69861147  0.97636477  1
  O  O151  1  0.76669168  0.69287324  0.97757070  1
  O  O152  1  0.07586594  0.45689266  0.97932625  1
  O  O153  1  0.57457752  0.46350340  0.97079829  1
  O  O154  1  0.15217042  0.85451913  0.97228544  1
  O  O155  1  0.65207427  0.85292496  0.97193598  1
  O  O156  1  0.26690343  0.83431013  0.47443081  1
  O  O157  1  0.77375664  0.84930196  0.47526296  1
  O  O158  1  0.15247501  0.45445043  0.47046643  1
  O  O159  1  0.65219979  0.45008124  0.47125620  1
  O  O160  1  0.07348419  0.68250871  0.46908640  1
  O  O161  1  0.57711131  0.69618589  0.47818941  1
  O  O162  1  0.06423331  0.64500299  0.36048274  1
  O  O163  1  0.57378880  0.64286808  0.36174358  1
  O  O164  1  0.25141258  0.85261056  0.35876319  1
  O  O165  1  0.75209953  0.85695566  0.35865010  1
  O  O166  1  0.17285657  0.48806890  0.36289143  1
  O  O167  1  0.68030886  0.48862403  0.36389084  1
  O  O168  1  0.07438647  0.50454281  0.86238171  1
  O  O169  1  0.56512434  0.48491561  0.86224360  1
  O  O170  1  0.18049073  0.87298735  0.86489330  1
  O  O171  1  0.67632150  0.86750627  0.86455542  1
  O  O172  1  0.25153914  0.64568667  0.85959730  1
  O  O173  1  0.75031099  0.64742090  0.86084364  1
  O  O174  1  0.01555651  0.82354091  0.41217140  1
  O  O175  1  0.51522504  0.84228261  0.40879651  1
  O  O176  1  0.40864924  0.98094706  0.41324258  1
  O  O177  1  0.91133161  0.98430176  0.41252903  1
  O  O178  1  0.09080435  0.20446726  0.41027730  1
  O  O179  1  0.59238126  0.20391752  0.40921863  1
  O  O180  1  0.01465622  0.18704387  0.90970627  1
  O  O181  1  0.51615044  0.20809353  0.91358575  1
  O  O182  1  0.09264771  0.98151351  0.91030531  1
  O  O183  1  0.59062616  0.97902264  0.91193600  1
  O  O184  1  0.41128186  0.83772603  0.91265117  1
  O  O185  1  0.90712940  0.83396956  0.91426083  1
  O  O186  1  0.49149081  0.17535739  0.58850517  1
  O  O187  1  0.98984250  0.16072533  0.59773942  1
  O  O188  1  0.09303125  0.02704480  0.59118764  1
  O  O189  1  0.59935545  0.02832463  0.58915941  1
  O  O190  1  0.42541286  0.83192366  0.59065509  1
  O  O191  1  0.91521586  0.81657351  0.59155430  1
  O  O192  1  0.49657862  0.82635323  0.09668472  1
  O  O193  1  0.98994824  0.80576476  0.08793730  1
  O  O194  1  0.41715353  0.01325234  0.09236865  1
  O  O195  1  0.92396489  0.02127905  0.09029720  1
  O  O196  1  0.09898112  0.16971663  0.08905132  1
  O  O197  1  0.59976582  0.16817052  0.08972197  1
  O  O198  1  0.34361955  0.17213301  0.74336517  1
  O  O199  1  0.83844531  0.14461383  0.74319374  1
  O  O200  1  0.23095450  0.31619292  0.74766882  1
  O  O201  1  0.74312262  0.31818018  0.74559554  1
  O  O202  1  0.41977420  0.51305558  0.74376979  1
  O  O203  1  0.91735727  0.52216922  0.74736769  1
  O  O204  1  0.34051996  0.53681103  0.24131464  1
  O  O205  1  0.84034115  0.51425256  0.23842479  1
  O  O206  1  0.41820547  0.31241176  0.24618261  1
  O  O207  1  0.91974717  0.32584935  0.24362214  1
  O  O208  1  0.24306024  0.16766797  0.24460502  1
  O  O209  1  0.73087954  0.14920643  0.24582446  1
  O  O210  1  0.31887717  0.48657933  0.91668409  1
  O  O211  1  0.81602420  0.48780154  0.92135316  1
  O  O212  1  0.43746200  0.36014522  0.91866827  1
  O  O213  1  0.92711803  0.35651711  0.91668806  1
  O  O214  1  0.24551068  0.12861680  0.92213946  1
  O  O215  1  0.74377107  0.12567338  0.92147998  1
  O  O216  1  0.31860795  0.14450498  0.41785170  1
  O  O217  1  0.81837397  0.15052548  0.41565468  1
  O  O218  1  0.24497395  0.37119526  0.41706921  1
  O  O219  1  0.74517455  0.36270895  0.42077027  1
  O  O220  1  0.42591008  0.49584480  0.41742967  1
  O  O221  1  0.93646284  0.51350116  0.41673219  1
  O  O222  1  0.17246706  0.47856408  0.08038892  1
  O  O223  1  0.67143466  0.47445393  0.07772817  1
  O  O224  1  0.06626289  0.65029936  0.07832709  1
  O  O225  1  0.57632471  0.64945738  0.07673407  1
  O  O226  1  0.24638886  0.83944112  0.07785897  1
  O  O227  1  0.75277190  0.84751150  0.08159250  1
  O  O228  1  0.16806889  0.84829789  0.57622130  1
  O  O229  1  0.67245083  0.86604670  0.58021481  1
  O  O230  1  0.25411114  0.65432977  0.58047905  1
  O  O231  1  0.74553985  0.65145374  0.57767197  1
  O  O232  1  0.07544331  0.49253705  0.57584992  1
  O  O233  1  0.56855000  0.48373322  0.57739758  1
  O  O234  1  0.15395011  0.82784581  0.25718126  1
  O  O235  1  0.65340508  0.84345228  0.25352845  1
  O  O236  1  0.26919624  0.70142707  0.25347481  1
  O  O237  1  0.75923825  0.70064758  0.25513861  1
  O  O238  1  0.08783080  0.48909941  0.25678236  1
  O  O239  1  0.59027548  0.48382699  0.25673402  1
  O  O240  1  0.15247487  0.46399394  0.75446896  1
  O  O241  1  0.65454790  0.48041311  0.75764190  1
  O  O242  1  0.08887855  0.69623318  0.75887727  1
  O  O243  1  0.58776014  0.68721583  0.75929335  1
  O  O244  1  0.25932199  0.81980823  0.75688970  1
  O  O245  1  0.76656969  0.83625542  0.75594381  1
