# generated using pymatgen
data_Na7Y2Sc2SiP5O24
_symmetry_space_group_name_H-M   'P 1'
_cell_length_a   9.25700699
_cell_length_b   9.24083485
_cell_length_c   22.82979558
_cell_angle_alpha   89.97452588
_cell_angle_beta   90.05671909
_cell_angle_gamma   119.99693117
_symmetry_Int_Tables_number   1
_chemical_formula_structural   Na7Y2Sc2SiP5O24
_chemical_formula_sum   'Na21 Y6 Sc6 Si3 P15 O72'
_cell_volume   1691.32734561
_cell_formula_units_Z   3
loop_
 _symmetry_equiv_pos_site_id
 _symmetry_equiv_pos_as_xyz
  1  'x, y, z'
loop_
 _atom_site_type_symbol
 _atom_site_label
 _atom_site_symmetry_multiplicity
 _atom_site_fract_x
 _atom_site_fract_y
 _atom_site_fract_z
 _atom_site_occupancy
  Na  Na0  1  0.36576476  0.36838672  0.25244673  1
  Na  Na1  1  0.00209027  0.63315305  0.24875734  1
  Na  Na2  1  0.63858073  0.64790611  0.74964526  1
  Na  Na3  1  0.99469145  0.35846851  0.75662918  1
  Na  Na4  1  0.36488448  0.99396600  0.74916969  1
  Na  Na5  1  0.30302408  0.32715628  0.57752395  1
  Na  Na6  1  0.03643712  0.69767201  0.57937794  1
  Na  Na7  1  0.65646691  0.96851997  0.58596873  1
  Na  Na8  1  0.30244292  0.96883427  0.08365594  1
  Na  Na9  1  0.67470931  0.69574618  0.08186987  1
  Na  Na10  1  0.02920117  0.34101641  0.08621194  1
  Na  Na11  1  0.96399944  0.66504338  0.92099347  1
  Na  Na12  1  0.70227004  0.03406100  0.91377150  1
  Na  Na13  1  0.96830503  0.29825497  0.41286303  1
  Na  Na14  1  0.33167513  0.03325580  0.41784359  1
  Na  Na15  1  0.99207999  0.98405150  0.49865155  1
  Na  Na16  1  0.01408298  0.00915389  0.00341888  1
  Na  Na17  1  0.65227524  0.32676499  0.83241217  1
  Na  Na18  1  0.66645051  0.33278645  0.33216048  1
  Na  Na19  1  0.34221206  0.68175167  0.16730299  1
  Na  Na20  1  0.34185801  0.68014436  0.66622438  1
  Y  Y21  1  0.00763721  0.00913638  0.85291222  1
  Y  Y22  1  0.99949286  0.00078488  0.65231449  1
  Y  Y23  1  0.66444872  0.32740895  0.67989390  1
  Y  Y24  1  0.67009589  0.32686402  0.18501851  1
  Y  Y25  1  0.66055432  0.33636708  0.98377586  1
  Y  Y26  1  0.66315079  0.33870374  0.47932815  1
  Sc  Sc27  1  0.99051223  0.99261033  0.35144344  1
  Sc  Sc28  1  0.99477247  0.99535000  0.15179023  1
  Sc  Sc29  1  0.33136938  0.66295770  0.01794237  1
  Sc  Sc30  1  0.33933095  0.67132982  0.51383205  1
  Sc  Sc31  1  0.34335396  0.67436910  0.31432013  1
  Sc  Sc32  1  0.33586504  0.66626830  0.81751756  1
  Si  Si33  1  0.69037648  0.99773276  0.75220309  1
  Si  Si34  1  0.35802354  0.02196155  0.58016774  1
  Si  Si35  1  0.97507900  0.64228324  0.08411996  1
  P  P36  1  0.28778620  0.99666863  0.25260692  1
  P  P37  1  0.70336576  0.70675175  0.24957937  1
  P  P38  1  0.00594160  0.29724627  0.25263546  1
  P  P39  1  0.30550200  0.30939046  0.74843048  1
  P  P40  1  0.00254583  0.69505057  0.75251799  1
  P  P41  1  0.97489683  0.33844990  0.57995329  1
  P  P42  1  0.66262493  0.63706383  0.58416029  1
  P  P43  1  0.66798758  0.02776384  0.08055132  1
  P  P44  1  0.36000850  0.33175377  0.08772927  1
  P  P45  1  0.62700112  0.66614336  0.91690845  1
  P  P46  1  0.03802298  0.37388655  0.91823076  1
  P  P47  1  0.33485370  0.95594653  0.91779841  1
  P  P48  1  0.63136183  0.95933207  0.41610771  1
  P  P49  1  0.32596238  0.36834570  0.41316040  1
  P  P50  1  0.04643705  0.67124210  0.41314236  1
  O  O51  1  0.19855697  0.01425328  0.30733063  1
  O  O52  1  0.81771582  0.80278535  0.30171416  1
  O  O53  1  0.99253847  0.19446307  0.30790804  1
  O  O54  1  0.21695656  0.18603514  0.79905225  1
  O  O55  1  0.98090543  0.78285460  0.80665250  1
  O  O56  1  0.81092124  0.02459541  0.80841140  1
  O  O57  1  0.77445043  0.97163844  0.69313245  1
  O  O58  1  0.20746451  0.23510278  0.69106673  1
  O  O59  1  0.03114787  0.80336046  0.69734205  1
  O  O60  1  0.78218750  0.80067530  0.19165429  1
  O  O61  1  0.01783385  0.20829583  0.19690374  1
  O  O62  1  0.18107931  0.97684435  0.19725927  1
  O  O63  1  0.89754836  0.36794385  0.63562555  1
  O  O64  1  0.46915309  0.10520075  0.63934879  1
  O  O65  1  0.64035447  0.54188146  0.64193647  1
  O  O66  1  0.88818016  0.51855036  0.14032269  1
  O  O67  1  0.62702172  0.11114154  0.13149366  1
  O  O68  1  0.46739975  0.36267361  0.14328582  1
  O  O69  1  0.44187876  0.29136853  0.03613843  1
  O  O70  1  0.85349569  0.55865976  0.02706154  1
  O  O71  1  0.69835684  0.13305793  0.02442536  1
  O  O72  1  0.45013804  0.14410189  0.52423908  1
  O  O73  1  0.69405302  0.54526193  0.53380418  1
  O  O74  1  0.86346451  0.31579430  0.52635832  1
  O  O75  1  0.53472007  0.67222827  0.97234059  1
  O  O76  1  0.13601874  0.46677863  0.97383364  1
  O  O77  1  0.32756562  0.85494040  0.97294398  1
  O  O78  1  0.55241245  0.86618739  0.47412641  1
  O  O79  1  0.31420332  0.45601499  0.46941681  1
  O  O80  1  0.15190653  0.69067616  0.46888503  1
  O  O81  1  0.13741896  0.65507661  0.35870118  1
  O  O82  1  0.51622358  0.86272622  0.36421830  1
  O  O83  1  0.33855585  0.47230400  0.35834842  1
  O  O84  1  0.12777286  0.47045876  0.86196933  1
  O  O85  1  0.34301034  0.86466119  0.86200438  1
  O  O86  1  0.53088779  0.66122872  0.86068555  1
  O  O87  1  0.03061174  0.83113081  0.41051584  1
  O  O88  1  0.81037132  0.98562740  0.41128560  1
  O  O89  1  0.16343020  0.19184840  0.41194147  1
  O  O90  1  0.01098217  0.19418869  0.91934358  1
  O  O91  1  0.17354067  0.96748012  0.91810998  1
  O  O92  1  0.80330188  0.82757077  0.91769848  1
  O  O93  1  0.98925285  0.17936666  0.58472822  1
  O  O94  1  0.17053184  0.99757898  0.58375221  1
  O  O95  1  0.81417764  0.81596874  0.58558506  1
  O  O96  1  0.99615787  0.82993256  0.09116251  1
  O  O97  1  0.82876259  0.01790117  0.09067075  1
  O  O98  1  0.18071820  0.18029069  0.09345368  1
  O  O99  1  0.67060891  0.16430570  0.74960485  1
  O  O100  1  0.48493821  0.33921064  0.74590972  1
  O  O101  1  0.84407886  0.52155789  0.74779649  1
  O  O102  1  0.68872774  0.53047805  0.24928279  1
  O  O103  1  0.85404518  0.32588081  0.25149408  1
  O  O104  1  0.46022712  0.15818222  0.24945802  1
  O  O105  1  0.65324665  0.51294427  0.91627483  1
  O  O106  1  0.86284110  0.36086615  0.91802400  1
  O  O107  1  0.49533892  0.12955241  0.91806420  1
  O  O108  1  0.64771384  0.13638764  0.41576896  1
  O  O109  1  0.47753165  0.33938420  0.41349943  1
  O  O110  1  0.87426896  0.50923223  0.41553698  1
  O  O111  1  0.34748516  0.49139943  0.07808876  1
  O  O112  1  0.16315735  0.66457415  0.07803786  1
  O  O113  1  0.51782282  0.84735464  0.07574350  1
  O  O114  1  0.34215748  0.83642580  0.57462346  1
  O  O115  1  0.50061912  0.64569554  0.57531585  1
  O  O116  1  0.15205647  0.49282341  0.57346556  1
  O  O117  1  0.30345751  0.83649981  0.25529787  1
  O  O118  1  0.52394233  0.67984397  0.25457793  1
  O  O119  1  0.16841635  0.47416934  0.25391198  1
  O  O120  1  0.31345568  0.47959646  0.75719158  1
  O  O121  1  0.15681824  0.67143985  0.75761401  1
  O  O122  1  0.50317814  0.83019846  0.75690405  1
