# generated using pymatgen
data_Na2Zr3ZnP4(SO12)2
_symmetry_space_group_name_H-M   'P 1'
_cell_length_a   8.89021349
_cell_length_b   8.89538063
_cell_length_c   23.24518458
_cell_angle_alpha   90.09543660
_cell_angle_beta   89.85545097
_cell_angle_gamma   120.04262592
_symmetry_Int_Tables_number   1
_chemical_formula_structural   Na2Zr3ZnP4(SO12)2
_chemical_formula_sum   'Na6 Zr9 Zn3 P12 S6 O72'
_cell_volume   1591.30059985
_cell_formula_units_Z   3
loop_
 _symmetry_equiv_pos_site_id
 _symmetry_equiv_pos_as_xyz
  1  'x, y, z'
loop_
 _atom_site_type_symbol
 _atom_site_label
 _atom_site_symmetry_multiplicity
 _atom_site_fract_x
 _atom_site_fract_y
 _atom_site_fract_z
 _atom_site_occupancy
  Na  Na0  1  0.00035260  0.99642459  0.50485522  1
  Na  Na1  1  0.00344039  0.99901336  0.00271604  1
  Na  Na2  1  0.66427594  0.32944563  0.83236050  1
  Na  Na3  1  0.66723442  0.33288634  0.33646085  1
  Na  Na4  1  0.33060730  0.66377566  0.16972545  1
  Na  Na5  1  0.33908238  0.66835758  0.66516721  1
  Zr  Zr6  1  0.00082880  0.00015298  0.35741926  1
  Zr  Zr7  1  0.00183453  0.00820841  0.85213367  1
  Zr  Zr8  1  0.65276988  0.32519750  0.68505414  1
  Zr  Zr9  1  0.66844788  0.34162679  0.18592509  1
  Zr  Zr10  1  0.66406914  0.33929048  0.98002839  1
  Zr  Zr11  1  0.66062984  0.33613749  0.47984850  1
  Zr  Zr12  1  0.32719504  0.66098538  0.01946844  1
  Zr  Zr13  1  0.33988556  0.67233661  0.51840597  1
  Zr  Zr14  1  0.34021562  0.66792240  0.81278210  1
  Zn  Zn15  1  0.99840509  0.00000530  0.64766385  1
  Zn  Zn16  1  0.00914395  0.99968872  0.14727082  1
  Zn  Zn17  1  0.33254483  0.66633388  0.32301021  1
  P  P18  1  0.28531035  0.28687198  0.74756069  1
  P  P19  1  0.71443395  0.00200695  0.74743150  1
  P  P20  1  0.36692112  0.03969437  0.58313092  1
  P  P21  1  0.67262362  0.63123882  0.58407088  1
  P  P22  1  0.95785904  0.63066996  0.08388842  1
  P  P23  1  0.36929804  0.32822689  0.08411430  1
  P  P24  1  0.62500397  0.66948405  0.91689807  1
  P  P25  1  0.04212510  0.37685320  0.91609011  1
  P  P26  1  0.33242013  0.95615501  0.91665747  1
  P  P27  1  0.61941228  0.95639309  0.41432234  1
  P  P28  1  0.33465704  0.38254134  0.41473534  1
  P  P29  1  0.04587226  0.66330331  0.41502495  1
  S  S30  1  0.28848910  0.99471989  0.24911541  1
  S  S31  1  0.70786376  0.71490904  0.24895030  1
  S  S32  1  0.00457658  0.29166878  0.24874996  1
  S  S33  1  -0.00007605  0.71114453  0.74859998  1
  S  S34  1  0.95721837  0.33051683  0.58346121  1
  S  S35  1  0.67018648  0.04316708  0.08380731  1
  O  O36  1  0.21088503  0.02825564  0.30117322  1
  O  O37  1  0.81768142  0.78987496  0.30107878  1
  O  O38  1  0.97206136  0.18205179  0.30108693  1
  O  O39  1  0.20724749  0.17828695  0.80364990  1
  O  O40  1  0.97253747  0.78813659  0.80225194  1
  O  O41  1  0.82130406  0.02640188  0.80368247  1
  O  O42  1  0.79120866  0.96778879  0.69519751  1
  O  O43  1  0.17743995  0.20810266  0.69509543  1
  O  O44  1  0.03010879  0.81433292  0.69813593  1
  O  O45  1  0.79009124  0.81651582  0.19708201  1
  O  O46  1  0.02509162  0.20903220  0.19701538  1
  O  O47  1  0.18497690  0.97308313  0.19757167  1
  O  O48  1  0.87707934  0.36135335  0.63550876  1
  O  O49  1  0.48831454  0.12500629  0.63657369  1
  O  O50  1  0.64055025  0.51045615  0.63705482  1
  O  O51  1  0.87144959  0.50919482  0.13685892  1
  O  O52  1  0.63904389  0.12379327  0.13545600  1
  O  O53  1  0.49033340  0.35988943  0.13685340  1
  O  O54  1  0.46122189  0.30582681  0.03058277  1
  O  O55  1  0.84527070  0.53668372  0.03048472  1
  O  O56  1  0.69314641  0.14936837  0.03180437  1
  O  O57  1  0.46314255  0.15403142  0.53041483  1
  O  O58  1  0.69299919  0.53786464  0.53050876  1
  O  O59  1  0.85066749  0.30844187  0.53171861  1
  O  O60  1  0.53981792  0.69557026  0.97072347  1
  O  O61  1  0.15482279  0.45935590  0.97025548  1
  O  O62  1  0.30621695  0.84431160  0.97068376  1
  O  O63  1  0.54258267  0.84531000  0.46950964  1
  O  O64  1  0.30269845  0.45868586  0.47004414  1
  O  O65  1  0.15592107  0.69613415  0.47001371  1
  O  O66  1  0.12072708  0.63446820  0.36072516  1
  O  O67  1  0.51375215  0.87960157  0.36072008  1
  O  O68  1  0.36598634  0.48681504  0.36065559  1
  O  O69  1  0.12630057  0.48920222  0.86297912  1
  O  O70  1  0.36110731  0.87211154  0.86311672  1
  O  O71  1  0.51149886  0.63729013  0.86343004  1
  O  O72  1  0.02343004  0.82743486  0.40841696  1
  O  O73  1  0.80461964  0.97635177  0.40834503  1
  O  O74  1  0.17209779  0.19558456  0.40855083  1
  O  O75  1  0.02396522  0.19538159  0.91044351  1
  O  O76  1  0.17028583  0.97508216  0.90965635  1
  O  O77  1  0.80689093  0.82860953  0.90946505  1
  O  O78  1  0.97527460  0.17754366  0.58914820  1
  O  O79  1  0.19111775  0.02409466  0.59024353  1
  O  O80  1  0.83193941  0.80888001  0.58987464  1
  O  O81  1  0.97383873  0.80736183  0.09050684  1
  O  O82  1  0.82353254  0.02469827  0.09041712  1
  O  O83  1  0.19072347  0.16932186  0.09045662  1
  O  O84  1  0.69275405  0.16531832  0.74361593  1
  O  O85  1  0.47279924  0.31177585  0.74424891  1
  O  O86  1  0.84409419  0.53316152  0.74401652  1
  O  O87  1  0.69254190  0.53522293  0.24316440  1
  O  O88  1  0.84089090  0.30640758  0.24263220  1
  O  O89  1  0.46680120  0.15748647  0.24252831  1
  O  O90  1  0.64259364  0.50531586  0.92337366  1
  O  O91  1  0.86028390  0.35511047  0.92456233  1
  O  O92  1  0.49581801  0.13755418  0.92446131  1
  O  O93  1  0.64712828  0.14021855  0.42462608  1
  O  O94  1  0.49252392  0.35452291  0.42342131  1
  O  O95  1  0.86115515  0.50562881  0.42443503  1
  O  O96  1  0.36085832  0.49755670  0.07684643  1
  O  O97  1  0.13781254  0.64276518  0.07692605  1
  O  O98  1  0.51013878  0.86959702  0.07730162  1
  O  O99  1  0.35699844  0.86057991  0.57678152  1
  O  O100  1  0.50217115  0.63922650  0.57676335  1
  O  O101  1  0.13121542  0.49101633  0.57715104  1
  O  O102  1  0.31174580  0.84405119  0.25595437  1
  O  O103  1  0.53248601  0.68824671  0.25585879  1
  O  O104  1  0.15510000  0.46645558  0.25572090  1
  O  O105  1  0.31010675  0.47149173  0.75798360  1
  O  O106  1  0.15546439  0.68935584  0.75758119  1
  O  O107  1  0.52835832  0.84160492  0.75791788  1
