# generated using pymatgen
data_Ca(AuO2)2
_symmetry_space_group_name_H-M   'P 1'
_cell_length_a   6.01792610
_cell_length_b   6.01792695
_cell_length_c   6.60191237
_cell_angle_alpha   117.11457895
_cell_angle_beta   117.11457429
_cell_angle_gamma   89.99999811
_symmetry_Int_Tables_number   1
_chemical_formula_structural   Ca(AuO2)2
_chemical_formula_sum   'Ca2 Au4 O8'
_cell_volume   182.79843170
_cell_formula_units_Z   2
loop_
 _symmetry_equiv_pos_site_id
 _symmetry_equiv_pos_as_xyz
  1  'x, y, z'
loop_
 _atom_site_type_symbol
 _atom_site_label
 _atom_site_symmetry_multiplicity
 _atom_site_fract_x
 _atom_site_fract_y
 _atom_site_fract_z
 _atom_site_occupancy
  Ca  Ca0  1  0.12500000  0.37500000  0.25000000  1
  Ca  Ca1  1  0.87500000  0.62500000  0.75000000  1
  Au  Au2  1  0.50000000  0.00000000  0.50000000  1
  Au  Au3  1  0.50000000  0.50000000  0.00000000  1
  Au  Au4  1  -0.00000000  0.00000000  0.50000000  1
  Au  Au5  1  0.50000000  0.00000000  0.00000000  1
  O  O6  1  0.83096251  0.21902563  0.34843195  1
  O  O7  1  0.12940632  0.33096251  0.84843195  1
  O  O8  1  0.71902563  0.01746944  0.84843195  1
  O  O9  1  0.51746944  0.62940632  0.34843195  1
  O  O10  1  0.16903749  0.78097437  0.65156805  1
  O  O11  1  0.87059368  0.66903749  0.15156805  1
  O  O12  1  0.48253056  0.37059368  0.65156805  1
  O  O13  1  0.28097437  0.98253056  0.15156805  1
