# generated using pymatgen
data_Fe7Pb7F34
_symmetry_space_group_name_H-M   'P 1'
_cell_length_a   9.87263307
_cell_length_b   9.87263307
_cell_length_c   7.64343401
_cell_angle_alpha   79.73128196
_cell_angle_beta   79.73128196
_cell_angle_gamma   68.80221856
_symmetry_Int_Tables_number   1
_chemical_formula_structural   Fe7Pb7F34
_chemical_formula_sum   'Fe7 Pb7 F34'
_cell_volume   678.18395789
_cell_formula_units_Z   1
loop_
 _symmetry_equiv_pos_site_id
 _symmetry_equiv_pos_as_xyz
  1  'x, y, z'
loop_
 _atom_site_type_symbol
 _atom_site_label
 _atom_site_symmetry_multiplicity
 _atom_site_fract_x
 _atom_site_fract_y
 _atom_site_fract_z
 _atom_site_occupancy
  Fe  Fe0  1  0.50000000  0.50000000  0.50000000  1
  Fe  Fe1  1  0.16362999  0.16362999  0.46486637  1
  Fe  Fe2  1  0.83637001  0.83637001  0.53513363  1
  Fe  Fe3  1  0.86040875  0.35178421  0.19793225  1
  Fe  Fe4  1  0.35178421  0.86040875  0.19793225  1
  Fe  Fe5  1  0.13959125  0.64821579  0.80206775  1
  Fe  Fe6  1  0.64821579  0.13959125  0.80206775  1
  Pb  Pb7  1  0.00000000  -0.00000000  0.00000000  1
  Pb  Pb8  1  0.26004219  0.26004219  0.90279375  1
  Pb  Pb9  1  0.73995781  0.73995781  0.09720625  1
  Pb  Pb10  1  0.84466522  0.45257025  0.70666307  1
  Pb  Pb11  1  0.45257025  0.84466522  0.70666307  1
  Pb  Pb12  1  0.15533478  0.54742975  0.29333693  1
  Pb  Pb13  1  0.54742975  0.15533478  0.29333693  1
  F  F14  1  0.74181101  0.98988031  0.99256425  1
  F  F15  1  0.98988031  0.74181101  0.99256425  1
  F  F16  1  0.25818899  0.01011969  0.00743575  1
  F  F17  1  0.01011969  0.25818899  0.00743575  1
  F  F18  1  0.24544246  0.50413913  0.98636102  1
  F  F19  1  0.50413913  0.24544246  0.98636102  1
  F  F20  1  0.75455754  0.49586087  0.01363898  1
  F  F21  1  0.49586087  0.75455754  0.01363898  1
  F  F22  1  0.03835450  0.51356533  0.80500858  1
  F  F23  1  0.51356533  0.03835450  0.80500858  1
  F  F24  1  0.96164550  0.48643467  0.19499142  1
  F  F25  1  0.48643467  0.96164550  0.19499142  1
  F  F26  1  0.79157099  0.22392352  0.81193279  1
  F  F27  1  0.22392352  0.79157099  0.81193279  1
  F  F28  1  0.20842901  0.77607648  0.18806721  1
  F  F29  1  0.77607648  0.20842901  0.18806721  1
  F  F30  1  0.29245757  0.54843086  0.61979183  1
  F  F31  1  0.54843086  0.29245757  0.61979183  1
  F  F32  1  0.70754243  0.45156914  0.38020817  1
  F  F33  1  0.45156914  0.70754243  0.38020817  1
  F  F34  1  0.02766711  0.77876351  0.61275042  1
  F  F35  1  0.77876351  0.02766711  0.61275042  1
  F  F36  1  0.97233289  0.22123649  0.38724958  1
  F  F37  1  0.22123649  0.97233289  0.38724958  1
  F  F38  1  0.11258399  0.35602675  0.53587117  1
  F  F39  1  0.35602675  0.11258399  0.53587117  1
  F  F40  1  0.88741601  0.64397325  0.46412883  1
  F  F41  1  0.64397325  0.88741601  0.46412883  1
  F  F42  1  0.75256135  0.75256135  0.77161845  1
  F  F43  1  0.24743865  0.24743865  0.22838155  1
  F  F44  1  0.10048245  0.10048245  0.70261806  1
  F  F45  1  0.89951755  0.89951755  0.29738194  1
  F  F46  1  0.56923587  0.56923587  0.67951330  1
  F  F47  1  0.43076413  0.43076413  0.32048670  1
