# generated using pymatgen
data_Na14Ca4Hf4Si7S5O48
_symmetry_space_group_name_H-M   'P 1'
_cell_length_a   18.67424137
_cell_length_b   9.33240443
_cell_length_c   22.84722830
_cell_angle_alpha   89.95877777
_cell_angle_beta   89.93901486
_cell_angle_gamma   119.92934848
_symmetry_Int_Tables_number   1
_chemical_formula_structural   Na14Ca4Hf4Si7S5O48
_chemical_formula_sum   'Na42 Ca12 Hf12 Si21 S15 O144'
_cell_volume   3450.71206176
_cell_formula_units_Z   3
loop_
 _symmetry_equiv_pos_site_id
 _symmetry_equiv_pos_as_xyz
  1  'x, y, z'
loop_
 _atom_site_type_symbol
 _atom_site_label
 _atom_site_symmetry_multiplicity
 _atom_site_fract_x
 _atom_site_fract_y
 _atom_site_fract_z
 _atom_site_occupancy
  Na  Na0  1  0.80507691  0.98211136  0.25895732  1
  Na  Na1  1  0.18430265  0.35004245  0.25705519  1
  Na  Na2  1  0.69389452  0.36523308  0.25421969  1
  Na  Na3  1  0.99142723  0.64518233  0.24254925  1
  Na  Na4  1  0.49855151  0.64816805  0.24988194  1
  Na  Na5  1  0.30681445  0.62826067  0.74244348  1
  Na  Na6  1  0.99752186  0.34686854  0.74330626  1
  Na  Na7  1  0.49548738  0.34418355  0.73648383  1
  Na  Na8  1  0.19186618  0.01992373  0.74799687  1
  Na  Na9  1  0.68645740  0.01935435  0.75088710  1
  Na  Na10  1  0.14609342  0.32716560  0.58711851  1
  Na  Na11  1  0.66105199  0.33498165  0.57946015  1
  Na  Na12  1  0.34215546  0.00008992  0.57750927  1
  Na  Na13  1  0.83695982  0.98603224  0.57757420  1
  Na  Na14  1  0.15906501  0.98881111  0.08668897  1
  Na  Na15  1  0.64679042  0.96391589  0.09348571  1
  Na  Na16  1  0.33655031  0.68631171  0.08894036  1
  Na  Na17  1  0.84063278  0.68659295  0.08409773  1
  Na  Na18  1  0.48453832  0.67905312  0.92846543  1
  Na  Na19  1  0.96896434  0.66541013  0.92538661  1
  Na  Na20  1  0.35534269  0.04392792  0.91558065  1
  Na  Na21  1  0.84674609  0.02825392  0.90715479  1
  Na  Na22  1  0.16722452  0.28603612  0.91477222  1
  Na  Na23  1  0.67405809  0.28558272  0.90624419  1
  Na  Na24  1  0.47164926  0.27713387  0.42660968  1
  Na  Na25  1  0.97353189  0.27039052  0.42832398  1
  Na  Na26  1  0.17093964  0.06249402  0.40588893  1
  Na  Na27  1  0.67755476  0.04001074  0.41201465  1
  Na  Na28  1  0.34928627  0.66736671  0.40738923  1
  Na  Na29  1  0.85094858  0.68083005  0.41940944  1
  Na  Na30  1  0.99120834  0.99661313  0.49702213  1
  Na  Na31  1  0.50283496  0.00232279  0.50026802  1
  Na  Na32  1  0.99788510  0.99683333  0.00317050  1
  Na  Na33  1  0.49989081  0.99866184  0.00438748  1
  Na  Na34  1  0.32513409  0.31741291  0.81899107  1
  Na  Na35  1  0.81918112  0.33068839  0.83029662  1
  Na  Na36  1  0.32076171  0.30993506  0.33403200  1
  Na  Na37  1  0.82283457  0.30969403  0.32912008  1
  Na  Na38  1  0.16782901  0.67613079  0.17032137  1
  Na  Na39  1  0.66210354  0.66418904  0.17484858  1
  Na  Na40  1  0.16022125  0.65687983  0.67127079  1
  Na  Na41  1  0.66764623  0.65853769  0.66296529  1
  Ca  Ca42  1  0.00012335  0.99871184  0.35119711  1
  Ca  Ca43  1  0.49668810  0.99289724  0.34756882  1
  Ca  Ca44  1  0.99578518  0.99954704  0.84647624  1
  Ca  Ca45  1  0.50523558  0.01010338  0.84736255  1
  Ca  Ca46  1  0.33809300  0.33306340  0.67810792  1
  Ca  Ca47  1  0.83721181  0.33930151  0.18018610  1
  Ca  Ca48  1  0.33485375  0.33172346  0.99518419  1
  Ca  Ca49  1  0.83163496  0.33609969  0.98365467  1
  Ca  Ca50  1  0.33190209  0.32806608  0.48372800  1
  Ca  Ca51  1  0.83331619  0.33133499  0.49078483  1
  Ca  Ca52  1  0.67001476  0.67722804  0.31358739  1
  Ca  Ca53  1  0.16724445  0.66312385  0.81042819  1
  Hf  Hf54  1  0.99200627  0.00224154  0.65227146  1
  Hf  Hf55  1  0.50524800  0.02129354  0.65196838  1
  Hf  Hf56  1  0.00481868  0.99083216  0.15265739  1
  Hf  Hf57  1  0.49230734  0.98316374  0.15277669  1
  Hf  Hf58  1  0.83010332  0.33261045  0.67706871  1
  Hf  Hf59  1  0.32981720  0.32749967  0.17740241  1
  Hf  Hf60  1  0.16797731  0.66722669  0.02700449  1
  Hf  Hf61  1  0.66400423  0.67002352  0.01718865  1
  Hf  Hf62  1  0.16353280  0.65837502  0.51668556  1
  Hf  Hf63  1  0.67394832  0.68073151  0.52389744  1
  Hf  Hf64  1  0.17946515  0.68064642  0.31289942  1
  Hf  Hf65  1  0.67968012  0.67999705  0.81165204  1
  Si  Si66  1  0.15432749  0.00043430  0.25192305  1
  Si  Si67  1  0.64927576  0.00343261  0.25006625  1
  Si  Si68  1  0.34823424  0.68505071  0.25159470  1
  Si  Si69  1  0.84934371  0.69774165  0.25032517  1
  Si  Si70  1  0.15009037  0.29357960  0.75186826  1
  Si  Si71  1  0.65533544  0.31029188  0.75198383  1
  Si  Si72  1  0.35005620  0.99877590  0.75272585  1
  Si  Si73  1  0.84919110  0.01403551  0.75254198  1
  Si  Si74  1  0.48874055  0.33387336  0.58225065  1
  Si  Si75  1  0.98744535  0.34005924  0.58540104  1
  Si  Si76  1  0.67832811  0.02901654  0.58291620  1
  Si  Si77  1  0.83912295  0.64099910  0.57761404  1
  Si  Si78  1  0.48654088  0.63669758  0.08320290  1
  Si  Si79  1  0.98608761  0.64406375  0.08224885  1
  Si  Si80  1  0.33978186  0.03689564  0.07664464  1
  Si  Si81  1  0.17849790  0.32650027  0.08078176  1
  Si  Si82  1  0.81345672  0.66736542  0.91987850  1
  Si  Si83  1  0.66442688  0.95623892  0.91513807  1
  Si  Si84  1  0.31366893  0.96054242  0.42048698  1
  Si  Si85  1  0.81560169  0.97048493  0.41607235  1
  Si  Si86  1  0.16666403  0.37555053  0.41536462  1
  S  S87  1  0.00306125  0.29847749  0.25070792  1
  S  S88  1  0.49454307  0.29150937  0.24787691  1
  S  S89  1  0.99522217  0.69786823  0.74885518  1
  S  S90  1  0.50142657  0.70454002  0.75263513  1
  S  S91  1  0.17627247  0.02166395  0.58401662  1
  S  S92  1  0.33215300  0.64587712  0.58310534  1
  S  S93  1  0.83218466  0.01979955  0.08143897  1
  S  S94  1  0.67614454  0.33084895  0.08258521  1
  S  S95  1  0.31260444  0.66284028  0.91855009  1
  S  S96  1  0.02397112  0.37863035  0.91946469  1
  S  S97  1  0.52326024  0.38430961  0.91490573  1
  S  S98  1  0.16789193  0.95912520  0.91747408  1
  S  S99  1  0.66540997  0.37283665  0.41728525  1
  S  S100  1  0.02503556  0.66432089  0.41429843  1
  S  S101  1  0.52195951  0.66701565  0.41913650  1
  O  O102  1  0.12346471  0.04997446  0.31040216  1
  O  O103  1  0.61358056  0.03728743  0.31037520  1
  O  O104  1  0.39990407  0.75442895  0.31104507  1
  O  O105  1  0.90187641  0.77999855  0.30930545  1
  O  O106  1  0.48328759  0.20604377  0.30421271  1
  O  O107  1  0.99534343  0.21234708  0.30608485  1
  O  O108  1  0.11671072  0.19602445  0.81416903  1
  O  O109  1  0.62482752  0.20266238  0.81161764  1
  O  O110  1  0.49198758  0.77201553  0.80865790  1
  O  O111  1  0.98610058  0.76195662  0.80576296  1
  O  O112  1  0.39601775  0.01412604  0.81491906  1
  O  O113  1  0.89902082  0.04475481  0.81284759  1
  O  O114  1  0.40630366  0.98213700  0.69849711  1
  O  O115  1  0.90008799  0.99110163  0.69781958  1
  O  O116  1  0.08992385  0.17133776  0.69780284  1
  O  O117  1  0.58959392  0.20575686  0.69834975  1
  O  O118  1  0.00126176  0.80913342  0.70031720  1
  O  O119  1  0.51235476  0.81851508  0.70352136  1
  O  O120  1  0.39756295  0.80709557  0.19548372  1
  O  O121  1  0.90455717  0.82300547  0.19356620  1
  O  O122  1  0.01381849  0.20670265  0.20083778  1
  O  O123  1  0.49954083  0.19107680  0.19892671  1
  O  O124  1  0.09053075  0.97415338  0.19639829  1
  O  O125  1  0.59039275  0.00677674  0.19422953  1
  O  O126  1  0.45498567  0.36534542  0.64301673  1
  O  O127  1  0.93786836  0.35676727  0.64211885  1
  O  O128  1  0.22956016  0.09628913  0.63588131  1
  O  O129  1  0.74554144  0.12935789  0.63655470  1
  O  O130  1  0.31792895  0.54318852  0.63570971  1
  O  O131  1  0.82176339  0.50128233  0.62848340  1
  O  O132  1  0.43393450  0.51546442  0.13777828  1
  O  O133  1  0.95355686  0.54251431  0.14206161  1
  O  O134  1  0.31953503  0.14019924  0.12612671  1
  O  O135  1  0.81750424  0.09485505  0.13296903  1
  O  O136  1  0.24668374  0.36229500  0.13345102  1
  O  O137  1  0.72967381  0.36117109  0.13380960  1
  O  O138  1  0.20828779  0.28198137  0.02051992  1
  O  O139  1  0.71202766  0.29864221  0.02974416  1
  O  O140  1  0.43574623  0.58023797  0.02243179  1
  O  O141  1  0.92770356  0.57043159  0.02492499  1
  O  O142  1  0.35299681  0.11842650  0.01276963  1
  O  O143  1  0.84038108  0.11248610  0.02735645  1
  O  O144  1  0.21311901  0.12804009  0.53192481  1
  O  O145  1  0.70652374  0.13983563  0.52439650  1
  O  O146  1  0.34035558  0.56704104  0.53004833  1
  O  O147  1  0.85280034  0.58436808  0.51446061  1
  O  O148  1  0.42541028  0.28298488  0.52707845  1
  O  O149  1  0.93502703  0.29383803  0.52596944  1
  O  O150  1  0.26515774  0.67102853  0.97042905  1
  O  O151  1  0.75874235  0.66722992  0.97777565  1
  O  O152  1  0.07938240  0.48278707  0.96833851  1
  O  O153  1  0.57271734  0.47653030  0.96763399  1
  O  O154  1  0.16811873  0.85915101  0.96885351  1
  O  O155  1  0.66083467  0.84278960  0.97299962  1
  O  O156  1  0.25963382  0.85205056  0.47882372  1
  O  O157  1  0.75891173  0.85026750  0.47257400  1
  O  O158  1  0.16375272  0.48140567  0.47370514  1
  O  O159  1  0.66342532  0.47020317  0.46879251  1
  O  O160  1  0.07482312  0.66888425  0.46704308  1
  O  O161  1  0.57544616  0.67112834  0.46833160  1
  O  O162  1  0.06893161  0.65570165  0.36105812  1
  O  O163  1  0.55405872  0.64505472  0.36296399  1
  O  O164  1  0.25682596  0.85078807  0.36397640  1
  O  O165  1  0.76425196  0.88855407  0.35653044  1
  O  O166  1  0.16715870  0.48577323  0.35795466  1
  O  O167  1  0.66620342  0.45663450  0.36225200  1
  O  O168  1  0.05770290  0.46541052  0.86376022  1
  O  O169  1  0.56713878  0.47752423  0.86163632  1
  O  O170  1  0.17103825  0.87831600  0.86292300  1
  O  O171  1  0.66480043  0.84664551  0.85816303  1
  O  O172  1  0.26652480  0.65106796  0.86486539  1
  O  O173  1  0.75654568  0.66339633  0.86348577  1
  O  O174  1  0.02229476  0.81980019  0.41634565  1
  O  O175  1  0.51912637  0.82398518  0.42095368  1
  O  O176  1  0.40348069  0.97095688  0.42213460  1
  O  O177  1  0.90424395  0.97401671  0.42233310  1
  O  O178  1  0.08526860  0.19419776  0.42151920  1
  O  O179  1  0.58863067  0.20655226  0.42088629  1
  O  O180  1  0.02068846  0.21594427  0.92193490  1
  O  O181  1  0.51592675  0.21880571  0.91712218  1
  O  O182  1  0.09045904  0.96862095  0.92108354  1
  O  O183  1  0.58099004  0.97122975  0.92145904  1
  O  O184  1  0.39547699  0.81515807  0.92007755  1
  O  O185  1  0.90356611  0.83631739  0.92174992  1
  O  O186  1  0.49731199  0.16119498  0.58963531  1
  O  O187  1  0.00234167  0.17818804  0.59675890  1
  O  O188  1  0.09305560  0.00248782  0.59265488  1
  O  O189  1  0.58661119  0.99728114  0.60098895  1
  O  O190  1  0.40513466  0.81456009  0.58968026  1
  O  O191  1  0.91430041  0.82868505  0.59439302  1
  O  O192  1  0.50049600  0.82710646  0.09471135  1
  O  O193  1  0.99828554  0.83553850  0.08867661  1
  O  O194  1  0.41481920  -0.00018969  0.09228298  1
  O  O195  1  0.90521083  0.99670837  0.08799518  1
  O  O196  1  0.08743398  0.17321435  0.09759675  1
  O  O197  1  0.59238120  0.18365547  0.09077771  1
  O  O198  1  0.34251067  0.16591778  0.74636247  1
  O  O199  1  0.83817580  0.17642174  0.74156127  1
  O  O200  1  0.24590024  0.33483572  0.74390323  1
  O  O201  1  0.74568120  0.33025052  0.73690345  1
  O  O202  1  0.42690285  0.54058149  0.74451661  1
  O  O203  1  0.92376788  0.52800940  0.74082123  1
  O  O204  1  0.33739961  0.50058331  0.23968183  1
  O  O205  1  0.84126434  0.51500039  0.24549355  1
  O  O206  1  0.42305851  0.31920306  0.23887186  1
  O  O207  1  0.92874918  0.31319444  0.24295320  1
  O  O208  1  0.24479476  0.16003087  0.23544269  1
  O  O209  1  0.74465471  0.15333843  0.24292850  1
  O  O210  1  0.32195738  0.51364949  0.92143340  1
  O  O211  1  0.81921076  0.49893307  0.91466389  1
  O  O212  1  0.44079605  0.37089833  0.91665464  1
  O  O213  1  0.93972575  0.35409395  0.92648429  1
  O  O214  1  0.24202570  0.12824545  0.91862498  1
  O  O215  1  0.75054697  0.13278642  0.91491400  1
  O  O216  1  0.31882973  0.13967840  0.41513816  1
  O  O217  1  0.82665108  0.15703930  0.41828816  1
  O  O218  1  0.25377059  0.37440615  0.41457990  1
  O  O219  1  0.74059258  0.35699889  0.41847521  1
  O  O220  1  0.43674243  0.52419036  0.42582520  1
  O  O221  1  0.94275679  0.51752155  0.41647029  1
  O  O222  1  0.17789634  0.50405007  0.07640889  1
  O  O223  1  0.66889494  0.48254034  0.07491256  1
  O  O224  1  0.08270999  0.68297313  0.07112507  1
  O  O225  1  0.58203627  0.66406250  0.07985361  1
  O  O226  1  0.25379076  0.84773782  0.07570566  1
  O  O227  1  0.75602137  0.84656360  0.07706377  1
  O  O228  1  0.16932944  0.85606713  0.57593943  1
  O  O229  1  0.67712906  0.85079370  0.57919130  1
  O  O230  1  0.25600978  0.66600081  0.57855562  1
  O  O231  1  0.75272616  0.65562848  0.57802556  1
  O  O232  1  0.08362452  0.50266374  0.58127613  1
  O  O233  1  0.58388765  0.48426796  0.57034988  1
  O  O234  1  0.15140275  0.81953543  0.25541561  1
  O  O235  1  0.64187388  0.82103349  0.24394313  1
  O  O236  1  0.25392883  0.66213002  0.25253883  1
  O  O237  1  0.75754805  0.67938051  0.24386537  1
  O  O238  1  0.07865470  0.46853501  0.25130857  1
  O  O239  1  0.57188865  0.45411933  0.24740130  1
  O  O240  1  0.14566812  0.46538461  0.74582180  1
  O  O241  1  0.65161337  0.48437660  0.75569129  1
  O  O242  1  0.07292249  0.68899345  0.74801623  1
  O  O243  1  0.57665906  0.68486282  0.75363200  1
  O  O244  1  0.25800709  0.83330322  0.74542885  1
  O  O245  1  0.75466660  0.84800890  0.75315460  1
