# generated using pymatgen
data_Na18Ta4Zn20Si3(S11O48)3
_symmetry_space_group_name_H-M   'P 1'
_cell_length_a   17.62928618
_cell_length_b   8.80000953
_cell_length_c   22.61699400
_cell_angle_alpha   89.78582098
_cell_angle_beta   90.30614577
_cell_angle_gamma   119.93652122
_symmetry_Int_Tables_number   1
_chemical_formula_structural   Na18Ta4Zn20Si3(S11O48)3
_chemical_formula_sum   'Na18 Ta4 Zn20 Si3 S33 O144'
_cell_volume   3040.56502778
_cell_formula_units_Z   1
loop_
 _symmetry_equiv_pos_site_id
 _symmetry_equiv_pos_as_xyz
  1  'x, y, z'
loop_
 _atom_site_type_symbol
 _atom_site_label
 _atom_site_symmetry_multiplicity
 _atom_site_fract_x
 _atom_site_fract_y
 _atom_site_fract_z
 _atom_site_occupancy
  Na  Na0  1  0.31752400  0.99772301  0.25368047  1
  Na  Na1  1  0.81777700  0.99869716  0.24981875  1
  Na  Na2  1  0.18147685  0.36692911  0.25784430  1
  Na  Na3  1  0.68343692  0.36893300  0.25547664  1
  Na  Na4  1  0.68197973  0.99872955  0.75065680  1
  Na  Na5  1  0.98345124  0.67517940  0.92351329  1
  Na  Na6  1  0.00640361  0.01626425  0.49581879  1
  Na  Na7  1  0.50643028  0.01688990  0.49600618  1
  Na  Na8  1  0.99716465  0.99916946  0.00092568  1
  Na  Na9  1  0.50927993  0.00893602  0.00046294  1
  Na  Na10  1  0.33582245  0.33682089  0.82571713  1
  Na  Na11  1  0.82797937  0.32764126  0.83475455  1
  Na  Na12  1  0.33699696  0.34872574  0.33316822  1
  Na  Na13  1  0.83719975  0.34867659  0.33146444  1
  Na  Na14  1  0.15593493  0.66298664  0.16543390  1
  Na  Na15  1  0.66454257  0.66681578  0.16267031  1
  Na  Na16  1  0.16641487  0.66363166  0.65710777  1
  Na  Na17  1  0.66536577  0.65257499  0.66420988  1
  Ta  Ta18  1  0.33227681  0.32820734  0.97960407  1
  Ta  Ta19  1  0.33025194  0.33406355  0.47985400  1
  Ta  Ta20  1  0.83037105  0.33488709  0.47957852  1
  Ta  Ta21  1  0.16810075  0.67503664  0.81369258  1
  Zn  Zn22  1  0.00542626  0.00957823  0.35316719  1
  Zn  Zn23  1  0.50619329  0.00957873  0.35364264  1
  Zn  Zn24  1  0.00008826  0.00304584  0.85020061  1
  Zn  Zn25  1  0.50639970  0.00152699  0.84858720  1
  Zn  Zn26  1  0.99892401  0.00580892  0.64726868  1
  Zn  Zn27  1  0.50007333  0.00184924  0.64738542  1
  Zn  Zn28  1  0.99677963  0.99023204  0.14865401  1
  Zn  Zn29  1  0.50526141  0.00335422  0.14993947  1
  Zn  Zn30  1  0.33493004  0.33639190  0.68173821  1
  Zn  Zn31  1  0.83502442  0.33435526  0.68162966  1
  Zn  Zn32  1  0.33765243  0.34419304  0.18237729  1
  Zn  Zn33  1  0.83544245  0.33863499  0.17643136  1
  Zn  Zn34  1  0.82452569  0.32275103  0.98760619  1
  Zn  Zn35  1  0.16015469  0.66913989  0.01866860  1
  Zn  Zn36  1  0.67330113  0.67554153  0.01659205  1
  Zn  Zn37  1  0.16433929  0.65319907  0.51335335  1
  Zn  Zn38  1  0.66402692  0.65269484  0.51401518  1
  Zn  Zn39  1  0.16306777  0.65419795  0.32661361  1
  Zn  Zn40  1  0.66472681  0.65659707  0.32622409  1
  Zn  Zn41  1  0.66735066  0.66301864  0.81879857  1
  Si  Si42  1  0.16295773  0.95918629  0.91859699  1
  Si  Si43  1  0.16023210  0.36851119  0.41531645  1
  Si  Si44  1  0.65994630  0.36899077  0.41547217  1
  S  S45  1  0.14692694  0.99652293  0.24856207  1
  S  S46  1  0.64711573  0.99453751  0.24938248  1
  S  S47  1  0.35605183  0.71115017  0.24849825  1
  S  S48  1  0.85471654  0.70744405  0.25022246  1
  S  S49  1  0.99890991  0.29463526  0.24758882  1
  S  S50  1  0.49860627  0.29495698  0.24830917  1
  S  S51  1  0.14790305  0.29234478  0.75035159  1
  S  S52  1  0.64727213  0.29705154  0.74917428  1
  S  S53  1  0.99793824  0.70379856  0.75060253  1
  S  S54  1  0.49847793  0.70376939  0.75008999  1
  S  S55  1  0.35558911  0.00277139  0.75097697  1
  S  S56  1  0.85376371  0.99946044  0.74980791  1
  S  S57  1  0.47991780  0.33355946  0.58561606  1
  S  S58  1  0.98019465  0.33487299  0.58523114  1
  S  S59  1  0.18697520  0.03794083  0.58495796  1
  S  S60  1  0.68616784  0.03537065  0.58439510  1
  S  S61  1  0.33400214  0.62859058  0.58508655  1
  S  S62  1  0.83430500  0.62831279  0.58529594  1
  S  S63  1  0.48097000  0.62798975  0.08309425  1
  S  S64  1  0.98177990  0.62978405  0.08249642  1
  S  S65  1  0.33356065  0.03844352  0.08534276  1
  S  S66  1  0.83393839  0.03701219  0.08395527  1
  S  S67  1  0.18729212  0.33679365  0.08365138  1
  S  S68  1  0.68252159  0.33305220  0.08472766  1
  S  S69  1  0.31372856  0.67162354  0.91878014  1
  S  S70  1  0.81236750  0.66342378  0.91676990  1
  S  S71  1  0.02115508  0.37267895  0.91713267  1
  S  S72  1  0.52210993  0.37297195  0.91836129  1
  S  S73  1  0.66633161  0.96204904  0.91604329  1
  S  S74  1  0.31368600  0.96002468  0.41748210  1
  S  S75  1  0.81364596  0.96013950  0.41773611  1
  S  S76  1  0.01986365  0.66893647  0.41849953  1
  S  S77  1  0.51990373  0.66845422  0.41839250  1
  O  O78  1  0.10760826  0.02671732  0.30110571  1
  O  O79  1  0.60657410  0.02545498  0.30116339  1
  O  O80  1  0.40687025  0.79127550  0.30244038  1
  O  O81  1  0.90639624  0.78955517  0.30385270  1
  O  O82  1  0.48253011  0.18354062  0.30131874  1
  O  O83  1  0.98340001  0.18479849  0.30102584  1
  O  O84  1  0.10776138  0.18983010  0.80374778  1
  O  O85  1  0.60886074  0.18701656  0.80297801  1
  O  O86  1  0.48498505  0.78228793  0.80395307  1
  O  O87  1  0.98919733  0.77990233  0.80573740  1
  O  O88  1  0.40516381  0.02115798  0.80525838  1
  O  O89  1  0.90606766  0.02399095  0.80369869  1
  O  O90  1  0.38980300  0.96829429  0.69727000  1
  O  O91  1  0.89413083  0.97509776  0.69636696  1
  O  O92  1  0.09511977  0.22472417  0.69645708  1
  O  O93  1  0.59366222  0.21385574  0.69581090  1
  O  O94  1  0.01748621  0.81474407  0.69807389  1
  O  O95  1  0.51364091  0.81621994  0.69700194  1
  O  O96  1  0.39742809  0.81696585  0.19466841  1
  O  O97  1  0.89481496  0.81384535  0.19643151  1
  O  O98  1  0.01510849  0.21403623  0.19489947  1
  O  O99  1  0.51235313  0.21413823  0.19499012  1
  O  O100  1  0.09655851  0.97533103  0.19394583  1
  O  O101  1  0.59623690  0.96873927  0.19449318  1
  O  O102  1  0.43776564  0.35154824  0.63901256  1
  O  O103  1  0.93833455  0.35314482  0.63872689  1
  O  O104  1  0.23947927  0.11926978  0.63819011  1
  O  O105  1  0.73618591  0.11307956  0.63956752  1
  O  O106  1  0.32153063  0.52187283  0.63812000  1
  O  O107  1  0.82234559  0.52122642  0.63822288  1
  O  O108  1  0.44050992  0.52202651  0.13611941  1
  O  O109  1  0.93852452  0.52443067  0.13538746  1
  O  O110  1  0.32237861  0.12072765  0.13864043  1
  O  O111  1  0.82194549  0.11335260  0.13960278  1
  O  O112  1  0.23838101  0.35866969  0.13796044  1
  O  O113  1  0.73314651  0.35532920  0.14043740  1
  O  O114  1  0.23853557  0.31931251  0.03054833  1
  O  O115  1  0.72446740  0.30895773  0.03212775  1
  O  O116  1  0.42223777  0.52924328  0.02943811  1
  O  O117  1  0.93219129  0.55002148  0.02660739  1
  O  O118  1  0.34123753  0.15744863  0.03132708  1
  O  O119  1  0.84605826  0.14721496  0.03124969  1
  O  O120  1  0.23558632  0.15506101  0.53117180  1
  O  O121  1  0.73708522  0.15637019  0.53239722  1
  O  O122  1  0.34223668  0.52982732  0.53144118  1
  O  O123  1  0.84266957  0.52998551  0.53148164  1
  O  O124  1  0.42371696  0.31566509  0.53184929  1
  O  O125  1  0.92434989  0.31698489  0.53164838  1
  O  O126  1  0.27200720  0.68874112  0.97071593  1
  O  O127  1  0.77287677  0.68575213  0.97046202  1
  O  O128  1  0.07414802  0.44939517  0.96989566  1
  O  O129  1  0.57384188  0.45382123  0.97130266  1
  O  O130  1  0.14700822  0.83575282  0.97348105  1
  O  O131  1  0.65396426  0.85137750  0.96813793  1
  O  O132  1  0.27024401  0.85788262  0.46978417  1
  O  O133  1  0.77015355  0.85790305  0.47006640  1
  O  O134  1  0.15083935  0.45691484  0.47347116  1
  O  O135  1  0.65113631  0.45725946  0.47376465  1
  O  O136  1  0.07280317  0.69859096  0.47146771  1
  O  O137  1  0.57277405  0.69856886  0.47139303  1
  O  O138  1  0.05317006  0.63183255  0.36423606  1
  O  O139  1  0.55325649  0.63135548  0.36423563  1
  O  O140  1  0.26173169  0.89960423  0.36174642  1
  O  O141  1  0.76189701  0.90051877  0.36210226  1
  O  O142  1  0.18828871  0.47742233  0.35296706  1
  O  O143  1  0.68737821  0.47654127  0.35297167  1
  O  O144  1  0.07119485  0.49464694  0.86327915  1
  O  O145  1  0.55371813  0.47654930  0.86394552  1
  O  O146  1  0.18233210  0.86235641  0.85954349  1
  O  O147  1  0.67723619  0.88580042  0.85991104  1
  O  O148  1  0.25674452  0.63647663  0.86354217  1
  O  O149  1  0.75941362  0.63564834  0.86289870  1
  O  O150  1  -0.00031220  0.81061967  0.41151279  1
  O  O151  1  0.49944302  0.80992693  0.41134693  1
  O  O152  1  0.40084115  0.98119577  0.41135898  1
  O  O153  1  0.90096058  0.98171879  0.41173577  1
  O  O154  1  0.08125448  0.16892629  0.41187502  1
  O  O155  1  0.58104103  0.16902668  0.41241819  1
  O  O156  1  0.00939463  0.19938192  0.90751373  1
  O  O157  1  0.50405536  0.19125186  0.91239895  1
  O  O158  1  0.07859091  0.97806803  0.90766707  1
  O  O159  1  0.58653883  0.98151134  0.91231940  1
  O  O160  1  0.40068631  0.82120963  0.90932374  1
  O  O161  1  0.90140610  0.82227262  0.91151811  1
  O  O162  1  0.48514079  0.17007551  0.58674327  1
  O  O163  1  0.98594690  0.17198346  0.58620058  1
  O  O164  1  0.10126553  0.03031071  0.58609943  1
  O  O165  1  0.60091686  0.02887923  0.58469233  1
  O  O166  1  0.41661457  0.79826255  0.58562684  1
  O  O167  1  0.91735040  0.79789603  0.58592387  1
  O  O168  1  0.48369339  0.79811144  0.08381553  1
  O  O169  1  0.99161043  0.80800666  0.08645509  1
  O  O170  1  0.41550909  0.03391557  0.08432947  1
  O  O171  1  0.91398862  0.01990404  0.08786910  1
  O  O172  1  0.10245219  0.17465592  0.08337887  1
  O  O173  1  0.59427659  0.17157455  0.08848148  1
  O  O174  1  0.33778514  0.14912765  0.74616714  1
  O  O175  1  0.84160045  0.15748768  0.74522166  1
  O  O176  1  0.23758922  0.32043416  0.74495803  1
  O  O177  1  0.73553072  0.30934501  0.74402704  1
  O  O178  1  0.42060974  0.52588379  0.74429376  1
  O  O179  1  0.92358471  0.52509959  0.74456601  1
  O  O180  1  0.34131343  0.52738659  0.24415812  1
  O  O181  1  0.84093926  0.52551488  0.24508846  1
  O  O182  1  0.41678243  0.30796974  0.24285639  1
  O  O183  1  0.91784192  0.30833063  0.24131239  1
  O  O184  1  0.23758434  0.16008700  0.24408498  1
  O  O185  1  0.73688980  0.15795024  0.24441399  1
  O  O186  1  0.32143038  0.50510678  0.92342048  1
  O  O187  1  0.82619972  0.50735447  0.92167897  1
  O  O188  1  0.42989779  0.35745381  0.92786358  1
  O  O189  1  0.93735587  0.37363979  0.91726744  1
  O  O190  1  0.25492266  0.15426040  0.92550109  1
  O  O191  1  0.74661580  0.13928258  0.92160792  1
  O  O192  1  0.32592625  0.14595278  0.42643133  1
  O  O193  1  0.82589014  0.14619450  0.42688212  1
  O  O194  1  0.25381223  0.35181392  0.42860804  1
  O  O195  1  0.75353200  0.35182673  0.42869617  1
  O  O196  1  0.42984816  0.49867152  0.42761336  1
  O  O197  1  0.92997911  0.49916482  0.42754176  1
  O  O198  1  0.18118255  0.49533664  0.07458027  1
  O  O199  1  0.67352504  0.49158035  0.07916735  1
  O  O200  1  0.06955027  0.64278008  0.08147587  1
  O  O201  1  0.56709773  0.64423139  0.07508742  1
  O  O202  1  0.25583770  0.86618401  0.07747715  1
  O  O203  1  0.75389549  0.86079458  0.07885478  1
  O  O204  1  0.17893527  0.86536658  0.57604317  1
  O  O205  1  0.67887984  0.86389854  0.57550108  1
  O  O206  1  0.25706395  0.64955443  0.57810200  1
  O  O207  1  0.75751807  0.64914537  0.57838286  1
  O  O208  1  0.06663995  0.49390163  0.58014075  1
  O  O209  1  0.56611883  0.49234013  0.58027669  1
  O  O210  1  0.16070164  0.84278506  0.25487765  1
  O  O211  1  0.66060516  0.84089723  0.25627770  1
  O  O212  1  0.26672516  0.69495866  0.25071613  1
  O  O213  1  0.76558646  0.69273818  0.25272833  1
  O  O214  1  0.07810005  0.47232568  0.25328736  1
  O  O215  1  0.57733503  0.47168538  0.25354122  1
  O  O216  1  0.15809706  0.47675456  0.75968057  1
  O  O217  1  0.65698707  0.47328062  0.75535945  1
  O  O218  1  0.08172540  0.68250505  0.75805764  1
  O  O219  1  0.58047952  0.69174063  0.75565870  1
  O  O220  1  0.26341252  0.83194414  0.75850392  1
  O  O221  1  0.76302957  0.84314653  0.75438477  1
