# generated using pymatgen
data_Na4HfSi3SnO12
_symmetry_space_group_name_H-M   'P 1'
_cell_length_a   9.15383605
_cell_length_b   9.15383573
_cell_length_c   22.87647108
_cell_angle_alpha   90.00000000
_cell_angle_beta   90.00000000
_cell_angle_gamma   120.00000114
_symmetry_Int_Tables_number   1
_chemical_formula_structural   Na4HfSi3SnO12
_chemical_formula_sum   'Na24 Hf6 Si18 Sn6 O72'
_cell_volume   1660.06809113
_cell_formula_units_Z   6
loop_
 _symmetry_equiv_pos_site_id
 _symmetry_equiv_pos_as_xyz
  1  'x, y, z'
loop_
 _atom_site_type_symbol
 _atom_site_label
 _atom_site_symmetry_multiplicity
 _atom_site_fract_x
 _atom_site_fract_y
 _atom_site_fract_z
 _atom_site_occupancy
  Na  Na0  1  0.63439292  0.00004734  0.25001608  1
  Na  Na1  1  0.36565443  0.36560708  0.25001608  1
  Na  Na2  1  0.99995266  0.63434557  0.25001608  1
  Na  Na3  1  0.63424349  0.63409388  0.74975557  1
  Na  Na4  1  0.99985039  0.36575651  0.74975557  1
  Na  Na5  1  0.36590612  0.00014961  0.74975557  1
  Na  Na6  1  0.30058251  0.33330961  0.58332045  1
  Na  Na7  1  0.03272810  0.69941749  0.58332045  1
  Na  Na8  1  0.66669039  0.96727190  0.58332045  1
  Na  Na9  1  0.30067243  0.96772680  0.08352444  1
  Na  Na10  1  0.66705537  0.69932757  0.08352444  1
  Na  Na11  1  0.03227320  0.33294463  0.08352444  1
  Na  Na12  1  0.96775716  0.66665096  0.91666614  1
  Na  Na13  1  0.69889280  0.03224284  0.91666614  1
  Na  Na14  1  0.33334904  0.30110720  0.91666614  1
  Na  Na15  1  0.96740433  0.30052931  0.41671306  1
  Na  Na16  1  0.33312397  0.03259567  0.41671306  1
  Na  Na17  1  0.69947069  0.66687603  0.41671306  1
  Na  Na18  1  0.00000000  0.00000000  0.50000446  1
  Na  Na19  1  0.00000000  0.00000000  0.00022891  1
  Na  Na20  1  0.66666700  0.33333300  0.83311002  1
  Na  Na21  1  0.66666700  0.33333300  0.33351242  1
  Na  Na22  1  0.33333300  0.66666700  0.16671137  1
  Na  Na23  1  0.33333300  0.66666700  0.66643802  1
  Hf  Hf24  1  0.00000000  0.00000000  0.85120230  1
  Hf  Hf25  1  0.66666700  0.33333300  0.18514812  1
  Hf  Hf26  1  0.66666700  0.33333300  0.98227859  1
  Hf  Hf27  1  0.33333300  0.66666700  0.01802494  1
  Hf  Hf28  1  0.33333300  0.66666700  0.31505143  1
  Hf  Hf29  1  0.33333300  0.66666700  0.81501428  1
  Si  Si30  1  0.29019242  0.99998443  0.25004360  1
  Si  Si31  1  0.70979201  0.70980758  0.25004360  1
  Si  Si32  1  0.00001557  0.29020799  0.25004360  1
  Si  Si33  1  0.29257304  0.29120163  0.74930780  1
  Si  Si34  1  0.99862860  0.70742696  0.74930780  1
  Si  Si35  1  0.70879837  0.00137140  0.74930780  1
  Si  Si36  1  0.95820288  0.33336014  0.58331559  1
  Si  Si37  1  0.37515826  0.04179712  0.58331559  1
  Si  Si38  1  0.66663986  0.62484174  0.58331559  1
  Si  Si39  1  0.95916283  0.62677956  0.08384151  1
  Si  Si40  1  0.66761773  0.04083717  0.08384151  1
  Si  Si41  1  0.37322044  0.33238227  0.08384151  1
  Si  Si42  1  0.62568556  0.66661952  0.91664078  1
  Si  Si43  1  0.04093296  0.37431444  0.91664078  1
  Si  Si44  1  0.33338048  0.95906704  0.91664078  1
  Si  Si45  1  0.62560184  0.95934352  0.41685036  1
  Si  Si46  1  0.33374067  0.37439816  0.41685036  1
  Si  Si47  1  0.04065648  0.66625933  0.41685036  1
  Sn  Sn48  1  0.00000000  0.00000000  0.35135525  1
  Sn  Sn49  1  0.00000000  0.00000000  0.64857897  1
  Sn  Sn50  1  0.00000000  0.00000000  0.14887586  1
  Sn  Sn51  1  0.66666700  0.33333300  0.68436706  1
  Sn  Sn52  1  0.66666700  0.33333300  0.48227502  1
  Sn  Sn53  1  0.33333300  0.66666700  0.51778753  1
  O  O54  1  0.21044781  0.03914752  0.30791939  1
  O  O55  1  0.82869972  0.78955219  0.30791939  1
  O  O56  1  0.96085248  0.17130028  0.30791939  1
  O  O57  1  0.20756135  0.17141740  0.80664997  1
  O  O58  1  0.96385604  0.79243865  0.80664997  1
  O  O59  1  0.82858260  0.03614396  0.80664997  1
  O  O60  1  0.78952060  0.96114572  0.69196660  1
  O  O61  1  0.17162512  0.21047940  0.69196660  1
  O  O62  1  0.03885428  0.82837488  0.69196660  1
  O  O63  1  0.78932244  0.82855925  0.19211369  1
  O  O64  1  0.03923681  0.21067756  0.19211369  1
  O  O65  1  0.17144075  0.96076319  0.19211369  1
  O  O66  1  0.87817299  0.37267792  0.64110254  1
  O  O67  1  0.49450594  0.12182701  0.64110254  1
  O  O68  1  0.62732208  0.50549406  0.64110254  1
  O  O69  1  0.87314958  0.50462742  0.14046638  1
  O  O70  1  0.63147884  0.12685042  0.14046638  1
  O  O71  1  0.49537258  0.36852116  0.14046638  1
  O  O72  1  0.45903741  0.29752984  0.02669464  1
  O  O73  1  0.83849343  0.54096259  0.02669464  1
  O  O74  1  0.70247016  0.16150657  0.02669464  1
  O  O75  1  0.45530607  0.16127192  0.52556403  1
  O  O76  1  0.70596685  0.54469393  0.52556403  1
  O  O77  1  0.83872808  0.29403315  0.52556403  1
  O  O78  1  0.53988969  0.70194701  0.97358336  1
  O  O79  1  0.16205632  0.46011031  0.97358336  1
  O  O80  1  0.29805299  0.83794368  0.97358336  1
  O  O81  1  0.54469578  0.83902345  0.47443008  1
  O  O82  1  0.29432667  0.45530422  0.47443008  1
  O  O83  1  0.16097655  0.70567333  0.47443008  1
  O  O84  1  0.12594764  0.63069410  0.35983639  1
  O  O85  1  0.50474546  0.87405236  0.35983639  1
  O  O86  1  0.36930590  0.49525454  0.35983639  1
  O  O87  1  0.12691338  0.49547545  0.85971360  1
  O  O88  1  0.36856107  0.87308662  0.85971360  1
  O  O89  1  0.50452455  0.63143893  0.85971360  1
  O  O90  1  0.02341092  0.83627351  0.41050577  1
  O  O91  1  0.81286259  0.97658908  0.41050577  1
  O  O92  1  0.16372649  0.18713741  0.41050577  1
  O  O93  1  0.02330094  0.18807569  0.90999775  1
  O  O94  1  0.16477475  0.97669906  0.90999775  1
  O  O95  1  0.81192431  0.83522525  0.90999775  1
  O  O96  1  0.97635278  0.16378621  0.58947183  1
  O  O97  1  0.18743343  0.02364722  0.58947183  1
  O  O98  1  0.83621379  0.81256657  0.58947183  1
  O  O99  1  0.97624959  0.81387477  0.08951931  1
  O  O100  1  0.83762518  0.02375041  0.08951931  1
  O  O101  1  0.18612523  0.16237482  0.08951931  1
  O  O102  1  0.69068297  0.17105404  0.74377797  1
  O  O103  1  0.48037207  0.30931703  0.74377797  1
  O  O104  1  0.82894596  0.51962793  0.74377797  1
  O  O105  1  0.69046729  0.52262073  0.24354526  1
  O  O106  1  0.83215444  0.30953271  0.24354526  1
  O  O107  1  0.47737927  0.16784556  0.24354526  1
  O  O108  1  0.64338212  0.49810092  0.92334575  1
  O  O109  1  0.85471980  0.35661788  0.92334575  1
  O  O110  1  0.50189908  0.14528020  0.92334575  1
  O  O111  1  0.64292778  0.14669789  0.42286715  1
  O  O112  1  0.50377111  0.35707222  0.42286715  1
  O  O113  1  0.85330211  0.49622889  0.42286715  1
  O  O114  1  0.35629765  0.50118290  0.07678664  1
  O  O115  1  0.14488424  0.64370235  0.07678664  1
  O  O116  1  0.49881710  0.85511576  0.07678664  1
  O  O117  1  0.35699744  0.85396077  0.57712770  1
  O  O118  1  0.49696233  0.64300256  0.57712770  1
  O  O119  1  0.14603923  0.50303767  0.57712770  1
  O  O120  1  0.30950971  0.83193940  0.25653565  1
  O  O121  1  0.52242869  0.69049029  0.25653565  1
  O  O122  1  0.16806060  0.47757131  0.25653565  1
  O  O123  1  0.31016499  0.47738650  0.75649498  1
  O  O124  1  0.16722051  0.68983501  0.75649498  1
  O  O125  1  0.52261350  0.83277949  0.75649498  1
