# generated using pymatgen
data_MgV4Ag2O11
_symmetry_space_group_name_H-M   'P 1'
_cell_length_a   3.70825896
_cell_length_b   8.54593550
_cell_length_c   8.29887252
_cell_angle_alpha   68.45834514
_cell_angle_beta   77.13820323
_cell_angle_gamma   78.31314137
_symmetry_Int_Tables_number   1
_chemical_formula_structural   MgV4Ag2O11
_chemical_formula_sum   'Mg1 V4 Ag2 O11'
_cell_volume   236.36145359
_cell_formula_units_Z   1
loop_
 _symmetry_equiv_pos_site_id
 _symmetry_equiv_pos_as_xyz
  1  'x, y, z'
loop_
 _atom_site_type_symbol
 _atom_site_label
 _atom_site_symmetry_multiplicity
 _atom_site_fract_x
 _atom_site_fract_y
 _atom_site_fract_z
 _atom_site_occupancy
  Mg  Mg0  1  -0.00020324  0.75881270  0.22834717  1
  V  V1  1  0.63371720  0.15940275  0.58244148  1
  V  V2  1  0.33586627  0.87266498  0.44703887  1
  V  V3  1  0.86326362  0.12925291  0.14720254  1
  V  V4  1  0.13410559  0.86783732  0.83955219  1
  Ag  Ag5  1  0.87922926  0.51491732  0.72016839  1
  Ag  Ag6  1  0.20235645  0.41759842  0.20301736  1
  O  O7  1  0.51994585  0.31639633  0.66457932  1
  O  O8  1  0.46980514  0.72131309  0.32371424  1
  O  O9  1  0.69948503  0.26226240  0.35269419  1
  O  O10  1  0.28352834  0.73581117  0.67148339  1
  O  O11  1  0.84270368  0.32563714  -0.00054177  1
  O  O12  1  0.15552557  0.68161127  0.01799523  1
  O  O13  1  0.98771488  0.99327046  0.02337401  1
  O  O14  1  0.34252312  0.09693025  0.21996972  1
  O  O15  1  0.84425969  0.91786677  0.38715482  1
  O  O16  1  0.16824437  0.07957561  0.58949488  1
  O  O17  1  0.63793217  0.94050812  0.78231098  1
