# generated using pymatgen
data_NaTe3
_symmetry_space_group_name_H-M   'P 1'
_cell_length_a   9.08973171
_cell_length_b   9.08973227
_cell_length_c   22.12377296
_cell_angle_alpha   90.00000000
_cell_angle_beta   90.00000000
_cell_angle_gamma   119.99999799
_symmetry_Int_Tables_number   1
_chemical_formula_structural   NaTe3
_chemical_formula_sum   'Na12 Te36'
_cell_volume   1583.04036959
_cell_formula_units_Z   12
loop_
 _symmetry_equiv_pos_site_id
 _symmetry_equiv_pos_as_xyz
  1  'x, y, z'
loop_
 _atom_site_type_symbol
 _atom_site_label
 _atom_site_symmetry_multiplicity
 _atom_site_fract_x
 _atom_site_fract_y
 _atom_site_fract_z
 _atom_site_occupancy
  Na  Na0  1  -0.00000000  0.00000000  0.12368049  1
  Na  Na1  1  -0.00000000  0.00000000  0.37631951  1
  Na  Na2  1  -0.00000000  0.00000000  0.87631951  1
  Na  Na3  1  -0.00000000  0.00000000  0.62368049  1
  Na  Na4  1  0.33333300  0.66666700  0.95915128  1
  Na  Na5  1  0.66666700  0.33333300  0.54084872  1
  Na  Na6  1  0.66666700  0.33333300  0.04084872  1
  Na  Na7  1  0.33333300  0.66666700  0.45915128  1
  Na  Na8  1  0.33333300  0.66666700  0.20778032  1
  Na  Na9  1  0.66666700  0.33333300  0.29221968  1
  Na  Na10  1  0.66666700  0.33333300  0.79221968  1
  Na  Na11  1  0.33333300  0.66666700  0.70778032  1
  Te  Te12  1  0.79382690  0.66289749  0.20672656  1
  Te  Te13  1  0.33710251  0.13092941  0.20672656  1
  Te  Te14  1  0.86907059  0.20617310  0.20672656  1
  Te  Te15  1  0.13092941  0.33710251  0.29327344  1
  Te  Te16  1  0.20617310  0.86907059  0.29327344  1
  Te  Te17  1  0.66289749  0.79382690  0.29327344  1
  Te  Te18  1  0.20617310  0.33710251  0.79327344  1
  Te  Te19  1  0.66289749  0.86907059  0.79327344  1
  Te  Te20  1  0.13092941  0.79382690  0.79327344  1
  Te  Te21  1  0.86907059  0.66289749  0.70672656  1
  Te  Te22  1  0.79382690  0.13092941  0.70672656  1
  Te  Te23  1  0.33710251  0.20617310  0.70672656  1
  Te  Te24  1  0.67100390  0.84076556  0.54053059  1
  Te  Te25  1  0.15923444  0.83023834  0.54053059  1
  Te  Te26  1  0.16976166  0.32899610  0.54053059  1
  Te  Te27  1  0.83023834  0.15923444  0.95946941  1
  Te  Te28  1  0.32899610  0.16976166  0.95946941  1
  Te  Te29  1  0.84076556  0.67100390  0.95946941  1
  Te  Te30  1  0.32899610  0.15923444  0.45946941  1
  Te  Te31  1  0.84076556  0.16976166  0.45946941  1
  Te  Te32  1  0.83023834  0.67100390  0.45946941  1
  Te  Te33  1  0.16976166  0.84076556  0.04053059  1
  Te  Te34  1  0.67100390  0.83023834  0.04053059  1
  Te  Te35  1  0.15923444  0.32899610  0.04053059  1
  Te  Te36  1  0.00874025  0.52877955  0.62147908  1
  Te  Te37  1  0.47122045  0.47995971  0.62147908  1
  Te  Te38  1  0.52004029  0.99125975  0.62147908  1
  Te  Te39  1  0.47995971  0.47122045  0.87852092  1
  Te  Te40  1  0.99125975  0.52004029  0.87852092  1
  Te  Te41  1  0.52877955  0.00874025  0.87852092  1
  Te  Te42  1  0.99125975  0.47122045  0.37852092  1
  Te  Te43  1  0.52877955  0.52004029  0.37852092  1
  Te  Te44  1  0.47995971  0.00874025  0.37852092  1
  Te  Te45  1  0.52004029  0.52877955  0.12147908  1
  Te  Te46  1  0.00874025  0.47995971  0.12147908  1
  Te  Te47  1  0.47122045  0.99125975  0.12147908  1
