# generated using pymatgen
data_Na15Nb4Zn8P15(SO24)3
_symmetry_space_group_name_H-M   'P 1'
_cell_length_a   8.97979987
_cell_length_b   8.97161990
_cell_length_c   22.22415008
_cell_angle_alpha   90.19732667
_cell_angle_beta   90.01979542
_cell_angle_gamma   120.09423973
_symmetry_Int_Tables_number   1
_chemical_formula_structural   Na15Nb4Zn8P15(SO24)3
_chemical_formula_sum   'Na15 Nb4 Zn8 P15 S3 O72'
_cell_volume   1549.08873394
_cell_formula_units_Z   1
loop_
 _symmetry_equiv_pos_site_id
 _symmetry_equiv_pos_as_xyz
  1  'x, y, z'
loop_
 _atom_site_type_symbol
 _atom_site_label
 _atom_site_symmetry_multiplicity
 _atom_site_fract_x
 _atom_site_fract_y
 _atom_site_fract_z
 _atom_site_occupancy
  Na  Na0  1  0.99256437  0.63750840  0.24561590  1
  Na  Na1  1  0.64724483  0.63661512  0.74771323  1
  Na  Na2  1  0.36438078  0.01256445  0.74745949  1
  Na  Na3  1  0.29902323  0.33311495  0.58503945  1
  Na  Na4  1  0.03928069  0.71106466  0.58320440  1
  Na  Na5  1  0.66286633  0.95767225  0.58455222  1
  Na  Na6  1  0.29651716  0.95800183  0.08490732  1
  Na  Na7  1  0.67061112  0.70953527  0.08090104  1
  Na  Na8  1  0.03415072  0.33385848  0.08528318  1
  Na  Na9  1  0.99940174  0.99579048  0.49172280  1
  Na  Na10  1  0.99644668  0.99564444  0.99105325  1
  Na  Na11  1  0.67768069  0.33411673  0.82682513  1
  Na  Na12  1  0.65577344  0.31449974  0.32610673  1
  Na  Na13  1  0.33949210  0.67216754  0.16450833  1
  Na  Na14  1  0.32929051  0.66279552  0.66363684  1
  Nb  Nb15  1  0.67563569  0.33454958  0.97523561  1
  Nb  Nb16  1  0.65932847  0.33474882  0.47497774  1
  Nb  Nb17  1  0.33092801  0.66812811  0.31565089  1
  Nb  Nb18  1  0.33115163  0.66392561  0.81580429  1
  Zn  Zn19  1  0.00896637  0.01268521  0.35145109  1
  Zn  Zn20  1  0.99891209  0.00063730  0.85026785  1
  Zn  Zn21  1  0.99978696  0.99548553  0.65866510  1
  Zn  Zn22  1  0.00365154  0.00456030  0.15711192  1
  Zn  Zn23  1  0.66596743  0.33211977  0.68518279  1
  Zn  Zn24  1  0.66794400  0.31571090  0.18605400  1
  Zn  Zn25  1  0.33357116  0.67379655  0.01011889  1
  Zn  Zn26  1  0.34092019  0.67495866  0.50991293  1
  P  P27  1  0.29544288  0.00570813  0.25018392  1
  P  P28  1  0.99814210  0.29122699  0.25015646  1
  P  P29  1  0.29059374  0.29179036  0.74950091  1
  P  P30  1  0.99819452  0.70335473  0.74987016  1
  P  P31  1  0.70888635  0.00391135  0.75036582  1
  P  P32  1  0.37412358  0.03916972  0.58424317  1
  P  P33  1  0.66566642  0.62674915  0.58486413  1
  P  P34  1  0.95927271  0.62643948  0.08588011  1
  P  P35  1  0.66452425  0.03746403  0.08321437  1
  P  P36  1  0.62954668  0.67028591  0.91996397  1
  P  P37  1  0.04606214  0.37026084  0.92031520  1
  P  P38  1  0.32783800  0.96072835  0.91912228  1
  P  P39  1  0.63334715  0.96010524  0.41919623  1
  P  P40  1  0.32568971  0.37313786  0.41983713  1
  P  P41  1  0.04015775  0.67118679  0.41963078  1
  S  S42  1  0.70279839  0.70502086  0.24995904  1
  S  S43  1  0.95673961  0.33369147  0.58293889  1
  S  S44  1  0.37901885  0.33437576  0.08373570  1
  O  O45  1  0.20218743  0.01752191  0.30497552  1
  O  O46  1  0.81350403  0.78980248  0.30216040  1
  O  O47  1  0.97297950  0.17957867  0.30395919  1
  O  O48  1  0.20578871  0.17444478  0.80269151  1
  O  O49  1  0.96836563  0.79069445  0.80331287  1
  O  O50  1  0.81672782  0.02407124  0.80505556  1
  O  O51  1  0.77021866  0.95734389  0.69129635  1
  O  O52  1  0.19065018  0.22776216  0.68946951  1
  O  O53  1  0.04779630  0.81264693  0.69114477  1
  O  O54  1  0.76966713  0.80454096  0.19301502  1
  O  O55  1  0.03355442  0.22793060  0.18983966  1
  O  O56  1  0.18469382  0.95442044  0.19138056  1
  O  O57  1  0.87805354  0.36051209  0.63680813  1
  O  O58  1  0.48415109  0.11908899  0.64072358  1
  O  O59  1  0.63970083  0.51814840  0.64106937  1
  O  O60  1  0.87476391  0.51842553  0.14207186  1
  O  O61  1  0.62818799  0.11827096  0.13722748  1
  O  O62  1  0.48543764  0.36190091  0.13722487  1
  O  O63  1  0.46591251  0.31179388  0.02864764  1
  O  O64  1  0.83693733  0.52388281  0.02948355  1
  O  O65  1  0.68633322  0.16001353  0.02686776  1
  O  O66  1  0.47920590  0.16195309  0.52868966  1
  O  O67  1  0.68648770  0.52396534  0.52887847  1
  O  O68  1  0.84707710  0.31244946  0.52823541  1
  O  O69  1  0.54656400  0.68657345  0.97729609  1
  O  O70  1  0.14178093  0.45128040  0.97833533  1
  O  O71  1  0.30875595  0.86243692  0.97679283  1
  O  O72  1  0.55669369  0.86444018  0.47776427  1
  O  O73  1  0.31049434  0.45326825  0.47820413  1
  O  O74  1  0.14146657  0.68986129  0.47679112  1
  O  O75  1  0.13158847  0.63997169  0.36313176  1
  O  O76  1  0.50470958  0.86360918  0.36498644  1
  O  O77  1  0.35723302  0.49657978  0.36517401  1
  O  O78  1  0.13929439  0.49519104  0.86551574  1
  O  O79  1  0.35974313  0.86867208  0.86321510  1
  O  O80  1  0.50778478  0.64006701  0.86356794  1
  O  O81  1  0.01054458  0.82006803  0.40941509  1
  O  O82  1  0.81012192  0.98534121  0.40893554  1
  O  O83  1  0.17800304  0.19262536  0.41189899  1
  O  O84  1  0.01492036  0.19083922  0.91083924  1
  O  O85  1  0.17697235  0.98805379  0.90977814  1
  O  O86  1  0.80822393  0.82133765  0.91100840  1
  O  O87  1  0.96917062  0.17467218  0.58490877  1
  O  O88  1  0.19924961  0.03281304  0.58340985  1
  O  O89  1  0.83217766  0.80450689  0.58442322  1
  O  O90  1  0.97083827  0.80451007  0.08523743  1
  O  O91  1  0.83339755  0.03114856  0.08454762  1
  O  O92  1  0.20648078  0.17462830  0.08551571  1
  O  O93  1  0.66862096  0.15070219  0.74533162  1
  O  O94  1  0.47770254  0.32528318  0.74597097  1
  O  O95  1  0.84128823  0.52235101  0.74341086  1
  O  O96  1  0.68096627  0.53083145  0.24453882  1
  O  O97  1  0.85306053  0.33641774  0.24704254  1
  O  O98  1  0.47649299  0.15980179  0.24497087  1
  O  O99  1  0.63775571  0.49624353  0.92374649  1
  O  O100  1  0.86330863  0.36381711  0.92224562  1
  O  O101  1  0.50231852  0.14269928  0.92319890  1
  O  O102  1  0.64043527  0.14189983  0.42304366  1
  O  O103  1  0.50098990  0.36389954  0.42256636  1
  O  O104  1  0.85910477  0.49624549  0.42363621  1
  O  O105  1  0.35672895  0.48716808  0.07787869  1
  O  O106  1  0.13819131  0.64278416  0.07906498  1
  O  O107  1  0.50605865  0.85504980  0.07650068  1
  O  O108  1  0.35205552  0.85754399  0.57752850  1
  O  O109  1  0.50299869  0.64276854  0.57816812  1
  O  O110  1  0.13147260  0.48781044  0.57758061  1
  O  O111  1  0.31189346  0.83215307  0.25986946  1
  O  O112  1  0.52536739  0.68652241  0.25784231  1
  O  O113  1  0.16936711  0.48235801  0.25984218  1
  O  O114  1  0.31523188  0.48115059  0.75937872  1
  O  O115  1  0.16774590  0.68864265  0.76054254  1
  O  O116  1  0.51872152  0.83073183  0.75923616  1
