# generated using pymatgen
data_MgFe4(OF)4
_symmetry_space_group_name_H-M   'P 1'
_cell_length_a   6.73718515
_cell_length_b   10.20095181
_cell_length_c   3.05121763
_cell_angle_alpha   91.08139456
_cell_angle_beta   88.97516905
_cell_angle_gamma   130.78961394
_symmetry_Int_Tables_number   1
_chemical_formula_structural   MgFe4(OF)4
_chemical_formula_sum   'Mg1 Fe4 O4 F4'
_cell_volume   158.73192713
_cell_formula_units_Z   1
loop_
 _symmetry_equiv_pos_site_id
 _symmetry_equiv_pos_as_xyz
  1  'x, y, z'
loop_
 _atom_site_type_symbol
 _atom_site_label
 _atom_site_symmetry_multiplicity
 _atom_site_fract_x
 _atom_site_fract_y
 _atom_site_fract_z
 _atom_site_occupancy
  Mg  Mg0  1  0.99845500  0.25590100  0.97684200  1
  Fe  Fe1  1  0.95915300  0.96886800  0.00010000  1
  Fe  Fe2  1  0.07769800  0.56291400  0.98944700  1
  Fe  Fe3  1  0.48819400  0.48900100  0.48198800  1
  Fe  Fe4  1  0.48012600  0.96512600  0.48698900  1
  O  O5  1  0.13388200  0.44087800  0.48568700  1
  O  O6  1  0.35988400  0.33719500  0.97832200  1
  O  O7  1  0.35145200  0.81763200  0.98401100  1
  O  O8  1  0.85132200  0.05894700  0.47486300  1
  F  F9  1  0.16421000  0.96146600  0.51439000  1
  F  F10  1  0.65846000  0.68774400  0.99668900  1
  F  F11  1  0.62603900  0.15587100  0.99313800  1
  F  F12  1  0.84112900  0.54845700  0.49170100  1
