# generated using pymatgen
data_NaSn2Ge2P5SO24
_symmetry_space_group_name_H-M   'P 1'
_cell_length_a   8.52589613
_cell_length_b   8.54340074
_cell_length_c   22.20825702
_cell_angle_alpha   90.19241770
_cell_angle_beta   89.63596184
_cell_angle_gamma   120.06844880
_symmetry_Int_Tables_number   1
_chemical_formula_structural   NaSn2Ge2P5SO24
_chemical_formula_sum   'Na3 Sn6 Ge6 P15 S3 O72'
_cell_volume   1399.93278862
_cell_formula_units_Z   3
loop_
 _symmetry_equiv_pos_site_id
 _symmetry_equiv_pos_as_xyz
  1  'x, y, z'
loop_
 _atom_site_type_symbol
 _atom_site_label
 _atom_site_symmetry_multiplicity
 _atom_site_fract_x
 _atom_site_fract_y
 _atom_site_fract_z
 _atom_site_occupancy
  Na  Na0  1  0.67175832  0.33926739  0.83746891  1
  Na  Na1  1  0.66664781  0.33385440  0.32743890  1
  Na  Na2  1  0.33405787  0.66789143  0.16785719  1
  Sn  Sn3  1  0.99331518  0.99901981  0.85995112  1
  Sn  Sn4  1  0.00463744  0.99895134  0.64808651  1
  Sn  Sn5  1  0.66243255  0.32809501  0.68801874  1
  Sn  Sn6  1  0.66010599  0.32856344  0.47252320  1
  Sn  Sn7  1  0.33408412  0.67311909  0.51296951  1
  Sn  Sn8  1  0.33112364  0.66050510  0.81570783  1
  Ge  Ge9  1  0.00128206  0.00065354  0.34931696  1
  Ge  Ge10  1  0.99952201  0.00047005  0.14536116  1
  Ge  Ge11  1  0.66765856  0.33251390  0.18582530  1
  Ge  Ge12  1  0.67557537  0.34341990  0.98847347  1
  Ge  Ge13  1  0.33545718  0.65823668  0.02579313  1
  Ge  Ge14  1  0.33235375  0.66629463  0.30986262  1
  P  P15  1  0.28631868  0.00050966  0.24826748  1
  P  P16  1  0.71463220  0.71362213  0.24833918  1
  P  P17  1  0.99944323  0.28542101  0.24834175  1
  P  P18  1  0.28825663  0.28903805  0.75231076  1
  P  P19  1  0.00059947  0.70828611  0.75201257  1
  P  P20  1  0.70834096  0.99800058  0.75097628  1
  P  P21  1  0.37350491  0.03821475  0.58164793  1
  P  P22  1  0.95746714  0.62522456  0.08588980  1
  P  P23  1  0.66777457  0.04677974  0.08438414  1
  P  P24  1  0.37985306  0.32877559  0.08567718  1
  P  P25  1  0.61643466  0.65488287  0.92304472  1
  P  P26  1  0.03929819  0.38286563  0.92329362  1
  P  P27  1  0.62953393  0.95046632  0.40953900  1
  P  P28  1  0.32129176  0.37385487  0.41056535  1
  P  P29  1  0.04681874  0.67696158  0.41043119  1
  S  S30  1  0.96151162  0.33441378  0.58163955  1
  S  S31  1  0.66508745  0.62646410  0.58179256  1
  S  S32  1  0.34181025  0.96130492  0.92195355  1
  O  O33  1  0.20746009  0.03973875  0.30550681  1
  O  O34  1  0.83293330  0.79366672  0.30489571  1
  O  O35  1  0.96093748  0.16761570  0.30510829  1
  O  O36  1  0.20713072  0.17027346  0.80813144  1
  O  O37  1  0.96157635  0.78851704  0.80809662  1
  O  O38  1  0.82619723  0.03653561  0.80682689  1
  O  O39  1  0.78550858  0.96872824  0.69183335  1
  O  O40  1  0.18389651  0.21418785  0.69330552  1
  O  O41  1  0.02947940  0.81221609  0.69279016  1
  O  O42  1  0.79559760  0.83410263  0.19211296  1
  O  O43  1  0.03875866  0.20450940  0.19191819  1
  O  O44  1  0.16595735  0.96196773  0.19253096  1
  O  O45  1  0.88470241  0.36947968  0.63691382  1
  O  O46  1  0.48859775  0.11949740  0.63862840  1
  O  O47  1  0.63850684  0.51985928  0.63740273  1
  O  O48  1  0.87496132  0.49640258  0.14052596  1
  O  O49  1  0.62210140  0.12682098  0.14019747  1
  O  O50  1  0.50592585  0.37444866  0.14068968  1
  O  O51  1  0.46247920  0.29402911  0.02820301  1
  O  O52  1  0.84014163  0.54786440  0.02855546  1
  O  O53  1  0.70422674  0.16630148  0.02754553  1
  O  O54  1  0.45975295  0.15834325  0.52590186  1
  O  O55  1  0.70049692  0.54536345  0.52811241  1
  O  O56  1  0.85049172  0.30887667  0.52769396  1
  O  O57  1  0.52641419  0.69338378  0.97694532  1
  O  O58  1  0.16376973  0.47663870  0.97724293  1
  O  O59  1  0.31031870  0.84340010  0.97406307  1
  O  O60  1  0.56225136  0.84833322  0.47022534  1
  O  O61  1  0.28953503  0.44510553  0.47126221  1
  O  O62  1  0.14899132  0.71056591  0.47079153  1
  O  O63  1  0.13498059  0.63357310  0.35733885  1
  O  O64  1  0.49679548  0.86133596  0.35736424  1
  O  O65  1  0.36279346  0.50380681  0.35757485  1
  O  O66  1  0.10643675  0.49520866  0.86454386  1
  O  O67  1  0.37729175  0.89133257  0.86465600  1
  O  O68  1  0.50722791  0.61628416  0.86406171  1
  O  O69  1  0.02952749  0.84352070  0.40118798  1
  O  O70  1  0.81415866  0.96817374  0.40062791  1
  O  O71  1  0.15508005  0.18839106  0.40190437  1
  O  O72  1  0.02716846  0.19866099  0.91687556  1
  O  O73  1  0.17770239  0.97657387  0.91632814  1
  O  O74  1  0.80494971  0.82313622  0.91747512  1
  O  O75  1  0.97139655  0.16884389  0.58731617  1
  O  O76  1  0.18739078  0.02219469  0.58686809  1
  O  O77  1  0.82423337  0.80781980  0.58681150  1
  O  O78  1  0.97497435  0.81070678  0.09516924  1
  O  O79  1  0.83580866  0.02799587  0.09366160  1
  O  O80  1  0.19276937  0.16081114  0.09413539  1
  O  O81  1  0.69423298  0.17044829  0.74696712  1
  O  O82  1  0.47818281  0.30983857  0.74795415  1
  O  O83  1  0.82985157  0.51969105  0.74611089  1
  O  O84  1  0.69491992  0.52277720  0.24080771  1
  O  O85  1  0.82778497  0.30463079  0.24098529  1
  O  O86  1  0.47754226  0.17216711  0.24108434  1
  O  O87  1  0.63190516  0.48304347  0.93120302  1
  O  O88  1  0.84765935  0.35968372  0.93113145  1
  O  O89  1  0.50441477  0.14253917  0.92815771  1
  O  O90  1  0.64738475  0.14035814  0.41453976  1
  O  O91  1  0.49609950  0.35994270  0.41481366  1
  O  O92  1  0.85725591  0.50337027  0.41654731  1
  O  O93  1  0.36074275  0.50120898  0.07857109  1
  O  O94  1  0.14876938  0.64473509  0.07686900  1
  O  O95  1  0.49446192  0.85623207  0.07569259  1
  O  O96  1  0.35844374  0.85300564  0.57557956  1
  O  O97  1  0.49884698  0.63583662  0.57579171  1
  O  O98  1  0.14330313  0.49377067  0.57606428  1
  O  O99  1  0.30649933  0.82951814  0.25615437  1
  O  O100  1  0.52269977  0.69311346  0.25613238  1
  O  O101  1  0.17072071  0.47694699  0.25588857  1
  O  O102  1  0.30423335  0.47326373  0.75707588  1
  O  O103  1  0.16999956  0.69455330  0.75834433  1
  O  O104  1  0.52293898  0.83157247  0.75824749  1
