# generated using pymatgen
data_Na8Ca2Ga2Si3(SO8)3
_symmetry_space_group_name_H-M   'P 1'
_cell_length_a   9.49179360
_cell_length_b   9.29431970
_cell_length_c   22.60167543
_cell_angle_alpha   94.00937779
_cell_angle_beta   89.90316288
_cell_angle_gamma   120.62101306
_symmetry_Int_Tables_number   1
_chemical_formula_structural   Na8Ca2Ga2Si3(SO8)3
_chemical_formula_sum   'Na24 Ca6 Ga6 Si9 S9 O72'
_cell_volume   1710.33719352
_cell_formula_units_Z   3
loop_
 _symmetry_equiv_pos_site_id
 _symmetry_equiv_pos_as_xyz
  1  'x, y, z'
loop_
 _atom_site_type_symbol
 _atom_site_label
 _atom_site_symmetry_multiplicity
 _atom_site_fract_x
 _atom_site_fract_y
 _atom_site_fract_z
 _atom_site_occupancy
  Na  Na0  1  0.64388073  0.01927508  0.26127002  1
  Na  Na1  1  0.35398862  0.34785222  0.25794784  1
  Na  Na2  1  0.00345391  0.62973329  0.24108541  1
  Na  Na3  1  0.62667784  0.63447825  0.73451740  1
  Na  Na4  1  0.99225366  0.34957991  0.73875922  1
  Na  Na5  1  0.37427374  0.02562671  0.74896874  1
  Na  Na6  1  0.30626738  0.34733554  0.59284411  1
  Na  Na7  1  0.02044172  0.68411879  0.59006211  1
  Na  Na8  1  0.66895356  0.96118717  0.57675259  1
  Na  Na9  1  0.28322769  0.95465260  0.08213084  1
  Na  Na10  1  0.67802008  0.70019918  0.08046914  1
  Na  Na11  1  0.02776532  0.34229301  0.09397316  1
  Na  Na12  1  0.98863284  0.68282904  0.91591194  1
  Na  Na13  1  0.68249328  0.02588329  0.90101708  1
  Na  Na14  1  0.33688779  0.28999911  0.90500126  1
  Na  Na15  1  0.95105629  0.28631547  0.41732725  1
  Na  Na16  1  0.34190467  0.03859492  0.40747300  1
  Na  Na17  1  0.68804038  0.67444852  0.43150621  1
  Na  Na18  1  0.97935645  0.99339146  0.50519407  1
  Na  Na19  1  0.01501844  0.99475124  0.99965215  1
  Na  Na20  1  0.64936835  0.32486426  0.82581767  1
  Na  Na21  1  0.66317475  0.31419879  0.33668276  1
  Na  Na22  1  0.31068057  0.65900370  0.16992492  1
  Na  Na23  1  0.34065518  0.65285252  0.66285856  1
  Ca  Ca24  1  0.99856650  0.00493206  0.34942049  1
  Ca  Ca25  1  0.00266289  0.00639416  0.84538847  1
  Ca  Ca26  1  0.66809085  0.33535168  0.68312700  1
  Ca  Ca27  1  0.67020610  0.32924602  0.18467739  1
  Ca  Ca28  1  0.32740821  0.67113097  0.01354828  1
  Ca  Ca29  1  0.33763441  0.66490505  0.51733057  1
  Ga  Ga30  1  0.96758408  0.02693837  0.64900532  1
  Ga  Ga31  1  0.01574414  0.98500454  0.16326245  1
  Ga  Ga32  1  0.66924085  0.33492253  0.98358359  1
  Ga  Ga33  1  0.67987949  0.31645442  0.49675504  1
  Ga  Ga34  1  0.32064554  0.69249794  0.31163280  1
  Ga  Ga35  1  0.35641284  0.69879183  0.80488481  1
  Si  Si36  1  0.30223572  0.99521038  0.25303103  1
  Si  Si37  1  0.01336945  0.30171871  0.25256108  1
  Si  Si38  1  0.29121238  0.30599958  0.75403643  1
  Si  Si39  1  0.69204047  0.99642355  0.75241364  1
  Si  Si40  1  0.97035382  0.33171248  0.58589338  1
  Si  Si41  1  0.68107352  0.63516076  0.58534715  1
  Si  Si42  1  0.95737068  0.63624772  0.08646080  1
  Si  Si43  1  0.34342320  0.97285655  0.92143652  1
  Si  Si44  1  0.62383509  0.96982276  0.41996171  1
  S  S45  1  0.69265299  0.70776223  0.24647904  1
  S  S46  1  0.01472849  0.70063690  0.75315847  1
  S  S47  1  0.35914178  0.04136523  0.57996685  1
  S  S48  1  0.67960920  0.03769270  0.07867758  1
  S  S49  1  0.36945771  0.33063858  0.08027292  1
  S  S50  1  0.63312751  0.65752839  0.91773435  1
  S  S51  1  0.01567483  0.36145567  0.91977716  1
  S  S52  1  0.34511881  0.36924693  0.41286595  1
  S  S53  1  0.03194239  0.66064552  0.41304554  1
  O  O54  1  0.21863573  0.01571654  0.31195759  1
  O  O55  1  0.78792981  0.78090724  0.30252340  1
  O  O56  1  0.97271418  0.19566103  0.30958695  1
  O  O57  1  0.22540951  0.20261566  0.81211400  1
  O  O58  1  0.00570054  0.77877392  0.81098501  1
  O  O59  1  0.78565881  0.00647484  0.81304475  1
  O  O60  1  0.78313589  0.96760949  0.69338555  1
  O  O61  1  0.16054124  0.20279679  0.69412518  1
  O  O62  1  0.02834851  0.79846649  0.70284049  1
  O  O63  1  0.78634076  0.80846369  0.19512555  1
  O  O64  1  0.03952739  0.19468313  0.19146224  1
  O  O65  1  0.18601018  0.96358997  0.19163349  1
  O  O66  1  0.89079599  0.35764970  0.64511328  1
  O  O67  1  0.45215725  0.11400029  0.63674303  1
  O  O68  1  0.64505058  0.52876897  0.64208027  1
  O  O69  1  0.87914977  0.53286802  0.14311687  1
  O  O70  1  0.65470353  0.11005846  0.13481551  1
  O  O71  1  0.46065403  0.34657136  0.13530822  1
  O  O72  1  0.45775200  0.31664077  0.02668952  1
  O  O73  1  0.82665448  0.53690015  0.02540328  1
  O  O74  1  0.68381349  0.13602201  0.02797023  1
  O  O75  1  0.45598811  0.14202931  0.52920064  1
  O  O76  1  0.70450502  0.52717171  0.52393208  1
  O  O77  1  0.85316769  0.29877721  0.52483751  1
  O  O78  1  0.55927398  0.67332268  0.97377659  1
  O  O79  1  0.10971781  0.43942712  0.97644842  1
  O  O80  1  0.32036612  0.87735945  0.98059779  1
  O  O81  1  0.54721464  0.86697841  0.47680804  1
  O  O82  1  0.33544547  0.45456170  0.46854439  1
  O  O83  1  0.12802567  0.67734142  0.46666467  1
  O  O84  1  0.11807291  0.64812100  0.35795028  1
  O  O85  1  0.49717100  0.87259168  0.35773607  1
  O  O86  1  0.34760835  0.45982410  0.36075988  1
  O  O87  1  0.09877309  0.45860116  0.86931920  1
  O  O88  1  0.37476033  0.86938091  0.86217087  1
  O  O89  1  0.53098577  0.64290198  0.86567735  1
  O  O90  1  0.01131768  0.80943545  0.41320305  1
  O  O91  1  0.80592071  0.99243358  0.41361252  1
  O  O92  1  0.19980642  0.19652533  0.41305006  1
  O  O93  1  0.98530508  0.18791322  0.91607848  1
  O  O94  1  0.18559330  0.99760504  0.91527917  1
  O  O95  1  0.80335676  0.80406178  0.91710531  1
  O  O96  1  0.97527283  0.15383436  0.58495183  1
  O  O97  1  0.20320003  0.04068897  0.57878769  1
  O  O98  1  0.86316096  0.82000639  0.59099038  1
  O  O99  1  0.96895234  0.82832728  0.09176080  1
  O  O100  1  0.83647166  0.03783349  0.07974695  1
  O  O101  1  0.20326550  0.17702060  0.07776240  1
  O  O102  1  0.66560772  0.15580085  0.75042333  1
  O  O103  1  0.47700292  0.34146336  0.74620876  1
  O  O104  1  0.86961687  0.52969504  0.74968248  1
  O  O105  1  0.65750837  0.53340658  0.23966367  1
  O  O106  1  0.86443557  0.33794099  0.24324385  1
  O  O107  1  0.48649741  0.15681659  0.24939828  1
  O  O108  1  0.64179875  0.49805335  0.91579359  1
  O  O109  1  0.85100412  0.35429450  0.92232269  1
  O  O110  1  0.52247177  0.16442498  0.92572675  1
  O  O111  1  0.63536558  0.16125191  0.42531061  1
  O  O112  1  0.49842063  0.36061018  0.41298387  1
  O  O113  1  0.86841821  0.50467874  0.41032236  1
  O  O114  1  0.35296119  0.48252354  0.07905194  1
  O  O115  1  0.14039513  0.66008695  0.08028055  1
  O  O116  1  0.54160656  0.86035989  0.07362497  1
  O  O117  1  0.32524770  0.86680557  0.57373981  1
  O  O118  1  0.52923077  0.66859527  0.57764073  1
  O  O119  1  0.15493386  0.49176688  0.58146981  1
  O  O120  1  0.30745625  0.81705286  0.25051783  1
  O  O121  1  0.53576426  0.70760772  0.24623697  1
  O  O122  1  0.19608950  0.48759302  0.25808910  1
  O  O123  1  0.29220032  0.48996405  0.76150261  1
  O  O124  1  0.16939626  0.68899812  0.75352257  1
  O  O125  1  0.50627021  0.81873695  0.74758285  1
