# generated using pymatgen
data_Na15Ca7Ta5Si9(SO8)9
_symmetry_space_group_name_H-M   'P 1'
_cell_length_a   9.24229571
_cell_length_b   9.23164383
_cell_length_c   23.22100205
_cell_angle_alpha   89.20794438
_cell_angle_beta   90.22207599
_cell_angle_gamma   119.85908873
_symmetry_Int_Tables_number   1
_chemical_formula_structural   Na15Ca7Ta5Si9(SO8)9
_chemical_formula_sum   'Na15 Ca7 Ta5 Si9 S9 O72'
_cell_volume   1718.07173052
_cell_formula_units_Z   1
loop_
 _symmetry_equiv_pos_site_id
 _symmetry_equiv_pos_as_xyz
  1  'x, y, z'
loop_
 _atom_site_type_symbol
 _atom_site_label
 _atom_site_symmetry_multiplicity
 _atom_site_fract_x
 _atom_site_fract_y
 _atom_site_fract_z
 _atom_site_occupancy
  Na  Na0  1  0.63250133  0.00162174  0.23819356  1
  Na  Na1  1  0.98687080  0.64790621  0.25119067  1
  Na  Na2  1  0.65827507  0.64014584  0.75651664  1
  Na  Na3  1  0.33803954  0.99002883  0.74581702  1
  Na  Na4  1  0.98110600  0.69309945  0.91322700  1
  Na  Na5  1  0.70229082  0.00114624  0.92137465  1
  Na  Na6  1  0.31064171  0.30258104  0.92085465  1
  Na  Na7  1  0.30190824  0.01233888  0.41101904  1
  Na  Na8  1  0.70385888  0.68034361  0.40695729  1
  Na  Na9  1  0.02054462  0.01685642  0.49547833  1
  Na  Na10  1  0.99821714  0.00148836  0.99227206  1
  Na  Na11  1  0.69658658  0.35800091  0.82923601  1
  Na  Na12  1  0.63945544  0.33056616  0.32059577  1
  Na  Na13  1  0.35824365  0.68289788  0.15538660  1
  Na  Na14  1  0.30428982  0.65704407  0.66603590  1
  Ca  Ca15  1  0.00613486  0.00528977  0.35091949  1
  Ca  Ca16  1  0.99862306  0.99674327  0.84655572  1
  Ca  Ca17  1  0.00982171  0.99324201  0.64759182  1
  Ca  Ca18  1  0.67901125  0.33714893  0.68404900  1
  Ca  Ca19  1  0.65199398  0.32699276  0.18377218  1
  Ca  Ca20  1  0.33961549  0.67193771  0.02058509  1
  Ca  Ca21  1  0.32708203  0.66363226  0.51912061  1
  Ta  Ta22  1  0.98920331  0.97839502  0.14706871  1
  Ta  Ta23  1  0.66194402  0.31733501  0.97879517  1
  Ta  Ta24  1  0.67101947  0.34191886  0.47834860  1
  Ta  Ta25  1  0.32110494  0.65055937  0.31234931  1
  Ta  Ta26  1  0.32265469  0.66649825  0.82470102  1
  Si  Si27  1  0.29441018  0.99370551  0.25349616  1
  Si  Si28  1  0.69742011  0.70373028  0.25504379  1
  Si  Si29  1  0.00858620  0.69396824  0.75399339  1
  Si  Si30  1  0.67684140  0.03897754  0.08961143  1
  Si  Si31  1  0.62462565  0.65919493  0.91758259  1
  Si  Si32  1  0.03313085  0.37059389  0.92261656  1
  Si  Si33  1  0.33387375  0.96487797  0.91915352  1
  Si  Si34  1  0.33400350  0.37416156  0.42028418  1
  Si  Si35  1  0.03921784  0.66225312  0.41751330  1
  S  S36  1  0.01111853  0.29923832  0.24850121  1
  S  S37  1  0.30237584  0.31442396  0.75103677  1
  S  S38  1  0.68461564  0.98700846  0.75171372  1
  S  S39  1  0.95288779  0.32704401  0.58046915  1
  S  S40  1  0.38104590  0.04784465  0.58090670  1
  S  S41  1  0.67032118  0.62469419  0.58029256  1
  S  S42  1  0.95404474  0.62952774  0.08508744  1
  S  S43  1  0.36195033  0.31699866  0.08219620  1
  S  S44  1  0.61776339  0.96398679  0.41675093  1
  O  O45  1  0.21854680  0.01136569  0.31225456  1
  O  O46  1  0.79371837  0.78852796  0.31238191  1
  O  O47  1  0.98010615  0.20284143  0.30155312  1
  O  O48  1  0.22827100  0.21769758  0.80420447  1
  O  O49  1  0.98324764  0.77004113  0.81266763  1
  O  O50  1  0.78026189  0.01436444  0.80480495  1
  O  O51  1  0.77100816  0.97023766  0.70136689  1
  O  O52  1  0.19884903  0.23648224  0.70022434  1
  O  O53  1  0.06249277  0.82309779  0.69897366  1
  O  O54  1  0.80932097  0.83872727  0.19647245  1
  O  O55  1  0.03636413  0.21708717  0.19803832  1
  O  O56  1  0.16057916  0.97130179  0.19712584  1
  O  O57  1  0.87470678  0.33498650  0.63368164  1
  O  O58  1  0.46499357  0.12628966  0.63497014  1
  O  O59  1  0.65693074  0.53227223  0.63349003  1
  O  O60  1  0.87763133  0.54127521  0.13798726  1
  O  O61  1  0.67492542  0.12827709  0.14688049  1
  O  O62  1  0.46172145  0.34001767  0.13301059  1
  O  O63  1  0.45347354  0.30260976  0.02889461  1
  O  O64  1  0.84895311  0.55023269  0.03289742  1
  O  O65  1  0.69000784  0.16861467  0.03029249  1
  O  O66  1  0.48898663  0.15745717  0.52982373  1
  O  O67  1  0.67528463  0.51815999  0.52866437  1
  O  O68  1  0.84347341  0.32692511  0.53001194  1
  O  O69  1  0.54081839  0.70054725  0.96838457  1
  O  O70  1  0.15114360  0.44505006  0.97544252  1
  O  O71  1  0.28662210  0.84088101  0.97122542  1
  O  O72  1  0.54729626  0.86410067  0.46807269  1
  O  O73  1  0.33859817  0.47354576  0.47449381  1
  O  O74  1  0.16618189  0.71255155  0.46854150  1
  O  O75  1  0.13569502  0.63234503  0.35838634  1
  O  O76  1  0.50950446  0.88436892  0.36411006  1
  O  O77  1  0.36335519  0.50162632  0.36064097  1
  O  O78  1  0.13361653  0.50718622  0.86537908  1
  O  O79  1  0.37033158  0.87055216  0.86083010  1
  O  O80  1  0.50040006  0.62781862  0.85730598  1
  O  O81  1  0.98395877  0.80118101  0.41064390  1
  O  O82  1  0.78774912  0.99402692  0.40838647  1
  O  O83  1  0.19014991  0.18438186  0.41544249  1
  O  O84  1  0.98654332  0.18364069  0.90766806  1
  O  O85  1  0.19883998  0.02193881  0.90758512  1
  O  O86  1  0.81283047  0.81104197  0.90915994  1
  O  O87  1  0.95892806  0.17099899  0.57648382  1
  O  O88  1  0.21935633  0.04260902  0.57545523  1
  O  O89  1  0.82759533  0.78472410  0.57616142  1
  O  O90  1  0.96524169  0.80528706  0.08904723  1
  O  O91  1  0.86171264  0.03309303  0.09396110  1
  O  O92  1  0.19765626  0.15426869  0.08688894  1
  O  O93  1  0.64099149  0.12147417  0.74541424  1
  O  O94  1  0.47094610  0.32881192  0.74510948  1
  O  O95  1  0.83838924  0.51440900  0.74800784  1
  O  O96  1  0.69488557  0.53158209  0.24516875  1
  O  O97  1  0.87704459  0.33974382  0.24074021  1
  O  O98  1  0.48708138  0.13492451  0.24762881  1
  O  O99  1  0.62724511  0.47829237  0.92801650  1
  O  O100  1  0.85165067  0.37565400  0.92894485  1
  O  O101  1  0.52120410  0.14521478  0.92618531  1
  O  O102  1  0.62321020  0.13284561  0.42265798  1
  O  O103  1  0.51878496  0.36301504  0.42686250  1
  O  O104  1  0.85197267  0.48177257  0.42907963  1
  O  O105  1  0.33161512  0.45623135  0.07600326  1
  O  O106  1  0.12404273  0.65993103  0.07967250  1
  O  O107  1  0.52500275  0.85414935  0.08373001  1
  O  O108  1  0.36750150  0.88356606  0.57769271  1
  O  O109  1  0.52397957  0.64396860  0.57534701  1
  O  O110  1  0.11829234  0.47690724  0.57681973  1
  O  O111  1  0.29176462  0.80567517  0.25771981  1
  O  O112  1  0.51328908  0.70056015  0.25805608  1
  O  O113  1  0.17300559  0.47000745  0.25469011  1
  O  O114  1  0.33003161  0.48958421  0.75613371  1
  O  O115  1  0.18865765  0.68173753  0.76227178  1
  O  O116  1  0.51882540  0.82333264  0.75675113  1
