# generated using pymatgen
data_Na2In4Si3Sn4(S3O16)3
_symmetry_space_group_name_H-M   'P 1'
_cell_length_a   17.70624940
_cell_length_b   8.86947788
_cell_length_c   23.25029477
_cell_angle_alpha   89.76888848
_cell_angle_beta   89.76650873
_cell_angle_gamma   120.12641072
_symmetry_Int_Tables_number   1
_chemical_formula_structural   Na2In4Si3Sn4(S3O16)3
_chemical_formula_sum   'Na6 In12 Si9 Sn12 S27 O144'
_cell_volume   3158.01929582
_cell_formula_units_Z   3
loop_
 _symmetry_equiv_pos_site_id
 _symmetry_equiv_pos_as_xyz
  1  'x, y, z'
loop_
 _atom_site_type_symbol
 _atom_site_label
 _atom_site_symmetry_multiplicity
 _atom_site_fract_x
 _atom_site_fract_y
 _atom_site_fract_z
 _atom_site_occupancy
  Na  Na0  1  0.99241898  0.01389190  0.50150721  1
  Na  Na1  1  0.49459225  0.97757930  0.00648494  1
  Na  Na2  1  0.32603501  0.31352202  0.84180265  1
  Na  Na3  1  0.82287022  0.32881759  0.83035856  1
  Na  Na4  1  0.32743201  0.32122946  0.32785684  1
  Na  Na5  1  0.81275033  0.31970585  0.33483540  1
  In  In6  1  0.00569210  0.00192884  0.34854961  1
  In  In7  1  0.50577800  0.00963776  0.84959924  1
  In  In8  1  0.99968995  0.01384981  0.64705690  1
  In  In9  1  0.50313012  0.97896038  0.14952655  1
  In  In10  1  0.32767306  0.32676673  0.98396334  1
  In  In11  1  0.83845665  0.33833918  0.98564273  1
  In  In12  1  0.33811531  0.33432657  0.48270093  1
  In  In13  1  0.82794601  0.32763575  0.48057978  1
  In  In14  1  0.16321653  0.67211600  0.30747283  1
  In  In15  1  0.66755775  0.66222496  0.31164221  1
  In  In16  1  0.16864250  0.68164082  0.81587683  1
  In  In17  1  0.66223762  0.65301506  0.80834673  1
  Si  Si18  1  0.15260046  0.01495055  0.25009602  1
  Si  Si19  1  0.65254910  0.00221114  0.24976130  1
  Si  Si20  1  0.65296507  0.29159241  0.74983380  1
  Si  Si21  1  0.48106134  0.33426239  0.58307336  1
  Si  Si22  1  0.97837180  0.33595107  0.58063901  1
  Si  Si23  1  0.47602110  0.62345581  0.07947485  1
  Si  Si24  1  0.97699722  0.62397692  0.08418567  1
  Si  Si25  1  0.17067210  0.96765781  0.91462932  1
  Si  Si26  1  0.66870587  0.37625120  0.41444259  1
  Sn  Sn27  1  0.51384877  0.02151466  0.35270395  1
  Sn  Sn28  1  0.00365520  0.99438107  0.85581279  1
  Sn  Sn29  1  0.50547138  0.01983603  0.64625116  1
  Sn  Sn30  1  0.00499893  0.99106911  0.14719925  1
  Sn  Sn31  1  0.33618015  0.33619020  0.68047678  1
  Sn  Sn32  1  0.83306935  0.33344614  0.68059028  1
  Sn  Sn33  1  0.33532218  0.33667814  0.18309937  1
  Sn  Sn34  1  0.83086769  0.32822526  0.18400506  1
  Sn  Sn35  1  0.15864170  0.67526092  0.02256942  1
  Sn  Sn36  1  0.66265174  0.66609636  0.02305622  1
  Sn  Sn37  1  0.16445223  0.66292659  0.52045308  1
  Sn  Sn38  1  0.65959690  0.64884713  0.51775986  1
  S  S39  1  0.35661892  0.70652798  0.25456064  1
  S  S40  1  0.85473544  0.70529233  0.24806942  1
  S  S41  1  0.99657638  0.28465934  0.24846007  1
  S  S42  1  0.49459176  0.28217838  0.24853207  1
  S  S43  1  0.15237374  0.29856630  0.75020139  1
  S  S44  1  0.99806750  0.70874339  0.74899631  1
  S  S45  1  0.49208427  0.70274795  0.74837028  1
  S  S46  1  0.35121843  0.00187725  0.74781235  1
  S  S47  1  0.85877424  0.00851925  0.75484716  1
  S  S48  1  0.18634639  0.03775414  0.58218375  1
  S  S49  1  0.68314265  0.02574209  0.58330627  1
  S  S50  1  0.33313439  0.63223404  0.58513399  1
  S  S51  1  0.83270537  0.63262819  0.58253767  1
  S  S52  1  0.33414884  0.03324183  0.08377348  1
  S  S53  1  0.83456260  0.03287636  0.08388309  1
  S  S54  1  0.18268677  0.33950376  0.08308564  1
  S  S55  1  0.68473679  0.33470060  0.07977283  1
  S  S56  1  0.31460957  0.67391816  0.91598133  1
  S  S57  1  0.81015388  0.66728798  0.91677711  1
  S  S58  1  0.01753740  0.36628123  0.91371455  1
  S  S59  1  0.52201642  0.37307983  0.91761753  1
  S  S60  1  0.66858030  0.95884814  0.91696589  1
  S  S61  1  0.31114459  0.95125488  0.41657942  1
  S  S62  1  0.81691519  0.95658240  0.41776494  1
  S  S63  1  0.16778912  0.37608403  0.41786114  1
  S  S64  1  0.02290396  0.67245875  0.41752131  1
  S  S65  1  0.51641672  0.66982433  0.41531886  1
  O  O66  1  0.11919333  0.06234523  0.30931185  1
  O  O67  1  0.61324324  0.04848304  0.30754370  1
  O  O68  1  0.41192769  0.79524646  0.30593588  1
  O  O69  1  0.90610984  0.78011555  0.30143779  1
  O  O70  1  0.47518064  0.16916403  0.30175601  1
  O  O71  1  0.97753039  0.17735381  0.30166876  1
  O  O72  1  0.11274788  0.18441713  0.80204560  1
  O  O73  1  0.61862122  0.17422578  0.80873690  1
  O  O74  1  0.47465400  0.77450282  0.80086114  1
  O  O75  1  0.98185899  0.78683606  0.80209402  1
  O  O76  1  0.40288797  0.03366163  0.80088072  1
  O  O77  1  0.91574315  0.03495917  0.80663015  1
  O  O78  1  0.39600798  0.98494878  0.69643987  1
  O  O79  1  0.89551816  0.97491429  0.70298506  1
  O  O80  1  0.10129464  0.22086926  0.69816090  1
  O  O81  1  0.59346907  0.19778184  0.69387439  1
  O  O82  1  0.01025084  0.81701532  0.69790997  1
  O  O83  1  0.49899891  0.80369819  0.69573605  1
  O  O84  1  0.39011753  0.80979702  0.20141322  1
  O  O85  1  0.89818221  0.81877123  0.19700853  1
  O  O86  1  0.00327201  0.19569511  0.19641964  1
  O  O87  1  0.50009198  0.19494533  0.19652244  1
  O  O88  1  0.09447187  0.99087860  0.19354411  1
  O  O89  1  0.60119742  0.98081175  0.19104434  1
  O  O90  1  0.44083970  0.37362939  0.64245631  1
  O  O91  1  0.93664875  0.36420943  0.64154017  1
  O  O92  1  0.23821538  0.11810117  0.63570842  1
  O  O93  1  0.73700109  0.10307507  0.63641785  1
  O  O94  1  0.30751283  0.51046137  0.63670057  1
  O  O95  1  0.81485659  0.52245331  0.63597073  1
  O  O96  1  0.43370251  0.50764996  0.13895044  1
  O  O97  1  0.93044211  0.49515013  0.13995232  1
  O  O98  1  0.31502482  0.11198739  0.13444737  1
  O  O99  1  0.81137670  0.10826563  0.13306377  1
  O  O100  1  0.23752313  0.36835027  0.13468540  1
  O  O101  1  0.73743354  0.35640468  0.13162179  1
  O  O102  1  0.21489076  0.29079656  0.03233014  1
  O  O103  1  0.72016913  0.29482568  0.02753750  1
  O  O104  1  0.42047956  0.53661241  0.02236953  1
  O  O105  1  0.92388184  0.55342613  0.02476639  1
  O  O106  1  0.34632344  0.13326158  0.03032399  1
  O  O107  1  0.84961096  0.13379894  0.02997459  1
  O  O108  1  0.22223306  0.15225966  0.53147044  1
  O  O109  1  0.71684856  0.14295755  0.53404325  1
  O  O110  1  0.34827711  0.55649386  0.53376778  1
  O  O111  1  0.84518832  0.55204895  0.53172211  1
  O  O112  1  0.41967248  0.29329809  0.52818830  1
  O  O113  1  0.91801313  0.30377441  0.52590291  1
  O  O114  1  0.26983853  0.68772134  0.96827339  1
  O  O115  1  0.76975470  0.68871712  0.97036796  1
  O  O116  1  0.07071623  0.44446425  0.96563398  1
  O  O117  1  0.57782132  0.45698727  0.96910448  1
  O  O118  1  0.15485629  0.84505256  0.97125117  1
  O  O119  1  0.66220341  0.85656546  0.97006995  1
  O  O120  1  0.27224885  0.84971915  0.47239463  1
  O  O121  1  0.77343830  0.85713737  0.47242512  1
  O  O122  1  0.16018910  0.46177234  0.47198568  1
  O  O123  1  0.65670086  0.46137038  0.47425232  1
  O  O124  1  0.07757652  0.70185564  0.47066630  1
  O  O125  1  0.56762473  0.69731117  0.46941753  1
  O  O126  1  0.06528709  0.65256915  0.36640345  1
  O  O127  1  0.55777117  0.64462629  0.36525753  1
  O  O128  1  0.25447881  0.86346794  0.36805269  1
  O  O129  1  0.76680367  0.87402949  0.36660035  1
  O  O130  1  0.17724043  0.47828002  0.36617975  1
  O  O131  1  0.68498350  0.48985947  0.35691776  1
  O  O132  1  0.05748379  0.46942907  0.86073132  1
  O  O133  1  0.56236730  0.47564551  0.86490729  1
  O  O134  1  0.18850023  0.89910003  0.85452025  1
  O  O135  1  0.67810186  0.87762008  0.86442782  1
  O  O136  1  0.26428584  0.65092869  0.86259778  1
  O  O137  1  0.75789542  0.64710549  0.86572327  1
  O  O138  1  0.01443004  0.83100051  0.41472035  1
  O  O139  1  0.50443974  0.82385481  0.41001760  1
  O  O140  1  0.39736894  0.96484803  0.41011723  1
  O  O141  1  0.90502130  0.96824080  0.41582265  1
  O  O142  1  0.08673126  0.20252255  0.41767894  1
  O  O143  1  0.57521984  0.18957140  0.41317816  1
  O  O144  1  0.00721916  0.18911030  0.90794071  1
  O  O145  1  0.51411795  0.19767525  0.91499848  1
  O  O146  1  0.07930695  0.97537716  0.91057756  1
  O  O147  1  0.58693589  0.96804084  0.91676531  1
  O  O148  1  0.40201534  0.83977200  0.91212921  1
  O  O149  1  0.89753088  0.82950387  0.91133036  1
  O  O150  1  0.48585763  0.15559348  0.58969956  1
  O  O151  1  0.99272958  0.16761034  0.58559754  1
  O  O152  1  0.09608952  0.00085863  0.58991920  1
  O  O153  1  0.59129339  0.98343998  0.59357432  1
  O  O154  1  0.41297369  0.79820735  0.59779306  1
  O  O155  1  0.91434660  0.80287295  0.58973756  1
  O  O156  1  0.48592029  0.81535338  0.08229227  1
  O  O157  1  0.98605410  0.81488806  0.09093783  1
  O  O158  1  0.41415006  0.02477313  0.09204915  1
  O  O159  1  0.91396490  0.02495506  0.09544678  1
  O  O160  1  0.09103228  0.19893673  0.09289825  1
  O  O161  1  0.59368287  0.19568801  0.08594196  1
  O  O162  1  0.33887817  0.15834512  0.74190197  1
  O  O163  1  0.85617482  0.17293656  0.74960276  1
  O  O164  1  0.24127392  0.31300675  0.74360785  1
  O  O165  1  0.75047893  0.30653409  0.74120284  1
  O  O166  1  0.41239155  0.52232320  0.74412709  1
  O  O167  1  0.91761739  0.53450267  0.74509023  1
  O  O168  1  0.35501339  0.53657176  0.24950334  1
  O  O169  1  0.85071308  0.53360818  0.24175902  1
  O  O170  1  0.41531598  0.30326881  0.24604489  1
  O  O171  1  0.92079999  0.31262899  0.24311126  1
  O  O172  1  0.24949197  0.19450543  0.24135787  1
  O  O173  1  0.75002218  0.18651438  0.24466841  1
  O  O174  1  0.32783434  0.52292852  0.91886103  1
  O  O175  1  0.82039087  0.51111922  0.92028657  1
  O  O176  1  0.43577792  0.35671389  0.92231687  1
  O  O177  1  0.92858853  0.34409859  0.91817158  1
  O  O178  1  0.25412080  0.16280727  0.92097326  1
  O  O179  1  0.74732063  0.13613928  0.92188667  1
  O  O180  1  0.31870059  0.12593199  0.42085131  1
  O  O181  1  0.82977476  0.13437398  0.42053738  1
  O  O182  1  0.24655932  0.35701797  0.42315703  1
  O  O183  1  0.75372599  0.34947012  0.41888769  1
  O  O184  1  0.42696202  0.51227643  0.41989694  1
  O  O185  1  0.93717236  0.51513688  0.42266161  1
  O  O186  1  0.18251982  0.50490602  0.07296112  1
  O  O187  1  0.68904800  0.50649451  0.07293503  1
  O  O188  1  0.07133479  0.62969902  0.08146248  1
  O  O189  1  0.57325033  0.63890635  0.07665522  1
  O  O190  1  0.25811818  0.85233368  0.07849950  1
  O  O191  1  0.75932646  0.85254843  0.07656941  1
  O  O192  1  0.18739031  0.87278581  0.57508355  1
  O  O193  1  0.68219138  0.86003517  0.57354202  1
  O  O194  1  0.25873841  0.66308708  0.57771250  1
  O  O195  1  0.75807814  0.66301037  0.57707829  1
  O  O196  1  0.07575155  0.51414985  0.57626005  1
  O  O197  1  0.57511442  0.51341801  0.57831898  1
  O  O198  1  0.16234579  0.84466820  0.25324940  1
  O  O199  1  0.66611215  0.83896726  0.25952427  1
  O  O200  1  0.26703793  0.66981182  0.26272168  1
  O  O201  1  0.76810252  0.68248139  0.25007690  1
  O  O202  1  0.07830154  0.45191282  0.25343270  1
  O  O203  1  0.57247652  0.45145759  0.25458728  1
  O  O204  1  0.16379387  0.47265543  0.75905773  1
  O  O205  1  0.66386964  0.48250674  0.75340273  1
  O  O206  1  0.07479916  0.68853576  0.75573722  1
  O  O207  1  0.57128610  0.69009270  0.75338504  1
  O  O208  1  0.26534818  0.84253789  0.75033931  1
  O  O209  1  0.77105433  0.86142930  0.76353031  1
