# generated using pymatgen
data_InCl
_symmetry_space_group_name_H-M   'P 1'
_cell_length_a   12.33266090
_cell_length_b   12.33266090
_cell_length_c   12.33266090
_cell_angle_alpha   90.00000000
_cell_angle_beta   90.00000000
_cell_angle_gamma   90.00000000
_symmetry_Int_Tables_number   1
_chemical_formula_structural   InCl
_chemical_formula_sum   'In32 Cl32'
_cell_volume   1875.73020002
_cell_formula_units_Z   32
loop_
 _symmetry_equiv_pos_site_id
 _symmetry_equiv_pos_as_xyz
  1  'x, y, z'
loop_
 _atom_site_type_symbol
 _atom_site_label
 _atom_site_symmetry_multiplicity
 _atom_site_fract_x
 _atom_site_fract_y
 _atom_site_fract_z
 _atom_site_occupancy
  In  In0  1  0.24836645  0.21812710  0.97129643  1
  In  In1  1  0.97129643  0.24836645  0.21812710  1
  In  In2  1  0.21812710  0.97129643  0.24836645  1
  In  In3  1  0.28187290  0.02870357  0.74836645  1
  In  In4  1  0.47129643  0.25163355  0.78187290  1
  In  In5  1  0.78187290  0.47129643  0.25163355  1
  In  In6  1  0.52870357  0.75163355  0.71812710  1
  In  In7  1  0.02870357  0.74836645  0.28187290  1
  In  In8  1  0.71812710  0.52870357  0.75163355  1
  In  In9  1  0.74836645  0.28187290  0.02870357  1
  In  In10  1  0.75163355  0.71812710  0.52870357  1
  In  In11  1  0.25163355  0.78187290  0.47129643  1
  In  In12  1  0.75097631  0.77786565  0.03035400  1
  In  In13  1  0.03035400  0.75097631  0.77786565  1
  In  In14  1  0.77786565  0.03035400  0.75097631  1
  In  In15  1  0.72213435  0.96964600  0.25097631  1
  In  In16  1  0.53035400  0.74902369  0.22213435  1
  In  In17  1  0.22213435  0.53035400  0.74902369  1
  In  In18  1  0.46964600  0.24902369  0.27786565  1
  In  In19  1  0.96964600  0.25097631  0.72213435  1
  In  In20  1  0.27786565  0.46964600  0.24902369  1
  In  In21  1  0.25097631  0.72213435  0.96964600  1
  In  In22  1  0.24902369  0.27786565  0.46964600  1
  In  In23  1  0.74902369  0.22213435  0.53035400  1
  In  In24  1  0.03037994  0.03037994  0.03037994  1
  In  In25  1  0.46962006  0.96962006  0.53037994  1
  In  In26  1  0.53037994  0.46962006  0.96962006  1
  In  In27  1  0.96962006  0.53037994  0.46962006  1
  In  In28  1  0.46472519  0.46472519  0.46472519  1
  In  In29  1  0.03527481  0.53527481  0.96472519  1
  In  In30  1  0.96472519  0.03527481  0.53527481  1
  In  In31  1  0.53527481  0.96472519  0.03527481  1
  Cl  Cl32  1  0.94614019  0.00142713  0.30381398  1
  Cl  Cl33  1  0.30381398  0.94614019  0.00142713  1
  Cl  Cl34  1  0.00142713  0.30381398  0.94614019  1
  Cl  Cl35  1  0.49857287  0.69618602  0.44614019  1
  Cl  Cl36  1  0.80381398  0.55385981  0.99857287  1
  Cl  Cl37  1  0.99857287  0.80381398  0.55385981  1
  Cl  Cl38  1  0.19618602  0.05385981  0.50142713  1
  Cl  Cl39  1  0.69618602  0.44614019  0.49857287  1
  Cl  Cl40  1  0.50142713  0.19618602  0.05385981  1
  Cl  Cl41  1  0.44614019  0.49857287  0.69618602  1
  Cl  Cl42  1  0.05385981  0.50142713  0.19618602  1
  Cl  Cl43  1  0.55385981  0.99857287  0.80381398  1
  Cl  Cl44  1  0.05985115  0.98419576  0.80382057  1
  Cl  Cl45  1  0.80382057  0.05985115  0.98419576  1
  Cl  Cl46  1  0.98419576  0.80382057  0.05985115  1
  Cl  Cl47  1  0.51580424  0.19617943  0.55985115  1
  Cl  Cl48  1  0.30382057  0.44014885  0.01580424  1
  Cl  Cl49  1  0.01580424  0.30382057  0.44014885  1
  Cl  Cl50  1  0.69617943  0.94014885  0.48419576  1
  Cl  Cl51  1  0.19617943  0.55985115  0.51580424  1
  Cl  Cl52  1  0.48419576  0.69617943  0.94014885  1
  Cl  Cl53  1  0.55985115  0.51580424  0.19617943  1
  Cl  Cl54  1  0.94014885  0.48419576  0.69617943  1
  Cl  Cl55  1  0.44014885  0.01580424  0.30382057  1
  Cl  Cl56  1  0.20500252  0.20500252  0.20500252  1
  Cl  Cl57  1  0.29499748  0.79499748  0.70500252  1
  Cl  Cl58  1  0.70500252  0.29499748  0.79499748  1
  Cl  Cl59  1  0.79499748  0.70500252  0.29499748  1
  Cl  Cl60  1  0.80192192  0.80192192  0.80192192  1
  Cl  Cl61  1  0.69807808  0.19807808  0.30192192  1
  Cl  Cl62  1  0.30192192  0.69807808  0.19807808  1
  Cl  Cl63  1  0.19807808  0.30192192  0.69807808  1
