# generated using pymatgen
data_Na3Ta2Zn2P5SO24
_symmetry_space_group_name_H-M   'P 1'
_cell_length_a   8.81890212
_cell_length_b   8.78706120
_cell_length_c   22.41972048
_cell_angle_alpha   89.99534005
_cell_angle_beta   89.94676181
_cell_angle_gamma   119.76212256
_symmetry_Int_Tables_number   1
_chemical_formula_structural   Na3Ta2Zn2P5SO24
_chemical_formula_sum   'Na9 Ta6 Zn6 P15 S3 O72'
_cell_volume   1508.18547129
_cell_formula_units_Z   3
loop_
 _symmetry_equiv_pos_site_id
 _symmetry_equiv_pos_as_xyz
  1  'x, y, z'
loop_
 _atom_site_type_symbol
 _atom_site_label
 _atom_site_symmetry_multiplicity
 _atom_site_fract_x
 _atom_site_fract_y
 _atom_site_fract_z
 _atom_site_occupancy
  Na  Na0  1  0.01454795  0.36944971  0.75464789  1
  Na  Na1  1  0.68346162  0.98326992  0.58765603  1
  Na  Na2  1  0.68439897  0.70428702  0.08791927  1
  Na  Na3  1  0.01742147  0.00606116  0.51026147  1
  Na  Na4  1  0.01228089  0.01489275  0.00951291  1
  Na  Na5  1  0.66177619  0.34214877  0.84541103  1
  Na  Na6  1  0.65331915  0.32385358  0.34402994  1
  Na  Na7  1  0.32851844  0.67739462  0.17890235  1
  Na  Na8  1  0.33440599  0.67140106  0.67795193  1
  Ta  Ta9  1  -0.00012395  0.99828271  0.35418677  1
  Ta  Ta10  1  0.99428947  0.99731615  0.85358082  1
  Ta  Ta11  1  0.66253674  0.33508112  0.68695972  1
  Ta  Ta12  1  0.66174652  0.33059984  0.18720533  1
  Ta  Ta13  1  0.33103034  0.66162651  0.02064913  1
  Ta  Ta14  1  0.33526688  0.66031427  0.52057508  1
  Zn  Zn15  1  0.00700959  0.99895849  0.64968173  1
  Zn  Zn16  1  0.00682126  0.99834455  0.14932094  1
  Zn  Zn17  1  0.67595812  0.33993447  0.98308537  1
  Zn  Zn18  1  0.65561904  0.32484056  0.48265364  1
  Zn  Zn19  1  0.35658033  0.67994202  0.31504575  1
  Zn  Zn20  1  0.33946116  0.66460804  0.81590711  1
  P  P21  1  0.28975622  0.99550586  0.24862922  1
  P  P22  1  0.70837147  0.70834664  0.24606269  1
  P  P23  1  0.28976780  0.28841065  0.74886095  1
  P  P24  1  0.00082578  0.70882254  0.74820335  1
  P  P25  1  0.70292106  0.99618516  0.74637956  1
  P  P26  1  0.95761038  0.33598311  0.58179897  1
  P  P27  1  0.37023816  0.04020104  0.58105600  1
  P  P28  1  0.67103731  0.62429772  0.57952283  1
  P  P29  1  0.95892119  0.62356534  0.08244313  1
  P  P30  1  0.66722586  0.04399291  0.08038455  1
  P  P31  1  0.37197686  0.32608702  0.08047016  1
  P  P32  1  0.62419650  0.66321230  0.91535825  1
  P  P33  1  0.03850785  0.37432043  0.91267870  1
  P  P34  1  0.62693538  0.96319721  0.41560738  1
  P  P35  1  0.33456897  0.37588832  0.41226562  1
  S  S36  1  0.99787988  0.29136921  0.24918979  1
  S  S37  1  0.33046562  0.95674389  0.91513555  1
  S  S38  1  0.04479696  0.66609740  0.41445206  1
  O  O39  1  0.19709520  0.02598124  0.30523243  1
  O  O40  1  0.83119656  0.80930085  0.30153424  1
  O  O41  1  0.97291624  0.17694539  0.30383495  1
  O  O42  1  0.19823242  0.16856363  0.80557928  1
  O  O43  1  0.97420772  0.80102319  0.80526165  1
  O  O44  1  0.83266003  0.02774865  0.80160038  1
  O  O45  1  0.78148359  0.97709831  0.68892377  1
  O  O46  1  0.17632071  0.20953591  0.69482730  1
  O  O47  1  0.02254627  0.81174791  0.69269771  1
  O  O48  1  0.78611618  0.80819466  0.18885086  1
  O  O49  1  0.01824986  0.21110235  0.19564983  1
  O  O50  1  0.18920943  0.97976989  0.19296541  1
  O  O51  1  0.86980160  0.36405150  0.64042579  1
  O  O52  1  0.49734962  0.13289481  0.63736865  1
  O  O53  1  0.64117867  0.50545493  0.63699763  1
  O  O54  1  0.86678513  0.50192117  0.13891546  1
  O  O55  1  0.63936101  0.13539398  0.13768906  1
  O  O56  1  0.49797497  0.36394112  0.13733042  1
  O  O57  1  0.45595455  0.30573304  0.02543357  1
  O  O58  1  0.84656890  0.54635279  0.02813521  1
  O  O59  1  0.68899224  0.14814743  0.02521315  1
  O  O60  1  0.45215841  0.14266088  0.52555266  1
  O  O61  1  0.69364276  0.54177638  0.52469586  1
  O  O62  1  0.84294265  0.30690854  0.52871481  1
  O  O63  1  0.53584290  0.69318561  0.97365076  1
  O  O64  1  0.16408962  0.47646603  0.96808057  1
  O  O65  1  0.30699851  0.84388114  0.96987648  1
  O  O66  1  0.53513935  0.84228136  0.47327348  1
  O  O67  1  0.30618379  0.46851256  0.47017434  1
  O  O68  1  0.15761786  0.69440637  0.46930814  1
  O  O69  1  0.12567968  0.64809189  0.36126028  1
  O  O70  1  0.51813809  0.88141679  0.36142607  1
  O  O71  1  0.34597500  0.47886929  0.35783835  1
  O  O72  1  0.11698337  0.47352397  0.85552836  1
  O  O73  1  0.34819090  0.87538167  0.86165153  1
  O  O74  1  0.51964733  0.64828924  0.86105219  1
  O  O75  1  0.03593763  0.83741883  0.41167687  1
  O  O76  1  0.80851699  0.96407100  0.40937411  1
  O  O77  1  0.15836211  0.19015878  0.40900912  1
  O  O78  1  0.03634376  0.19163301  0.91034880  1
  O  O79  1  0.16108243  0.96381932  0.91317840  1
  O  O80  1  0.80906872  0.84028181  0.91028008  1
  O  O81  1  0.98505392  0.17982957  0.58978243  1
  O  O82  1  0.18770007  0.00741921  0.58965088  1
  O  O83  1  0.81386649  0.81273067  0.58771976  1
  O  O84  1  0.98658435  0.80714574  0.09024762  1
  O  O85  1  0.81493209  0.00447251  0.08924382  1
  O  O86  1  0.18767849  0.18214910  0.09050629  1
  O  O87  1  0.70505308  0.17889369  0.74466042  1
  O  O88  1  0.47195585  0.29627417  0.74328335  1
  O  O89  1  0.82428058  0.52297561  0.74442196  1
  O  O90  1  0.70521169  0.52526943  0.24359253  1
  O  O91  1  0.82750501  0.29600559  0.24672044  1
  O  O92  1  0.47577064  0.17161627  0.24392948  1
  O  O93  1  0.65287588  0.50887216  0.92259733  1
  O  O94  1  0.85479107  0.34021549  0.92142075  1
  O  O95  1  0.47740878  0.13270269  0.92264997  1
  O  O96  1  0.66658460  0.14987740  0.42330624  1
  O  O97  1  0.48855922  0.34793633  0.42043609  1
  O  O98  1  0.86837881  0.52119745  0.42257113  1
  O  O99  1  0.37151196  0.50960334  0.07660628  1
  O  O100  1  0.14130821  0.63175904  0.07628454  1
  O  O101  1  0.49097184  0.85735010  0.07587400  1
  O  O102  1  0.36996834  0.85770655  0.57752933  1
  O  O103  1  0.49157768  0.63103637  0.57610619  1
  O  O104  1  0.14003357  0.51017011  0.57550316  1
  O  O105  1  0.31504228  0.83940701  0.25731668  1
  O  O106  1  0.52339091  0.67302276  0.25344041  1
  O  O107  1  0.14256738  0.46744682  0.25757444  1
  O  O108  1  0.31791635  0.47230503  0.75650920  1
  O  O109  1  0.14907325  0.66979161  0.75639877  1
  O  O110  1  0.52070944  0.84801287  0.75672156  1
