# generated using pymatgen
data_Na7ZnGa3Si3(SO8)3
_symmetry_space_group_name_H-M   'P 1'
_cell_length_a   8.98743470
_cell_length_b   8.94048897
_cell_length_c   21.98784523
_cell_angle_alpha   90.76408368
_cell_angle_beta   90.18516408
_cell_angle_gamma   119.71692606
_symmetry_Int_Tables_number   1
_chemical_formula_structural   Na7ZnGa3Si3(SO8)3
_chemical_formula_sum   'Na21 Zn3 Ga9 Si9 S9 O72'
_cell_volume   1534.17730511
_cell_formula_units_Z   3
loop_
 _symmetry_equiv_pos_site_id
 _symmetry_equiv_pos_as_xyz
  1  'x, y, z'
loop_
 _atom_site_type_symbol
 _atom_site_label
 _atom_site_symmetry_multiplicity
 _atom_site_fract_x
 _atom_site_fract_y
 _atom_site_fract_z
 _atom_site_occupancy
  Na  Na0  1  0.63527654  0.99781153  0.24371967  1
  Na  Na1  1  0.37925281  0.37366207  0.24224134  1
  Na  Na2  1  0.98531335  0.63191499  0.25316768  1
  Na  Na3  1  0.62566595  0.62597324  0.74225382  1
  Na  Na4  1  0.99508854  0.35626839  0.74984466  1
  Na  Na5  1  0.38290723  0.01432752  0.75480760  1
  Na  Na6  1  0.02328088  0.69765231  0.57802671  1
  Na  Na7  1  0.66595749  0.95964497  0.58402615  1
  Na  Na8  1  0.31027081  0.97675798  0.08191969  1
  Na  Na9  1  0.65721705  0.69354223  0.08884871  1
  Na  Na10  1  0.69629217  0.03548629  0.91623529  1
  Na  Na11  1  0.33249689  0.29132023  0.91730930  1
  Na  Na12  1  0.96410227  0.29786273  0.41315356  1
  Na  Na13  1  0.33274785  0.02662573  0.41593282  1
  Na  Na14  1  0.72009793  0.68272427  0.41624939  1
  Na  Na15  1  0.99453715  0.99254207  0.49879493  1
  Na  Na16  1  0.00670473  0.00595192  0.00196227  1
  Na  Na17  1  0.66098589  0.32693732  0.83241683  1
  Na  Na18  1  0.67469411  0.34386116  0.33135766  1
  Na  Na19  1  0.33918619  0.65812575  0.16212936  1
  Na  Na20  1  0.34687074  0.65161663  0.66594465  1
  Zn  Zn21  1  0.98020594  0.97468060  0.35411079  1
  Zn  Zn22  1  0.64554409  0.33086984  0.68567742  1
  Zn  Zn23  1  0.65250760  0.33861866  0.17381541  1
  Ga  Ga24  1  0.01647081  0.00988808  0.84849991  1
  Ga  Ga25  1  0.98461938  -0.00036184  0.65281767  1
  Ga  Ga26  1  0.98152251  0.00899278  0.14438757  1
  Ga  Ga27  1  0.63120488  0.29375000  0.98916976  1
  Ga  Ga28  1  0.69133583  0.35396404  0.48024621  1
  Ga  Ga29  1  0.33336580  0.67575796  0.02026313  1
  Ga  Ga30  1  0.35449608  0.67699357  0.51419553  1
  Ga  Ga31  1  0.35027636  0.68655687  0.31966773  1
  Ga  Ga32  1  0.35091897  0.67661527  0.81373521  1
  Si  Si33  1  0.70163110  0.70079307  0.24977004  1
  Si  Si34  1  0.28677827  0.29253795  0.75125368  1
  Si  Si35  1  0.70993613  0.99937973  0.75266438  1
  Si  Si36  1  0.66391305  0.62769727  0.58393720  1
  Si  Si37  1  0.66806853  0.04001130  0.08381189  1
  Si  Si38  1  0.35564677  0.33415228  0.08285515  1
  Si  Si39  1  0.32180658  0.94978743  0.91645420  1
  Si  Si40  1  0.63101664  0.97249056  0.41930463  1
  Si  Si41  1  0.05350784  0.66592545  0.41790596  1
  S  S42  1  0.28847844  0.99692154  0.25131439  1
  S  S43  1  0.00600872  0.29619462  0.25204487  1
  S  S44  1  0.00326103  0.71125189  0.74997750  1
  S  S45  1  0.96541336  0.33391513  0.58378255  1
  S  S46  1  0.36796761  0.03843893  0.58255885  1
  S  S47  1  0.95788575  0.62042878  0.08236881  1
  S  S48  1  0.63111845  0.66539942  0.91695603  1
  S  S49  1  0.04095425  0.38196334  0.91608182  1
  S  S50  1  0.33585251  0.37755750  0.41623144  1
  O  O51  1  0.21189804  0.02536762  0.30686819  1
  O  O52  1  0.81426547  0.77400145  0.31169038  1
  O  O53  1  0.98722108  0.19747332  0.30752950  1
  O  O54  1  0.21174673  0.17579216  0.81213034  1
  O  O55  1  0.97295117  0.79367006  0.80361393  1
  O  O56  1  0.83123690  0.02482163  0.81291083  1
  O  O57  1  0.78282387  0.95413706  0.69057890  1
  O  O58  1  0.15720769  0.19761423  0.69273281  1
  O  O59  1  0.03317169  0.81582564  0.69392755  1
  O  O60  1  0.79339865  0.83125105  0.19130914  1
  O  O61  1  0.03542615  0.21274231  0.19757697  1
  O  O62  1  0.18407544  0.97514356  0.19606795  1
  O  O63  1  0.88635000  0.36048332  0.63837397  1
  O  O64  1  0.47658842  0.11246985  0.63810306  1
  O  O65  1  0.64294122  0.52355964  0.64510672  1
  O  O66  1  0.89073172  0.52830862  0.13988175  1
  O  O67  1  0.63347771  0.12275426  0.14464459  1
  O  O68  1  0.47913685  0.38951307  0.14259567  1
  O  O69  1  0.44329082  0.29330498  0.02282965  1
  O  O70  1  0.84158516  0.53338992  0.02966681  1
  O  O71  1  0.70349466  0.15464555  0.02203936  1
  O  O72  1  0.45089303  0.14048568  0.52793762  1
  O  O73  1  0.70197812  0.53985124  0.52288400  1
  O  O74  1  0.85410349  0.30278821  0.52802579  1
  O  O75  1  0.54893088  0.69515996  0.97082486  1
  O  O76  1  0.15611328  0.46532032  0.96904901  1
  O  O77  1  0.30218322  0.83949075  0.97719667  1
  O  O78  1  0.54891548  0.84348589  0.47653169  1
  O  O79  1  0.30428393  0.45668990  0.47047303  1
  O  O80  1  0.16750106  0.68458720  0.47915454  1
  O  O81  1  0.13733098  0.62653686  0.35672605  1
  O  O82  1  0.50936884  0.89291960  0.35785275  1
  O  O83  1  0.36653942  0.48358563  0.36071669  1
  O  O84  1  0.12079348  0.47671333  0.85914257  1
  O  O85  1  0.36321453  0.86504992  0.85630923  1
  O  O86  1  0.51989584  0.62975434  0.86098076  1
  O  O87  1  0.03943894  0.84098356  0.41729858  1
  O  O88  1  0.82447318  0.00248828  0.41518783  1
  O  O89  1  0.18316222  0.20451124  0.40992492  1
  O  O90  1  0.02080951  0.20275703  0.91408483  1
  O  O91  1  0.15468757  0.98079527  0.91115326  1
  O  O92  1  0.79900400  0.82490445  0.91089879  1
  O  O93  1  0.97848804  0.17441502  0.58583941  1
  O  O94  1  0.19470298  0.01783222  0.58770695  1
  O  O95  1  0.84525277  0.82478177  0.58750129  1
  O  O96  1  0.97858145  0.79831564  0.08621326  1
  O  O97  1  0.83055570  0.00412809  0.08472390  1
  O  O98  1  0.17711035  0.14803085  0.09243101  1
  O  O99  1  0.69575149  0.17405775  0.74715756  1
  O  O100  1  0.47948859  0.31951387  0.74897463  1
  O  O101  1  0.85332897  0.53761814  0.74551866  1
  O  O102  1  0.68162546  0.50788381  0.24383426  1
  O  O103  1  0.85142389  0.31320401  0.24624146  1
  O  O104  1  0.46457956  0.14505503  0.24848509  1
  O  O105  1  0.64897597  0.51021760  0.92270609  1
  O  O106  1  0.86894923  0.36357955  0.92075290  1
  O  O107  1  0.50154686  0.14713988  0.92001816  1
  O  O108  1  0.63591070  0.16005749  0.42790574  1
  O  O109  1  0.49111374  0.35931727  0.42219656  1
  O  O110  1  0.85764606  0.49491489  0.41993668  1
  O  O111  1  0.34213178  0.50736901  0.07021406  1
  O  O112  1  0.13309530  0.64378074  0.07640209  1
  O  O113  1  0.49154957  0.84797043  0.07775269  1
  O  O114  1  0.34796570  0.85992594  0.57860332  1
  O  O115  1  0.49404449  0.65467095  0.57623235  1
  O  O116  1  0.13565772  0.49062558  0.57723305  1
  O  O117  1  0.29735418  0.83198487  0.25373572  1
  O  O118  1  0.50568333  0.68509784  0.25637397  1
  O  O119  1  0.16316800  0.47187572  0.25392668  1
  O  O120  1  0.29855882  0.48487424  0.75810562  1
  O  O121  1  0.16068357  0.69557836  0.75553600  1
  O  O122  1  0.51640842  0.82594121  0.75567449  1
