# generated using pymatgen
data_Na2LaInP2SO12
_symmetry_space_group_name_H-M   'P 1'
_cell_length_a   9.23567037
_cell_length_b   9.25570257
_cell_length_c   24.04864834
_cell_angle_alpha   90.82198009
_cell_angle_beta   89.21317727
_cell_angle_gamma   119.90005925
_symmetry_Int_Tables_number   1
_chemical_formula_structural   Na2LaInP2SO12
_chemical_formula_sum   'Na12 La6 In6 P12 S6 O72'
_cell_volume   1781.87974503
_cell_formula_units_Z   6
loop_
 _symmetry_equiv_pos_site_id
 _symmetry_equiv_pos_as_xyz
  1  'x, y, z'
loop_
 _atom_site_type_symbol
 _atom_site_label
 _atom_site_symmetry_multiplicity
 _atom_site_fract_x
 _atom_site_fract_y
 _atom_site_fract_z
 _atom_site_occupancy
  Na  Na0  1  0.99209884  0.62889216  0.25626272  1
  Na  Na1  1  0.37694331  0.01447010  0.74778726  1
  Na  Na2  1  0.66254052  0.95729320  0.58911648  1
  Na  Na3  1  0.04217960  0.33955619  0.09008362  1
  Na  Na4  1  0.32346414  0.29492532  0.92011520  1
  Na  Na5  1  0.70364379  0.67513601  0.41753096  1
  Na  Na6  1  0.02392913  0.99320957  0.50015331  1
  Na  Na7  1  0.01314613  0.97960488  0.99978538  1
  Na  Na8  1  0.68786730  0.32232807  0.83106775  1
  Na  Na9  1  0.67213840  0.31108731  0.33465523  1
  Na  Na10  1  0.35508918  0.65591008  0.17168365  1
  Na  Na11  1  0.34408877  0.64439382  0.66626613  1
  La  La12  1  0.98932499  0.00549105  0.84306838  1
  La  La13  1  0.00136493  0.99772116  0.15799840  1
  La  La14  1  0.66868820  0.32954799  0.98452249  1
  La  La15  1  0.32900787  0.68072280  0.01936280  1
  La  La16  1  0.32269604  0.67098068  0.51524744  1
  La  La17  1  0.33506675  0.66317277  0.81134643  1
  In  In18  1  0.98754153  0.00346542  0.34565810  1
  In  In19  1  0.00309547  0.99804312  0.64691742  1
  In  In20  1  0.65910054  0.33991718  0.67874081  1
  In  In21  1  0.65980522  0.34439986  0.18695835  1
  In  In22  1  0.66722226  0.33254059  0.48356247  1
  In  In23  1  0.33230032  0.66619304  0.32244141  1
  P  P24  1  0.68799374  0.69081838  0.25600048  1
  P  P25  1  0.00047930  0.31311901  0.25197113  1
  P  P26  1  0.30331218  0.29220962  0.74370936  1
  P  P27  1  0.69975659  0.01402267  0.73842475  1
  P  P28  1  0.37452792  0.05136756  0.58511072  1
  P  P29  1  0.67853875  0.63397694  0.58237163  1
  P  P30  1  0.96206091  0.62640578  0.09032188  1
  P  P31  1  0.36624224  0.33570596  0.08620546  1
  P  P32  1  0.03314371  0.36149508  0.91798534  1
  P  P33  1  0.33003836  0.97781128  0.91171991  1
  P  P34  1  0.63665790  0.97202775  0.41609422  1
  P  P35  1  0.02171158  0.66859231  0.41101737  1
  S  S36  1  0.30763200  0.99812678  0.25553285  1
  S  S37  1  0.98965778  0.69358799  0.74264568  1
  S  S38  1  0.94925559  0.32150015  0.58555676  1
  S  S39  1  0.66823354  0.04147407  0.09099215  1
  S  S40  1  0.63858269  0.66610993  0.91698013  1
  S  S41  1  0.33313471  0.35929299  0.41346020  1
  O  O42  1  0.22056872  0.02498395  0.30360486  1
  O  O43  1  0.80636813  0.77438873  0.30678367  1
  O  O44  1  0.98095950  0.19563424  0.30035175  1
  O  O45  1  0.23347757  0.20174663  0.79993894  1
  O  O46  1  0.96829239  0.76198314  0.79595087  1
  O  O47  1  0.79239594  0.02552328  0.79256413  1
  O  O48  1  0.78940712  0.99287981  0.68645328  1
  O  O49  1  0.18725300  0.18646533  0.69604230  1
  O  O50  1  0.00714626  0.80332660  0.69574640  1
  O  O51  1  0.76640680  0.79461338  0.20334897  1
  O  O52  1  0.02922366  0.24767234  0.19590181  1
  O  O53  1  0.20821653  0.96647726  0.20433759  1
  O  O54  1  0.86823083  0.34102742  0.63581623  1
  O  O55  1  0.47561587  0.12445677  0.63885816  1
  O  O56  1  0.66577978  0.53169345  0.63342781  1
  O  O57  1  0.87161583  0.52528163  0.14338659  1
  O  O58  1  0.65976946  0.13737251  0.13974584  1
  O  O59  1  0.47092148  0.33324218  0.13572080  1
  O  O60  1  0.44073263  0.32484709  0.02931645  1
  O  O61  1  0.86867989  0.53766999  0.03691897  1
  O  O62  1  0.67518773  0.12384701  0.03824081  1
  O  O63  1  0.46355398  0.15704503  0.53305250  1
  O  O64  1  0.69540553  0.55371848  0.52669641  1
  O  O65  1  0.85198786  0.30412998  0.53441014  1
  O  O66  1  0.55219077  0.67502896  0.96793167  1
  O  O67  1  0.12558108  0.44689169  0.97284922  1
  O  O68  1  0.33207350  0.88075819  0.96346588  1
  O  O69  1  0.56603924  0.86573185  0.46980496  1
  O  O70  1  0.30287468  0.43055325  0.46501140  1
  O  O71  1  0.12856686  0.69223891  0.46278723  1
  O  O72  1  0.10378061  0.64222791  0.35793939  1
  O  O73  1  0.52072578  0.87914471  0.36633582  1
  O  O74  1  0.36193718  0.47176242  0.36559835  1
  O  O75  1  0.13792044  0.46561080  0.86740728  1
  O  O76  1  0.33719076  0.88964250  0.85706017  1
  O  O77  1  0.54387630  0.66280077  0.86686092  1
  O  O78  1  0.99909472  0.82479112  0.40523497  1
  O  O79  1  0.81051617  0.98335918  0.40741923  1
  O  O80  1  0.18870295  0.18983880  0.40450024  1
  O  O81  1  0.02691173  0.19077709  0.91629438  1
  O  O82  1  0.17130630  0.99466122  0.91454084  1
  O  O83  1  0.80885350  0.81050819  0.91600496  1
  O  O84  1  0.95679599  0.16347535  0.58795525  1
  O  O85  1  0.19667069  0.02973412  0.58850511  1
  O  O86  1  0.83549088  0.81503470  0.58656946  1
  O  O87  1  0.98643850  0.80377820  0.09083063  1
  O  O88  1  0.82611564  0.03525705  0.09212931  1
  O  O89  1  0.18443282  0.18313819  0.08897643  1
  O  O90  1  0.68262280  0.17314831  0.73684557  1
  O  O91  1  0.47692376  0.30354818  0.73963362  1
  O  O92  1  0.84509573  0.52334052  0.73666396  1
  O  O93  1  0.68195980  0.51839911  0.25035007  1
  O  O94  1  0.84039466  0.33218668  0.24899899  1
  O  O95  1  0.47692782  0.14717270  0.24928742  1
  O  O96  1  0.64161635  0.50723509  0.91544694  1
  O  O97  1  0.85743099  0.33955847  0.91474396  1
  O  O98  1  0.48268546  0.15783694  0.91210726  1
  O  O99  1  0.65587279  0.14820863  0.42275144  1
  O  O100  1  0.49198863  0.35360899  0.41899948  1
  O  O101  1  0.84107206  0.51291619  0.41884994  1
  O  O102  1  0.34946284  0.49501817  0.08924101  1
  O  O103  1  0.13343844  0.63165471  0.09018560  1
  O  O104  1  0.52148700  0.87156963  0.09213696  1
  O  O105  1  0.36431195  0.87731662  0.57995712  1
  O  O106  1  0.52281359  0.65860541  0.58097731  1
  O  O107  1  0.12068423  0.46706208  0.58243887  1
  O  O108  1  0.31977134  0.84452239  0.26253376  1
  O  O109  1  0.51171822  0.66792676  0.26415549  1
  O  O110  1  0.15262558  0.49342737  0.26134767  1
  O  O111  1  0.32357984  0.46844045  0.74317057  1
  O  O112  1  0.14861456  0.68729001  0.74357677  1
  O  O113  1  0.51821527  0.86068858  0.74053959  1
