# generated using pymatgen
data_Na4Ca2Sc2SiS5O24
_symmetry_space_group_name_H-M   'P 1'
_cell_length_a   9.13815243
_cell_length_b   9.10895125
_cell_length_c   23.29218987
_cell_angle_alpha   89.99003253
_cell_angle_beta   90.03272344
_cell_angle_gamma   119.85787980
_symmetry_Int_Tables_number   1
_chemical_formula_structural   Na4Ca2Sc2SiS5O24
_chemical_formula_sum   'Na12 Ca6 Sc6 Si3 S15 O72'
_cell_volume   1681.46498296
_cell_formula_units_Z   3
loop_
 _symmetry_equiv_pos_site_id
 _symmetry_equiv_pos_as_xyz
  1  'x, y, z'
loop_
 _atom_site_type_symbol
 _atom_site_label
 _atom_site_symmetry_multiplicity
 _atom_site_fract_x
 _atom_site_fract_y
 _atom_site_fract_z
 _atom_site_occupancy
  Na  Na0  1  0.99743242  0.63204714  0.23692018  1
  Na  Na1  1  0.99232654  0.35664074  0.75639927  1
  Na  Na2  1  0.37287588  0.99683338  0.75086198  1
  Na  Na3  1  0.66012188  0.97731762  0.59144984  1
  Na  Na4  1  0.67989968  0.68260814  0.07611687  1
  Na  Na5  1  0.33845765  0.03887206  0.42594417  1
  Na  Na6  1  0.02270600  0.00540385  0.50409114  1
  Na  Na7  1  0.01625686  0.99394455  0.00178166  1
  Na  Na8  1  0.66629627  0.33690552  0.84268130  1
  Na  Na9  1  0.66614514  0.33346904  0.32901032  1
  Na  Na10  1  0.31448968  0.66051338  0.15998967  1
  Na  Na11  1  0.35475811  0.68020473  0.66677403  1
  Ca  Ca12  1  0.99319822  0.00421234  0.35322176  1
  Ca  Ca13  1  0.67052741  0.32991852  0.17610016  1
  Ca  Ca14  1  0.67531734  0.33926902  0.98717670  1
  Ca  Ca15  1  0.66297487  0.33582989  0.48660396  1
  Ca  Ca16  1  0.34019164  0.66256464  0.31223389  1
  Ca  Ca17  1  0.34939153  0.67426066  0.81579827  1
  Sc  Sc18  1  0.98073906  0.99801177  0.85180144  1
  Sc  Sc19  1  -0.00018521  0.99436334  0.64803835  1
  Sc  Sc20  1  0.00618990  0.00380235  0.14759797  1
  Sc  Sc21  1  0.65743926  0.31852635  0.68104282  1
  Sc  Sc22  1  0.31662351  0.66857998  0.01622010  1
  Sc  Sc23  1  0.32873097  0.66851147  0.52096325  1
  Si  Si24  1  0.70840354  0.00484952  0.74470205  1
  Si  Si25  1  0.35841210  0.02653308  0.58148352  1
  Si  Si26  1  0.97615200  0.64523305  0.08755706  1
  S  S27  1  0.29430459  0.00229280  0.25129422  1
  S  S28  1  0.70771031  0.70559546  0.24687445  1
  S  S29  1  0.99646401  0.29699662  0.24870381  1
  S  S30  1  0.28797416  0.28138494  0.74887978  1
  S  S31  1  0.99111569  0.70536544  0.75018599  1
  S  S32  1  0.96886201  0.33446420  0.58579425  1
  S  S33  1  0.66566477  0.63386886  0.58529601  1
  S  S34  1  0.66400918  0.01806524  0.08218677  1
  S  S35  1  0.35898160  0.33695531  0.08190091  1
  S  S36  1  0.63827857  0.67111913  0.91780360  1
  S  S37  1  0.03820202  0.36502004  0.91307547  1
  S  S38  1  0.32561304  0.96687022  0.91363864  1
  S  S39  1  0.62519894  0.95787319  0.42082088  1
  S  S40  1  0.33342926  0.37180054  0.41959766  1
  S  S41  1  0.04291266  0.66758952  0.41704990  1
  O  O42  1  0.22088154  0.01417918  0.30682223  1
  O  O43  1  0.80577063  0.79059555  0.29904379  1
  O  O44  1  0.99396469  0.21057851  0.30228887  1
  O  O45  1  0.21187863  0.17585253  0.80104482  1
  O  O46  1  0.97692993  0.78980183  0.80259021  1
  O  O47  1  0.83214603  0.03168602  0.80118572  1
  O  O48  1  0.80443923  0.99456871  0.68712576  1
  O  O49  1  0.18499152  0.19463227  0.69760915  1
  O  O50  1  0.01817558  0.81329824  0.69903800  1
  O  O51  1  0.79940908  0.80507134  0.19473659  1
  O  O52  1  0.00130874  0.20186521  0.19782205  1
  O  O53  1  0.18326789  0.99463080  0.20273318  1
  O  O54  1  0.89095364  0.36132173  0.63852878  1
  O  O55  1  0.49429299  0.12687879  0.63617906  1
  O  O56  1  0.64897892  0.52846266  0.63600738  1
  O  O57  1  0.91506862  0.54440845  0.14788536  1
  O  O58  1  0.62781890  0.08505096  0.13405261  1
  O  O59  1  0.46613219  0.37023845  0.13323861  1
  O  O60  1  0.42767543  0.29766933  0.03123567  1
  O  O61  1  0.83465507  0.55961583  0.03776048  1
  O  O62  1  0.69059596  0.12129522  0.03113258  1
  O  O63  1  0.43016708  0.12657702  0.52198028  1
  O  O64  1  0.69473167  0.56706217  0.53232321  1
  O  O65  1  0.86176231  0.30634322  0.53551981  1
  O  O66  1  0.55614735  0.68748506  0.97094213  1
  O  O67  1  0.14797088  0.46110865  0.96264053  1
  O  O68  1  0.31141062  0.85425863  0.96283545  1
  O  O69  1  0.53486289  0.85975826  0.47396574  1
  O  O70  1  0.32965252  0.46704971  0.47118240  1
  O  O71  1  0.15211596  0.67572515  0.46706562  1
  O  O72  1  0.11853762  0.65588856  0.36276721  1
  O  O73  1  0.52540743  0.87187955  0.36946610  1
  O  O74  1  0.33667063  0.45833410  0.36658831  1
  O  O75  1  0.11136455  0.45423481  0.85824380  1
  O  O76  1  0.34235026  0.89364452  0.85872397  1
  O  O77  1  0.53969370  0.65764284  0.86652992  1
  O  O78  1  0.04084974  0.83126540  0.41977981  1
  O  O79  1  0.79380514  0.97365244  0.42111383  1
  O  O80  1  0.18105570  0.19735104  0.42233269  1
  O  O81  1  0.02994322  0.19536734  0.91221579  1
  O  O82  1  0.16684367  0.97702659  0.91244507  1
  O  O83  1  0.80968053  0.83054598  0.91345747  1
  O  O84  1  0.98405335  0.17895847  0.59144970  1
  O  O85  1  0.17029420  -0.00154132  0.59394971  1
  O  O86  1  0.81048937  0.81092315  0.59183534  1
  O  O87  1  0.00126668  0.84021015  0.09390762  1
  O  O88  1  0.81765658  -0.00068494  0.09016995  1
  O  O89  1  0.18399414  0.19518752  0.09187615  1
  O  O90  1  0.69727391  0.18498479  0.74233902  1
  O  O91  1  0.46050708  0.30206772  0.74290496  1
  O  O92  1  0.83872142  0.53554923  0.74426511  1
  O  O93  1  0.69337945  0.53517486  0.24551334  1
  O  O94  1  0.84367814  0.31659012  0.24849255  1
  O  O95  1  0.46553149  0.14759033  0.24598622  1
  O  O96  1  0.66152407  0.52226649  0.91945159  1
  O  O97  1  0.86727146  0.34111658  0.91884735  1
  O  O98  1  0.47469341  0.13626448  0.92030543  1
  O  O99  1  0.63870575  0.12810046  0.42202669  1
  O  O100  1  0.48556509  0.35040689  0.41963721  1
  O  O101  1  0.87162042  0.52136969  0.42225566  1
  O  O102  1  0.35111585  0.49699717  0.07250545  1
  O  O103  1  0.16417028  0.66827263  0.07159637  1
  O  O104  1  0.51949893  0.83968693  0.07340107  1
  O  O105  1  0.35541963  0.84023035  0.57885363  1
  O  O106  1  0.50921192  0.64932094  0.58168521  1
  O  O107  1  0.14017816  0.48458749  0.57962594  1
  O  O108  1  0.29492881  0.83780430  0.24861346  1
  O  O109  1  0.53898982  0.69041321  0.24675483  1
  O  O110  1  0.14874156  0.47092682  0.24632549  1
  O  O111  1  0.29591095  0.44731040  0.75246557  1
  O  O112  1  0.14253660  0.68268728  0.75343553  1
  O  O113  1  0.51608670  0.84747052  0.74701271  1
