# generated using pymatgen
data_Na3Zr3Sc(PO4)6
_symmetry_space_group_name_H-M   'P 1'
_cell_length_a   9.04341206
_cell_length_b   9.04155848
_cell_length_c   23.42745891
_cell_angle_alpha   89.97217515
_cell_angle_beta   90.01584635
_cell_angle_gamma   120.24975364
_symmetry_Int_Tables_number   1
_chemical_formula_structural   Na3Zr3Sc(PO4)6
_chemical_formula_sum   'Na9 Zr9 Sc3 P18 O72'
_cell_volume   1654.75190016
_cell_formula_units_Z   3
loop_
 _symmetry_equiv_pos_site_id
 _symmetry_equiv_pos_as_xyz
  1  'x, y, z'
loop_
 _atom_site_type_symbol
 _atom_site_label
 _atom_site_symmetry_multiplicity
 _atom_site_fract_x
 _atom_site_fract_y
 _atom_site_fract_z
 _atom_site_occupancy
  Na  Na0  1  0.36587199  0.36194606  0.24821320  1
  Na  Na1  1  0.63654430  0.63280354  0.74868026  1
  Na  Na2  1  0.96987538  0.29934347  0.41500470  1
  Na  Na3  1  0.00042136  0.99304709  0.49861269  1
  Na  Na4  1  0.99990729  0.99990773  0.00108868  1
  Na  Na5  1  0.66701672  0.32639701  0.83291133  1
  Na  Na6  1  0.66734166  0.33357412  0.32982877  1
  Na  Na7  1  0.33273447  0.67341783  0.16511728  1
  Na  Na8  1  0.32645313  0.66701516  0.66559472  1
  Zr  Zr9  1  0.00137203  0.00192038  0.85364653  1
  Zr  Zr10  1  0.00201117  0.00243094  0.64612423  1
  Zr  Zr11  1  0.99784776  0.99776758  0.14660657  1
  Zr  Zr12  1  0.66632947  0.33371072  0.98166708  1
  Zr  Zr13  1  0.66087185  0.33420461  0.48199917  1
  Zr  Zr14  1  0.33375182  0.66645670  0.02066961  1
  Zr  Zr15  1  0.33485721  0.66833469  0.52024884  1
  Zr  Zr16  1  0.33497124  0.67418847  0.31327135  1
  Zr  Zr17  1  0.32774941  0.66731559  0.81506419  1
  Sc  Sc18  1  0.99854106  0.99249429  0.35059263  1
  Sc  Sc19  1  0.66767432  0.32726532  0.68454805  1
  Sc  Sc20  1  0.67319292  0.33274382  0.18435087  1
  P  P21  1  0.29132762  0.00232900  0.25006156  1
  P  P22  1  0.70995097  0.70658841  0.25038523  1
  P  P23  1  0.99601116  0.28850742  0.25163306  1
  P  P24  1  0.29368936  0.29146775  0.74985822  1
  P  P25  1  -0.00124135  0.70833774  0.74945550  1
  P  P26  1  0.71022218  0.00315488  0.75005742  1
  P  P27  1  0.95622572  0.33347482  0.58331978  1
  P  P28  1  0.37631906  0.04266929  0.58442607  1
  P  P29  1  0.66622089  0.62335614  0.58530819  1
  P  P30  1  0.95679585  0.62314930  0.08392937  1
  P  P31  1  0.66681529  0.04420705  0.08403976  1
  P  P32  1  0.37718799  0.33354371  0.08497516  1
  P  P33  1  0.62358150  0.66573704  0.91616080  1
  P  P34  1  0.04126803  0.37547192  0.91732166  1
  P  P35  1  0.33364706  0.95793121  0.91718103  1
  P  P36  1  0.62776214  0.95898458  0.41701551  1
  P  P37  1  0.33227478  0.37450793  0.41567541  1
  P  P38  1  0.04288777  0.67005015  0.41708277  1
  O  O39  1  0.20776420  0.03162967  0.30310065  1
  O  O40  1  0.81906747  0.79202650  0.30375339  1
  O  O41  1  0.97427354  0.18395875  0.30648375  1
  O  O42  1  0.20553838  0.17977680  0.80330803  1
  O  O43  1  0.97046020  0.79457099  0.80274433  1
  O  O44  1  0.82144998  0.02526959  0.80357940  1
  O  O45  1  0.79314894  0.96814610  0.69716523  1
  O  O46  1  0.17938249  0.20685819  0.69667149  1
  O  O47  1  0.02719976  0.82231987  0.69627525  1
  O  O48  1  0.79272247  0.82013710  0.19668602  1
  O  O49  1  0.03139946  0.20521469  0.19861632  1
  O  O50  1  0.17790851  0.97278378  0.19632976  1
  O  O51  1  0.87238874  0.36083180  0.63606817  1
  O  O52  1  0.48669317  0.12561326  0.63730588  1
  O  O53  1  0.63899883  0.51699700  0.63953714  1
  O  O54  1  0.87462069  0.51323379  0.13707262  1
  O  O55  1  0.63855706  0.12552772  0.13717136  1
  O  O56  1  0.48293272  0.36093546  0.13940823  1
  O  O57  1  0.46272912  0.30735730  0.03100641  1
  O  O58  1  0.84611881  0.53935787  0.02960662  1
  O  O59  1  0.69370730  0.15465180  0.02968081  1
  O  O60  1  0.45999031  0.15342523  0.52998717  1
  O  O61  1  0.69250545  0.53768865  0.53127223  1
  O  O62  1  0.84905429  0.30669800  0.52781925  1
  O  O63  1  0.53685481  0.69259316  0.96889518  1
  O  O64  1  0.15415764  0.46089579  0.97015272  1
  O  O65  1  0.30637294  0.84526254  0.97005627  1
  O  O66  1  0.53904940  0.84671176  0.47015053  1
  O  O67  1  0.30472172  0.46315888  0.46846486  1
  O  O68  1  0.15465845  0.69189984  0.47037031  1
  O  O69  1  0.12609037  0.63487546  0.36406127  1
  O  O70  1  0.51316765  0.87407814  0.36368539  1
  O  O71  1  0.36046860  0.48525444  0.36129624  1
  O  O72  1  0.12708027  0.48710145  0.86327461  1
  O  O73  1  0.35980249  0.87274625  0.86315888  1
  O  O74  1  0.51561503  0.64027708  0.86107953  1
  O  O75  1  0.02274937  0.82731501  0.41062971  1
  O  O76  1  0.80912843  0.98437624  0.41089868  1
  O  O77  1  0.16751135  0.19782731  0.41038438  1
  O  O78  1  0.02345051  0.19605402  0.90992843  1
  O  O79  1  0.17237713  0.97593570  0.90961172  1
  O  O80  1  0.80431319  0.82774608  0.90955652  1
  O  O81  1  0.97576291  0.17209092  0.58975193  1
  O  O82  1  0.19539355  0.02327496  0.58974185  1
  O  O83  1  0.82829852  0.80514892  0.58997352  1
  O  O84  1  0.97661070  0.80456802  0.08962183  1
  O  O85  1  0.82815850  0.02421560  0.08993103  1
  O  O86  1  0.19465540  0.17173031  0.08991293  1
  O  O87  1  0.68957155  0.16051948  0.74383430  1
  O  O88  1  0.47557220  0.31759497  0.74388456  1
  O  O89  1  0.83440602  0.53174569  0.74352683  1
  O  O90  1  0.68088840  0.52330304  0.24381889  1
  O  O91  1  0.83982593  0.31150961  0.24399915  1
  O  O92  1  0.46922546  0.16580172  0.24333344  1
  O  O93  1  0.64211669  0.50488692  0.92293440  1
  O  O94  1  0.86175259  0.35668174  0.92313972  1
  O  O95  1  0.49497951  0.13810249  0.92308127  1
  O  O96  1  0.64899581  0.14153401  0.42355756  1
  O  O97  1  0.49400284  0.35728697  0.42321498  1
  O  O98  1  0.86525152  0.50067119  0.42376622  1
  O  O99  1  0.35672324  0.49382002  0.07620921  1
  O  O100  1  0.13803560  0.64421804  0.07603750  1
  O  O101  1  0.50632865  0.86223034  0.07610596  1
  O  O102  1  0.35569139  0.86180199  0.57648149  1
  O  O103  1  0.50585973  0.64327646  0.57637719  1
  O  O104  1  0.13847720  0.49410862  0.57606692  1
  O  O105  1  0.30961276  0.84005093  0.25660943  1
  O  O106  1  0.52524585  0.68453876  0.25670382  1
  O  O107  1  0.16619226  0.46891615  0.25719001  1
  O  O108  1  0.31545786  0.47466621  0.75660360  1
  O  O109  1  0.16047931  0.69026639  0.75639394  1
  O  O110  1  0.53199727  0.83393400  0.75683156  1
