# generated using pymatgen
data_Na8La2Si5Sn2SO24
_symmetry_space_group_name_H-M   'P 1'
_cell_length_a   9.52145695
_cell_length_b   9.50967023
_cell_length_c   23.07498505
_cell_angle_alpha   90.40423569
_cell_angle_beta   89.31964940
_cell_angle_gamma   120.22300456
_symmetry_Int_Tables_number   1
_chemical_formula_structural   Na8La2Si5Sn2SO24
_chemical_formula_sum   'Na24 La6 Si15 Sn6 S3 O72'
_cell_volume   1805.21799578
_cell_formula_units_Z   3
loop_
 _symmetry_equiv_pos_site_id
 _symmetry_equiv_pos_as_xyz
  1  'x, y, z'
loop_
 _atom_site_type_symbol
 _atom_site_label
 _atom_site_symmetry_multiplicity
 _atom_site_fract_x
 _atom_site_fract_y
 _atom_site_fract_z
 _atom_site_occupancy
  Na  Na0  1  0.64253553  0.00228370  0.25355405  1
  Na  Na1  1  0.35685212  0.36130953  0.24711044  1
  Na  Na2  1  0.00028203  0.63907086  0.24939479  1
  Na  Na3  1  0.63752465  0.63449755  0.74325793  1
  Na  Na4  1  0.99341123  0.36170688  0.74716648  1
  Na  Na5  1  0.36901763  0.00730392  0.74734436  1
  Na  Na6  1  0.29841603  0.33606485  0.59105349  1
  Na  Na7  1  0.03850222  0.70479107  0.58518682  1
  Na  Na8  1  0.66683796  0.96026212  0.58507298  1
  Na  Na9  1  0.28123257  0.96438139  0.08200364  1
  Na  Na10  1  0.66852038  0.68549814  0.09274160  1
  Na  Na11  1  0.04933786  0.34004541  0.09212974  1
  Na  Na12  1  0.98078811  0.66971276  0.91272645  1
  Na  Na13  1  0.70555361  0.04839434  0.90062866  1
  Na  Na14  1  0.31699924  0.27996095  0.91657776  1
  Na  Na15  1  0.95415258  0.29745841  0.41145502  1
  Na  Na16  1  0.33151514  0.02146786  0.41668895  1
  Na  Na17  1  0.71102887  0.67642514  0.41974373  1
  Na  Na18  1  0.98728967  0.98600497  0.50445543  1
  Na  Na19  1  0.02962804  0.01202407  0.99911952  1
  Na  Na20  1  0.66815159  0.32307235  0.82818023  1
  Na  Na21  1  0.67263933  0.33152725  0.33179743  1
  Na  Na22  1  0.32229925  0.65346991  0.17091637  1
  Na  Na23  1  0.33425018  0.66596811  0.66682556  1
  La  La24  1  0.99675422  0.99666524  0.34257298  1
  La  La25  1  0.00765983  0.00478983  0.83791119  1
  La  La26  1  0.00426699  0.99928718  0.16069237  1
  La  La27  1  0.66656250  0.33172450  0.98068055  1
  La  La28  1  0.31699397  0.65727168  0.01772279  1
  La  La29  1  0.33435676  0.67315115  0.52131910  1
  Si  Si30  1  0.32341715  0.00456848  0.24981545  1
  Si  Si31  1  0.67392904  0.68155953  0.25194935  1
  Si  Si32  1  0.00013190  0.32292724  0.25048906  1
  Si  Si33  1  0.30929363  0.30928723  0.74743076  1
  Si  Si34  1  0.99501696  0.69269625  0.74695693  1
  Si  Si35  1  0.69260931  0.99905730  0.74795818  1
  Si  Si36  1  0.95445919  0.31807287  0.58729336  1
  Si  Si37  1  0.37284658  0.05404635  0.58590025  1
  Si  Si38  1  0.67931622  0.62628466  0.58532360  1
  Si  Si39  1  0.96196009  0.63312941  0.08533049  1
  Si  Si40  1  0.36833932  0.33316019  0.08564043  1
  Si  Si41  1  0.03468432  0.36550948  0.91109242  1
  Si  Si42  1  0.33376423  0.96288670  0.91292306  1
  Si  Si43  1  0.63268629  0.97520856  0.41880953  1
  Si  Si44  1  0.02441208  0.65825486  0.41986243  1
  Sn  Sn45  1  0.99949464  0.99939672  0.64984931  1
  Sn  Sn46  1  0.66777494  0.33339224  0.68331023  1
  Sn  Sn47  1  0.66659778  0.34399040  0.18642279  1
  Sn  Sn48  1  0.68023550  0.33011620  0.48816309  1
  Sn  Sn49  1  0.32850362  0.67966306  0.31755694  1
  Sn  Sn50  1  0.32078513  0.66735873  0.80818178  1
  S  S51  1  0.66948493  0.03635763  0.08763641  1
  S  S52  1  0.62722670  0.66765595  0.91174282  1
  S  S53  1  0.34379197  0.37042943  0.41600615  1
  O  O54  1  0.25235840  0.05276341  0.30619654  1
  O  O55  1  0.79724521  0.75781844  0.30631380  1
  O  O56  1  0.95618633  0.20308667  0.30609577  1
  O  O57  1  0.25252386  0.20865485  0.80731437  1
  O  O58  1  0.95388067  0.75048467  0.80746363  1
  O  O59  1  0.79387451  0.03990463  0.80721576  1
  O  O60  1  0.78796617  0.96141298  0.69406843  1
  O  O61  1  0.17438497  0.21286243  0.69474201  1
  O  O62  1  0.03202868  0.82591292  0.69381197  1
  O  O63  1  0.74213043  0.79662731  0.19456498  1
  O  O64  1  0.04379180  0.25195319  0.19282876  1
  O  O65  1  0.20528039  0.95867313  0.19401529  1
  O  O66  1  0.86388162  0.34692862  0.64229930  1
  O  O67  1  0.48603683  0.14012521  0.64205701  1
  O  O68  1  0.65605558  0.51497691  0.64171200  1
  O  O69  1  0.85903408  0.51414481  0.14123983  1
  O  O70  1  0.66119322  0.12998340  0.13851179  1
  O  O71  1  0.48071486  0.33643156  0.14123609  1
  O  O72  1  0.44390468  0.31470987  0.02411418  1
  O  O73  1  0.87259583  0.55274386  0.02432000  1
  O  O74  1  0.67992545  0.12098859  0.03246862  1
  O  O75  1  0.45872697  0.16516662  0.52597290  1
  O  O76  1  0.70354093  0.54017788  0.52489865  1
  O  O77  1  0.84830500  0.28995842  0.52667051  1
  O  O78  1  0.55247542  0.67682125  0.96753945  1
  O  O79  1  0.13065255  0.44020633  0.97185922  1
  O  O80  1  0.32857960  0.87648552  0.97469758  1
  O  O81  1  0.56341146  0.86584131  0.47626638  1
  O  O82  1  0.32228275  0.44209888  0.47010844  1
  O  O83  1  0.12719738  0.68494510  0.47777078  1
  O  O84  1  0.11916384  0.63233109  0.36236829  1
  O  O85  1  0.51125503  0.87987096  0.36208540  1
  O  O86  1  0.35405941  0.46999288  0.36449156  1
  O  O87  1  0.14202139  0.48296547  0.85497193  1
  O  O88  1  0.35036493  0.85982084  0.85635206  1
  O  O89  1  0.52728953  0.66051651  0.86105881  1
  O  O90  1  0.00310731  0.81771877  0.41374187  1
  O  O91  1  0.81857825  0.01080421  0.41169744  1
  O  O92  1  0.20116449  0.20257179  0.41244937  1
  O  O93  1  0.00730578  0.18132260  0.91092415  1
  O  O94  1  0.16593009  0.97143033  0.91274153  1
  O  O95  1  0.79133087  0.81365209  0.91000982  1
  O  O96  1  0.96170614  0.14636166  0.59080022  1
  O  O97  1  0.19130971  0.04168099  0.58971108  1
  O  O98  1  0.84952561  0.80888711  0.58855960  1
  O  O99  1  0.97256492  0.81074828  0.08760157  1
  O  O100  1  0.81642237  0.02126803  0.08932382  1
  O  O101  1  0.18341221  0.17475816  0.08747311  1
  O  O102  1  0.66582188  0.15686351  0.73948441  1
  O  O103  1  0.49304808  0.33519937  0.73835342  1
  O  O104  1  0.83846612  0.50700203  0.73902314  1
  O  O105  1  0.65109058  0.49741867  0.24536155  1
  O  O106  1  0.83819599  0.34389757  0.24281147  1
  O  O107  1  0.51065218  0.15867342  0.24026931  1
  O  O108  1  0.63870218  0.51734259  0.90967932  1
  O  O109  1  0.86074852  0.36183884  0.90752107  1
  O  O110  1  0.49732806  0.14363627  0.90710685  1
  O  O111  1  0.63162470  0.15209816  0.42262926  1
  O  O112  1  0.49829893  0.36451599  0.41714275  1
  O  O113  1  0.84235620  0.48486767  0.42171635  1
  O  O114  1  0.36769962  0.50551319  0.09122409  1
  O  O115  1  0.14253746  0.65238572  0.09176578  1
  O  O116  1  0.52113172  0.87322760  0.08934640  1
  O  O117  1  0.34838852  0.87182968  0.58541438  1
  O  O118  1  0.51958411  0.64690337  0.58462424  1
  O  O119  1  0.13769531  0.47372671  0.58613459  1
  O  O120  1  0.33867071  0.83966706  0.25750850  1
  O  O121  1  0.49127632  0.65706129  0.26446366  1
  O  O122  1  0.16474650  0.50409140  0.26013677  1
  O  O123  1  0.32535778  0.49290162  0.75163226  1
  O  O124  1  0.16494712  0.68125605  0.74827772  1
  O  O125  1  0.51083229  0.82789109  0.75196181  1
