# generated using pymatgen
data_Na6Nb4Zn2Si3(PO6)6
_symmetry_space_group_name_H-M   'P 1'
_cell_length_a   8.94573352
_cell_length_b   8.94573323
_cell_length_c   22.65767203
_cell_angle_alpha   90.11084974
_cell_angle_beta   89.88915027
_cell_angle_gamma   120.46156593
_symmetry_Int_Tables_number   1
_chemical_formula_structural   Na6Nb4Zn2Si3(PO6)6
_chemical_formula_sum   'Na12 Nb8 Zn4 Si6 P12 O72'
_cell_volume   1562.92438732
_cell_formula_units_Z   2
loop_
 _symmetry_equiv_pos_site_id
 _symmetry_equiv_pos_as_xyz
  1  'x, y, z'
loop_
 _atom_site_type_symbol
 _atom_site_label
 _atom_site_symmetry_multiplicity
 _atom_site_fract_x
 _atom_site_fract_y
 _atom_site_fract_z
 _atom_site_occupancy
  Na  Na0  1  0.36919662  0.35666741  0.24610279  1
  Na  Na1  1  0.98470050  0.62698856  0.24444138  1
  Na  Na2  1  0.64333259  0.63080338  0.74610279  1
  Na  Na3  1  0.37301144  0.01529950  0.74444138  1
  Na  Na4  1  0.71005397  0.03183074  0.91373082  1
  Na  Na5  1  0.96816926  0.28994603  0.41373082  1
  Na  Na6  1  0.00323173  0.99398266  0.49381345  1
  Na  Na7  1  0.00601734  0.99676827  0.99381345  1
  Na  Na8  1  0.67655377  0.34197873  0.82856884  1
  Na  Na9  1  0.65802127  0.32344623  0.32856884  1
  Na  Na10  1  0.34013618  0.67969684  0.16343092  1
  Na  Na11  1  0.32030316  0.65986382  0.66343092  1
  Nb  Nb12  1  0.00409989  0.00578938  0.64322179  1
  Nb  Nb13  1  0.99421062  0.99590011  0.14322179  1
  Nb  Nb14  1  0.66972494  0.34213293  0.98159096  1
  Nb  Nb15  1  0.65786707  0.33027506  0.48159096  1
  Nb  Nb16  1  0.33886823  0.67145386  0.02193875  1
  Nb  Nb17  1  0.32854614  0.66113177  0.52193875  1
  Nb  Nb18  1  0.34044274  0.67009144  0.31326066  1
  Nb  Nb19  1  0.32990856  0.65955726  0.81326066  1
  Zn  Zn20  1  0.00669969  0.99978249  0.35238658  1
  Zn  Zn21  1  0.00021751  0.99330031  0.85238658  1
  Zn  Zn22  1  0.67597802  0.33061800  0.68021113  1
  Zn  Zn23  1  0.66938200  0.32402198  0.18021113  1
  Si  Si24  1  0.95073872  0.33220425  0.58442355  1
  Si  Si25  1  0.37767973  0.04114438  0.58754860  1
  Si  Si26  1  0.95885562  0.62232027  0.08754860  1
  Si  Si27  1  0.66779575  0.04926128  0.08442355  1
  Si  Si28  1  0.62834310  0.66543945  0.91636274  1
  Si  Si29  1  0.33456055  0.37165690  0.41636274  1
  P  P30  1  0.29147537  0.00359798  0.25105791  1
  P  P31  1  0.71258601  0.71274570  0.25199303  1
  P  P32  1  0.99496060  0.28724444  0.25299608  1
  P  P33  1  0.28725430  0.28741399  0.75199303  1
  P  P34  1  0.99640202  0.70852463  0.75105791  1
  P  P35  1  0.71275556  0.00503940  0.75299608  1
  P  P36  1  0.66522452  0.62337942  0.58550842  1
  P  P37  1  0.37662058  0.33477548  0.08550842  1
  P  P38  1  0.04366010  0.37679476  0.91818062  1
  P  P39  1  0.33026788  0.95553543  0.91690044  1
  P  P40  1  0.62320524  0.95633990  0.41818062  1
  P  P41  1  0.04446457  0.66973212  0.41690044  1
  O  O42  1  0.20949569  0.02959651  0.30562228  1
  O  O43  1  0.82407575  0.79502153  0.30572652  1
  O  O44  1  0.97772715  0.18958889  0.30953093  1
  O  O45  1  0.20497847  0.17592425  0.80572652  1
  O  O46  1  0.97040349  0.79050431  0.80562228  1
  O  O47  1  0.81041111  0.02227285  0.80953093  1
  O  O48  1  0.79718967  0.96778717  0.69828108  1
  O  O49  1  0.17233652  0.20012607  0.69538454  1
  O  O50  1  0.03281840  0.83028718  0.69570482  1
  O  O51  1  0.79987393  0.82766348  0.19538454  1
  O  O52  1  0.03221283  0.20281033  0.19828108  1
  O  O53  1  0.16971282  0.96718160  0.19570482  1
  O  O54  1  0.88664537  0.37972181  0.64230800  1
  O  O55  1  0.47891492  0.11166969  0.64796059  1
  O  O56  1  0.62762897  0.52104973  0.64251421  1
  O  O57  1  0.88833031  0.52108508  0.14796059  1
  O  O58  1  0.62027819  0.11335463  0.14230800  1
  O  O59  1  0.47895027  0.37237103  0.14251421  1
  O  O60  1  0.46775163  0.30604127  0.03064927  1
  O  O61  1  0.83133705  0.52891030  0.02836870  1
  O  O62  1  0.69520276  0.16240068  0.02292868  1
  O  O63  1  0.47108970  0.16866295  0.52836870  1
  O  O64  1  0.69395873  0.53224837  0.53064927  1
  O  O65  1  0.83759932  0.30479724  0.52292868  1
  O  O66  1  0.51886261  0.68484956  0.97087788  1
  O  O67  1  0.15537746  0.47330371  0.97120377  1
  O  O68  1  0.31369464  0.84039523  0.97051175  1
  O  O69  1  0.52669629  0.84462254  0.47120377  1
  O  O70  1  0.31515044  0.48113739  0.47087788  1
  O  O71  1  0.15960477  0.68630536  0.47051175  1
  O  O72  1  0.13378518  0.63913175  0.36071422  1
  O  O73  1  0.50531068  0.86681823  0.36196908  1
  O  O74  1  0.36290979  0.50033610  0.35750471  1
  O  O75  1  0.13318177  0.49468932  0.86196908  1
  O  O76  1  0.36086825  0.86621482  0.86071422  1
  O  O77  1  0.49966390  0.63709021  0.85750471  1
  O  O78  1  0.02483406  0.82567281  0.41320766  1
  O  O79  1  0.80230270  0.97987662  0.41292431  1
  O  O80  1  0.15760153  0.19070180  0.41395540  1
  O  O81  1  0.02012338  0.19769730  0.91292431  1
  O  O82  1  0.17432719  0.97516594  0.91320766  1
  O  O83  1  0.80929820  0.84239847  0.91395540  1
  O  O84  1  0.97244739  0.15834617  0.59117679  1
  O  O85  1  0.18196265  0.01985713  0.59080684  1
  O  O86  1  0.83089122  0.80591578  0.58987877  1
  O  O87  1  0.98014287  0.81803735  0.09080684  1
  O  O88  1  0.84165383  0.02755261  0.09117679  1
  O  O89  1  0.19408422  0.16910878  0.08987877  1
  O  O90  1  0.67387763  0.15167408  0.74759723  1
  O  O91  1  0.47234980  0.32223202  0.74507871  1
  O  O92  1  0.83601454  0.52883550  0.74406382  1
  O  O93  1  0.67776798  0.52765020  0.24507871  1
  O  O94  1  0.84832592  0.32612237  0.24759723  1
  O  O95  1  0.47116450  0.16398546  0.24406382  1
  O  O96  1  0.63326825  0.48458805  0.92219304  1
  O  O97  1  0.86085666  0.36160868  0.92209223  1
  O  O98  1  0.50575297  0.13069764  0.92208415  1
  O  O99  1  0.63839132  0.13914334  0.42209223  1
  O  O100  1  0.51541195  0.36673175  0.42219304  1
  O  O101  1  0.86930236  0.49424703  0.42208415  1
  O  O102  1  0.34994303  0.48977958  0.07258143  1
  O  O103  1  0.14896478  0.64782421  0.07243970  1
  O  O104  1  0.50447232  0.85003017  0.07267670  1
  O  O105  1  0.35217579  0.85103522  0.57243970  1
  O  O106  1  0.51022042  0.65005697  0.57258143  1
  O  O107  1  0.14996983  0.49552768  0.57267670  1
  O  O108  1  0.29938374  0.82969965  0.25647824  1
  O  O109  1  0.52702048  0.69800541  0.25562499  1
  O  O110  1  0.17273759  0.47692232  0.25637650  1
  O  O111  1  0.30199459  0.47297952  0.75562499  1
  O  O112  1  0.17030035  0.70061626  0.75647824  1
  O  O113  1  0.52307768  0.82726241  0.75637650  1
