# generated using pymatgen
data_Na14Ca2Zr6Si9(SO16)3
_symmetry_space_group_name_H-M   'P 1'
_cell_length_a   18.62846659
_cell_length_b   9.33781058
_cell_length_c   22.98754138
_cell_angle_alpha   90.05397339
_cell_angle_beta   90.02287711
_cell_angle_gamma   120.05992029
_symmetry_Int_Tables_number   1
_chemical_formula_structural   Na14Ca2Zr6Si9(SO16)3
_chemical_formula_sum   'Na42 Ca6 Zr18 Si27 S9 O144'
_cell_volume   3460.84674226
_cell_formula_units_Z   3
loop_
 _symmetry_equiv_pos_site_id
 _symmetry_equiv_pos_as_xyz
  1  'x, y, z'
loop_
 _atom_site_type_symbol
 _atom_site_label
 _atom_site_symmetry_multiplicity
 _atom_site_fract_x
 _atom_site_fract_y
 _atom_site_fract_z
 _atom_site_occupancy
  Na  Na0  1  0.31140966  0.00385445  0.24409578  1
  Na  Na1  1  0.81723244  0.01714019  0.24653939  1
  Na  Na2  1  0.18829802  0.36615002  0.25379376  1
  Na  Na3  1  0.69587738  0.36857455  0.24922442  1
  Na  Na4  1  0.99059141  0.61796079  0.25596711  1
  Na  Na5  1  0.49536161  0.63760795  0.24702288  1
  Na  Na6  1  0.31678213  0.61701462  0.74036864  1
  Na  Na7  1  0.81199729  0.62130440  0.73959045  1
  Na  Na8  1  0.99380347  0.34494076  0.74080199  1
  Na  Na9  1  0.49261661  0.36856037  0.75177247  1
  Na  Na10  1  0.19573646  0.02676388  0.74417349  1
  Na  Na11  1  0.69039542  0.00929043  0.74934441  1
  Na  Na12  1  0.15714553  0.34079414  0.58577446  1
  Na  Na13  1  0.66062616  0.35699783  0.57664831  1
  Na  Na14  1  0.01042611  0.69055620  0.57854357  1
  Na  Na15  1  0.51271772  0.69290185  0.56973707  1
  Na  Na16  1  0.32719788  0.96475903  0.58373967  1
  Na  Na17  1  0.83153305  0.95486982  0.57133458  1
  Na  Na18  1  0.16026317  0.96497882  0.08409281  1
  Na  Na19  1  0.65907972  0.97372709  0.08934947  1
  Na  Na20  1  0.33378135  0.70557549  0.08501492  1
  Na  Na21  1  0.82652178  0.68915676  0.08787709  1
  Na  Na22  1  0.01143765  0.32852777  0.07498729  1
  Na  Na23  1  0.51388816  0.33488265  0.08371635  1
  Na  Na24  1  0.98524171  0.67081871  0.91902091  1
  Na  Na25  1  0.34961336  0.03783372  0.91200361  1
  Na  Na26  1  0.16085701  0.29138759  0.91431916  1
  Na  Na27  1  0.48880850  0.30485328  0.41893755  1
  Na  Na28  1  0.66849149  0.03170320  0.41344603  1
  Na  Na29  1  0.84776316  0.67353126  0.41934637  1
  Na  Na30  1  0.99808179  0.99612704  0.49614819  1
  Na  Na31  1  0.49074832  0.97929188  0.49261782  1
  Na  Na32  1  0.98727769  -0.00043538  0.99431774  1
  Na  Na33  1  0.50922030  0.01936074  0.00336910  1
  Na  Na34  1  0.33754679  0.33872405  0.82458198  1
  Na  Na35  1  0.82626693  0.31791712  0.83087277  1
  Na  Na36  1  0.32651320  0.33453763  0.33202623  1
  Na  Na37  1  0.83680773  0.32875250  0.32925455  1
  Na  Na38  1  0.17478026  0.68175881  0.17119937  1
  Na  Na39  1  0.67154910  0.68050344  0.16857561  1
  Na  Na40  1  0.16981584  0.66041746  0.66026865  1
  Na  Na41  1  0.67737019  0.66917706  0.66571624  1
  Ca  Ca42  1  0.32918119  0.33392794  0.68406545  1
  Ca  Ca43  1  0.83644716  0.33369191  0.68141353  1
  Ca  Ca44  1  0.33614192  0.33667487  0.18315651  1
  Ca  Ca45  1  0.82869059  0.32350769  0.18529807  1
  Ca  Ca46  1  0.16507502  0.67102352  0.01208719  1
  Ca  Ca47  1  0.66923900  0.66548563  0.50984417  1
  Zr  Zr48  1  0.99888046  0.99777086  0.35140774  1
  Zr  Zr49  1  0.49597708  0.98225138  0.35520651  1
  Zr  Zr50  1  0.99480995  0.00758795  0.85513129  1
  Zr  Zr51  1  0.50437797  0.00951449  0.84987957  1
  Zr  Zr52  1  0.99762352  0.01112030  0.64390677  1
  Zr  Zr53  1  0.49611730  0.98819424  0.65346205  1
  Zr  Zr54  1  0.99575712  0.00313122  0.15443113  1
  Zr  Zr55  1  0.49919751  0.98692513  0.14586405  1
  Zr  Zr56  1  0.34232093  0.32808293  0.98116654  1
  Zr  Zr57  1  0.82835324  0.32110138  0.97975693  1
  Zr  Zr58  1  0.32840576  0.33544053  0.47992553  1
  Zr  Zr59  1  0.84287858  0.34937790  0.47741457  1
  Zr  Zr60  1  0.66805794  0.65660188  0.01644242  1
  Zr  Zr61  1  0.16810736  0.67909736  0.51576818  1
  Zr  Zr62  1  0.16647140  0.68159828  0.31337059  1
  Zr  Zr63  1  0.67141174  0.67787489  0.32084948  1
  Zr  Zr64  1  0.16522211  0.66840675  0.81660053  1
  Zr  Zr65  1  0.66635422  0.65134287  0.81308856  1
  Si  Si66  1  0.14629904  0.00099949  0.24873371  1
  Si  Si67  1  0.64443305  0.99053903  0.25208687  1
  Si  Si68  1  0.35032875  0.70686050  0.24866197  1
  Si  Si69  1  0.84884227  0.70393401  0.25251196  1
  Si  Si70  1  0.00456745  0.30135187  0.25186576  1
  Si  Si71  1  0.14425151  0.29502641  0.75290055  1
  Si  Si72  1  0.64764527  0.29441009  0.74749909  1
  Si  Si73  1  0.50373656  0.70861814  0.75329954  1
  Si  Si74  1  0.35066452  0.99426251  0.75358402  1
  Si  Si75  1  0.85020067  0.99391456  0.74923443  1
  Si  Si76  1  0.98473012  0.33959284  0.58448835  1
  Si  Si77  1  0.18505200  0.03577586  0.58645856  1
  Si  Si78  1  0.33550046  0.63733362  0.58416590  1
  Si  Si79  1  0.83136955  0.63186992  0.58710177  1
  Si  Si80  1  0.48408660  0.63139045  0.08351412  1
  Si  Si81  1  0.33259642  0.02749984  0.08653706  1
  Si  Si82  1  0.83602903  0.03365535  0.08329280  1
  Si  Si83  1  0.68512589  0.33365415  0.08565185  1
  Si  Si84  1  0.81424300  0.65994354  0.91628027  1
  Si  Si85  1  0.01547138  0.37027437  0.92007942  1
  Si  Si86  1  0.51977002  0.36556544  0.91577870  1
  Si  Si87  1  0.16658507  0.97098498  0.91812174  1
  Si  Si88  1  0.31483437  0.96877109  0.41643446  1
  Si  Si89  1  0.82117615  0.97594087  0.41988998  1
  Si  Si90  1  0.66524947  0.36409935  0.41794824  1
  Si  Si91  1  0.02073183  0.67512828  0.41546964  1
  Si  Si92  1  0.51510342  0.65946043  0.41968729  1
  S  S93  1  0.50311479  0.29210088  0.25117632  1
  S  S94  1  0.00311190  0.71333088  0.75200423  1
  S  S95  1  0.48094014  0.32955773  0.58419977  1
  S  S96  1  0.68117640  0.03499704  0.58359636  1
  S  S97  1  0.98041615  0.63193351  0.08344436  1
  S  S98  1  0.18303163  0.32867369  0.08182091  1
  S  S99  1  0.31662275  0.66490419  0.91628136  1
  S  S100  1  0.66564159  0.95764382  0.91626412  1
  S  S101  1  0.16699110  0.37570580  0.41605381  1
  O  O102  1  0.09431414  0.01556654  0.30276822  1
  O  O103  1  0.59405617  0.00812316  0.30691583  1
  O  O104  1  0.41091559  0.81619705  0.30149452  1
  O  O105  1  0.90695839  0.80421658  0.30835004  1
  O  O106  1  0.49508806  0.19323228  0.30321985  1
  O  O107  1  0.99433499  0.17538035  0.30381262  1
  O  O108  1  0.09547576  0.17910505  0.80878289  1
  O  O109  1  0.59500670  0.17784923  0.80324962  1
  O  O110  1  0.49332393  0.81242534  0.80680585  1
  O  O111  1  0.99587189  0.79558104  0.80462245  1
  O  O112  1  0.40668625  0.00764891  0.81108066  1
  O  O113  1  0.91035212  0.00642443  0.80289965  1
  O  O114  1  0.39672218  0.96803582  0.69557134  1
  O  O115  1  0.89466636  0.96970141  0.69051518  1
  O  O116  1  0.08706570  0.20562220  0.69424063  1
  O  O117  1  0.58954268  0.20420534  0.68922250  1
  O  O118  1  0.01317342  0.81157236  0.69900580  1
  O  O119  1  0.51555752  0.82261611  0.69363042  1
  O  O120  1  0.39355826  0.81652380  0.18837803  1
  O  O121  1  0.89544596  0.82301896  0.19363396  1
  O  O122  1  0.01654829  0.21332111  0.19066140  1
  O  O123  1  0.51036463  0.20902949  0.19749211  1
  O  O124  1  0.09055062  0.97581703  0.18808841  1
  O  O125  1  0.58842499  0.97185286  0.19251437  1
  O  O126  1  0.44173581  0.34428126  0.63744501  1
  O  O127  1  0.95877179  0.38361614  0.64607411  1
  O  O128  1  0.23824078  0.09038586  0.64582820  1
  O  O129  1  0.72850919  0.10901318  0.63739238  1
  O  O130  1  0.31659178  0.53869775  0.64482964  1
  O  O131  1  0.81892416  0.52956867  0.64639886  1
  O  O132  1  0.45563080  0.52851155  0.14342089  1
  O  O133  1  0.94096470  0.53742110  0.13610795  1
  O  O134  1  0.31439108  0.10512127  0.14316747  1
  O  O135  1  0.81648446  0.09556933  0.14351813  1
  O  O136  1  0.23167200  0.34987104  0.13473847  1
  O  O137  1  0.73930751  0.38598300  0.14428156  1
  O  O138  1  0.22613798  0.31377212  0.02898934  1
  O  O139  1  0.73563661  0.30443014  0.03141339  1
  O  O140  1  0.41601557  0.52827648  0.03062157  1
  O  O141  1  0.92942058  0.54824369  0.03029704  1
  O  O142  1  0.34315346  0.14894328  0.02791533  1
  O  O143  1  0.85173654  0.16657068  0.02984320  1
  O  O144  1  0.23617999  0.16771888  0.53310928  1
  O  O145  1  0.72364029  0.13678496  0.53187887  1
  O  O146  1  0.35135515  0.53524503  0.53136826  1
  O  O147  1  0.84215903  0.53236061  0.52991643  1
  O  O148  1  0.42861153  0.30885658  0.53174290  1
  O  O149  1  0.91733477  0.30916250  0.53280061  1
  O  O150  1  0.28152230  0.69194491  0.96977853  1
  O  O151  1  0.77023567  0.68789858  0.97313751  1
  O  O152  1  0.06822626  0.43216731  0.97940933  1
  O  O153  1  0.57392798  0.46112381  0.97297965  1
  O  O154  1  0.14878709  0.86742571  0.97735979  1
  O  O155  1  0.65795487  0.86195875  0.96908611  1
  O  O156  1  0.27110524  0.85307022  0.47356346  1
  O  O157  1  0.78693271  0.86651403  0.47783402  1
  O  O158  1  0.15980512  0.45735195  0.46917242  1
  O  O159  1  0.64092500  0.42280883  0.47694442  1
  O  O160  1  0.07474317  0.68498354  0.47290196  1
  O  O161  1  0.56604299  0.69897216  0.47963870  1
  O  O162  1  0.06463936  0.64904493  0.35741301  1
  O  O163  1  0.56447417  0.63455707  0.36342072  1
  O  O164  1  0.25807479  0.87456141  0.35872758  1
  O  O165  1  0.75703082  0.87597474  0.36333389  1
  O  O166  1  0.17699736  0.47536541  0.36323368  1
  O  O167  1  0.68150304  0.49287505  0.36251453  1
  O  O168  1  0.06829325  0.49804501  0.86491431  1
  O  O169  1  0.56332207  0.47495914  0.85718311  1
  O  O170  1  0.18442217  0.87468777  0.86300561  1
  O  O171  1  0.67485493  0.87793717  0.86329581  1
  O  O172  1  0.26218606  0.64534949  0.86499096  1
  O  O173  1  0.75734855  0.64094588  0.85877852  1
  O  O174  1  0.00778408  0.83611475  0.41373514  1
  O  O175  1  0.50527651  0.82371899  0.40962355  1
  O  O176  1  0.41032527  0.00320383  0.41116817  1
  O  O177  1  0.91214230  0.99383883  0.40947460  1
  O  O178  1  0.09380311  0.20862916  0.41273616  1
  O  O179  1  0.58534304  0.17942596  0.40516506  1
  O  O180  1  0.00568770  0.18693644  0.90959275  1
  O  O181  1  0.50266449  0.17311047  0.91465256  1
  O  O182  1  0.08459285  0.98801864  0.90656264  1
  O  O183  1  0.59153250  0.97844382  0.91313682  1
  O  O184  1  0.39999402  0.81207059  0.90923107  1
  O  O185  1  0.90983970  0.81701964  0.91120641  1
  O  O186  1  0.48778581  0.17480003  0.58592697  1
  O  O187  1  0.98923672  0.16516377  0.58530508  1
  O  O188  1  0.09310199  0.02068310  0.59011567  1
  O  O189  1  0.59762658  0.02706666  0.58603870  1
  O  O190  1  0.42158502  0.82584523  0.58545479  1
  O  O191  1  0.92100708  0.81282579  0.58806402  1
  O  O192  1  0.48779926  0.81349289  0.08506886  1
  O  O193  1  0.98806867  0.80037981  0.08489813  1
  O  O194  1  0.42280743  0.03188884  0.08685809  1
  O  O195  1  0.92235235  0.01778172  0.08468625  1
  O  O196  1  0.10016019  0.17087685  0.08391164  1
  O  O197  1  0.59300510  0.16466912  0.08858156  1
  O  O198  1  0.34512657  0.16107050  0.75244095  1
  O  O199  1  0.84263590  0.15938933  0.75025241  1
  O  O200  1  0.23640539  0.31874435  0.75273333  1
  O  O201  1  0.73859966  0.31352180  0.75038174  1
  O  O202  1  0.42334395  0.52590240  0.75023337  1
  O  O203  1  0.93040028  0.54525412  0.74996479  1
  O  O204  1  0.34259377  0.52607806  0.24972754  1
  O  O205  1  0.84417214  0.52712600  0.25095787  1
  O  O206  1  0.42886412  0.31096102  0.24889866  1
  O  O207  1  0.92447222  0.32398761  0.24909665  1
  O  O208  1  0.23833473  0.16187972  0.24990803  1
  O  O209  1  0.73608577  0.15207173  0.25239171  1
  O  O210  1  0.31917972  0.50871397  0.91947839  1
  O  O211  1  0.82473829  0.49548097  0.92418787  1
  O  O212  1  0.42499873  0.34269136  0.92074037  1
  O  O213  1  0.92607145  0.36588760  0.92145433  1
  O  O214  1  0.24969199  0.15983721  0.92202334  1
  O  O215  1  0.74150079  0.12616798  0.92010294  1
  O  O216  1  0.32418780  0.15305303  0.42487911  1
  O  O217  1  0.81897672  0.14952823  0.42261153  1
  O  O218  1  0.24351018  0.36080013  0.42029310  1
  O  O219  1  0.74981698  0.35029207  0.42319282  1
  O  O220  1  0.42454259  0.48582148  0.42202240  1
  O  O221  1  0.92643652  0.51178361  0.42020293  1
  O  O222  1  0.17049842  0.47244732  0.07771247  1
  O  O223  1  0.66897960  0.49106733  0.07367850  1
  O  O224  1  0.06410553  0.65049176  0.07952870  1
  O  O225  1  0.57864664  0.66974034  0.06946194  1
  O  O226  1  0.25558910  0.83830187  0.08001687  1
  O  O227  1  0.75476757  0.84924762  0.07128545  1
  O  O228  1  0.16982372  0.84707469  0.57412828  1
  O  O229  1  0.66694182  0.86452095  0.57984371  1
  O  O230  1  0.25448117  0.66014208  0.57260277  1
  O  O231  1  0.75181305  0.66041930  0.58311289  1
  O  O232  1  0.07998413  0.49039461  0.57103829  1
  O  O233  1  0.56406719  0.47745420  0.58000217  1
  O  O234  1  0.15084212  0.82706176  0.25199860  1
  O  O235  1  0.64662238  0.81451701  0.25486117  1
  O  O236  1  0.25908343  0.69395814  0.25372960  1
  O  O237  1  0.75689491  0.69138208  0.25447318  1
  O  O238  1  0.09240002  0.47891563  0.25624737  1
  O  O239  1  0.57986003  0.45803985  0.25370738  1
  O  O240  1  0.14930075  0.47905976  0.75826572  1
  O  O241  1  0.65129218  0.47571894  0.75160577  1
  O  O242  1  0.08116702  0.70097178  0.75582605  1
  O  O243  1  0.59096086  0.70535335  0.75786823  1
  O  O244  1  0.25890609  0.82195267  0.75691958  1
  O  O245  1  0.75855410  0.82513482  0.75485067  1
