# generated using pymatgen
data_Cs3Cu2I5
_symmetry_space_group_name_H-M   'P 1'
_cell_length_a   10.28605124
_cell_length_b   11.76382032
_cell_length_c   14.41229571
_cell_angle_alpha   90.00000000
_cell_angle_beta   90.00000000
_cell_angle_gamma   90.00000000
_symmetry_Int_Tables_number   1
_chemical_formula_structural   Cs3Cu2I5
_chemical_formula_sum   'Cs12 Cu8 I20'
_cell_volume   1743.93474467
_cell_formula_units_Z   4
loop_
 _symmetry_equiv_pos_site_id
 _symmetry_equiv_pos_as_xyz
  1  'x, y, z'
loop_
 _atom_site_type_symbol
 _atom_site_label
 _atom_site_symmetry_multiplicity
 _atom_site_fract_x
 _atom_site_fract_y
 _atom_site_fract_z
 _atom_site_occupancy
  Cs  Cs0  1  0.55277438  0.98812955  0.82410617  1
  Cs  Cs1  1  0.05277438  0.51187045  0.67589383  1
  Cs  Cs2  1  0.44722562  0.48812955  0.17589383  1
  Cs  Cs3  1  0.94722562  0.01187045  0.32410617  1
  Cs  Cs4  1  0.44722562  0.01187045  0.17589383  1
  Cs  Cs5  1  0.94722562  0.48812955  0.32410617  1
  Cs  Cs6  1  0.55277438  0.51187045  0.82410617  1
  Cs  Cs7  1  0.05277438  0.98812955  0.67589383  1
  Cs  Cs8  1  0.90747217  0.75000000  0.04905375  1
  Cs  Cs9  1  0.40747217  0.75000000  0.45094625  1
  Cs  Cs10  1  0.09252783  0.25000000  0.95094625  1
  Cs  Cs11  1  0.59252783  0.25000000  0.54905375  1
  Cu  Cu12  1  0.73924759  0.25000000  0.12619939  1
  Cu  Cu13  1  0.28636527  0.75000000  0.04369402  1
  Cu  Cu14  1  0.78636527  0.75000000  0.45630598  1
  Cu  Cu15  1  0.71363473  0.25000000  0.95630598  1
  Cu  Cu16  1  0.21363473  0.25000000  0.54369402  1
  Cu  Cu17  1  0.26075241  0.75000000  0.87380061  1
  Cu  Cu18  1  0.76075241  0.75000000  0.62619939  1
  Cu  Cu19  1  0.23924759  0.25000000  0.37380061  1
  I  I20  1  0.33952262  0.75000000  0.70900236  1
  I  I21  1  0.83952262  0.75000000  0.79099764  1
  I  I22  1  0.66047738  0.25000000  0.29099764  1
  I  I23  1  0.16047738  0.25000000  0.20900236  1
  I  I24  1  0.96577530  0.25000000  0.51282483  1
  I  I25  1  0.20432096  0.75000000  0.21183228  1
  I  I26  1  0.46577530  0.25000000  0.98717517  1
  I  I27  1  0.03422470  0.75000000  0.48717517  1
  I  I28  1  0.53422470  0.75000000  0.01282483  1
  I  I29  1  0.29567904  0.25000000  0.71183228  1
  I  I30  1  0.79567904  0.25000000  0.78816772  1
  I  I31  1  0.70432096  0.75000000  0.28816772  1
  I  I32  1  0.69235676  0.56231044  0.55041646  1
  I  I33  1  0.19235676  0.93768956  0.94958354  1
  I  I34  1  0.30764324  0.06231044  0.44958354  1
  I  I35  1  0.80764324  0.43768956  0.05041646  1
  I  I36  1  0.30764324  0.43768956  0.44958354  1
  I  I37  1  0.80764324  0.06231044  0.05041646  1
  I  I38  1  0.69235676  0.93768956  0.55041646  1
  I  I39  1  0.19235676  0.56231044  0.94958354  1
