# generated using pymatgen
data_As2(SO4)3
_symmetry_space_group_name_H-M   'P 1'
_cell_length_a   5.24762649
_cell_length_b   9.42259814
_cell_length_c   19.33998118
_cell_angle_alpha   88.83620206
_cell_angle_beta   90.00000000
_cell_angle_gamma   90.00000000
_symmetry_Int_Tables_number   1
_chemical_formula_structural   As2(SO4)3
_chemical_formula_sum   'As8 S12 O48'
_cell_volume   956.09277222
_cell_formula_units_Z   4
loop_
 _symmetry_equiv_pos_site_id
 _symmetry_equiv_pos_as_xyz
  1  'x, y, z'
loop_
 _atom_site_type_symbol
 _atom_site_label
 _atom_site_symmetry_multiplicity
 _atom_site_fract_x
 _atom_site_fract_y
 _atom_site_fract_z
 _atom_site_occupancy
  As  As0  1  0.74017094  0.12772278  0.12931630  1
  As  As1  1  0.24017094  0.87227722  0.37068370  1
  As  As2  1  0.25982906  0.87227722  0.87068370  1
  As  As3  1  0.75982906  0.12772278  0.62931630  1
  As  As4  1  0.68130732  0.37780158  0.37001221  1
  As  As5  1  0.18130732  0.62219842  0.12998779  1
  As  As6  1  0.31869268  0.62219842  0.62998779  1
  As  As7  1  0.81869268  0.37780158  0.87001221  1
  S  S8  1  0.85185451  0.08426668  0.34770891  1
  S  S9  1  0.35185451  0.91573332  0.15229109  1
  S  S10  1  0.14814549  0.91573332  0.65229109  1
  S  S11  1  0.64814549  0.08426668  0.84770891  1
  S  S12  1  0.90768288  0.64597960  0.31482296  1
  S  S13  1  0.40768288  0.35402040  0.18517704  1
  S  S14  1  0.09231712  0.35402040  0.68517704  1
  S  S15  1  0.59231712  0.64597960  0.81482296  1
  S  S16  1  0.56130813  0.30314306  0.51418695  1
  S  S17  1  0.06130813  0.69685694  0.98581305  1
  S  S18  1  0.43869187  0.69685694  0.48581305  1
  S  S19  1  0.93869187  0.30314306  0.01418695  1
  O  O20  1  0.90736418  0.02341008  0.28259348  1
  O  O21  1  0.40736418  0.97658992  0.21740652  1
  O  O22  1  0.09263582  0.97658992  0.71740652  1
  O  O23  1  0.59263582  0.02341008  0.78259348  1
  O  O24  1  0.59856354  0.07297413  0.37553316  1
  O  O25  1  0.09856354  0.92702587  0.12446684  1
  O  O26  1  0.40143646  0.92702587  0.62446684  1
  O  O27  1  0.90143646  0.07297413  0.87553316  1
  O  O28  1  0.04336299  0.01990869  0.40153122  1
  O  O29  1  0.54336299  0.98009131  0.09846878  1
  O  O30  1  0.95663701  0.98009131  0.59846878  1
  O  O31  1  0.45663701  0.01990869  0.90153122  1
  O  O32  1  0.92634203  0.24191392  0.34772595  1
  O  O33  1  0.42634203  0.75808608  0.15227405  1
  O  O34  1  0.07365797  0.75808608  0.65227405  1
  O  O35  1  0.57365797  0.24191392  0.84772595  1
  O  O36  1  0.11685581  0.65766758  0.26767370  1
  O  O37  1  0.65458528  0.65704095  0.28978195  1
  O  O38  1  0.34541472  0.34295905  0.71021805  1
  O  O39  1  0.84541472  0.65704095  0.78978195  1
  O  O40  1  0.73297810  0.36097091  0.96322035  1
  O  O41  1  0.23297810  0.63902909  0.53677965  1
  O  O42  1  0.26702190  0.63902909  0.03677965  1
  O  O43  1  0.76702190  0.36097091  0.46322035  1
  O  O44  1  0.81565136  0.15887495  0.03741627  1
  O  O45  1  0.31565136  0.84112505  0.46258373  1
  O  O46  1  0.18434864  0.84112505  0.96258373  1
  O  O47  1  0.68434864  0.15887495  0.53741627  1
  O  O48  1  0.16811261  0.27745128  0.97791769  1
  O  O49  1  0.66811261  0.72254872  0.52208231  1
  O  O50  1  0.83188739  0.72254872  0.02208231  1
  O  O51  1  0.33188739  0.27745128  0.47791769  1
  O  O52  1  0.93989320  0.39183747  0.07361469  1
  O  O53  1  0.43989320  0.60816253  0.42638531  1
  O  O54  1  0.06010680  0.60816253  0.92638531  1
  O  O55  1  0.56010680  0.39183747  0.57361469  1
  O  O56  1  0.55851758  0.50322970  0.85653787  1
  O  O57  1  0.05851758  0.49677030  0.64346213  1
  O  O58  1  0.44148242  0.49677030  0.14346213  1
  O  O59  1  0.94148242  0.50322970  0.35653787  1
  O  O60  1  0.55140642  0.75493460  0.87290622  1
  O  O61  1  0.05140642  0.24506540  0.62709378  1
  O  O62  1  0.44859358  0.24506540  0.12709378  1
  O  O63  1  0.94859358  0.75493460  0.37290622  1
  O  O64  1  0.38314419  0.65766758  0.76767370  1
  O  O65  1  0.88314419  0.34233242  0.73232630  1
  O  O66  1  0.61685581  0.34233242  0.23232630  1
  O  O67  1  0.15458528  0.34295905  0.21021805  1
