# generated using pymatgen
data_Na3La2Zn2PS5O24
_symmetry_space_group_name_H-M   'P 1'
_cell_length_a   9.12192838
_cell_length_b   9.17969079
_cell_length_c   23.82100373
_cell_angle_alpha   90.69495884
_cell_angle_beta   89.19399353
_cell_angle_gamma   119.98553694
_symmetry_Int_Tables_number   1
_chemical_formula_structural   Na3La2Zn2PS5O24
_chemical_formula_sum   'Na9 La6 Zn6 P3 S15 O72'
_cell_volume   1727.50047540
_cell_formula_units_Z   3
loop_
 _symmetry_equiv_pos_site_id
 _symmetry_equiv_pos_as_xyz
  1  'x, y, z'
loop_
 _atom_site_type_symbol
 _atom_site_label
 _atom_site_symmetry_multiplicity
 _atom_site_fract_x
 _atom_site_fract_y
 _atom_site_fract_z
 _atom_site_occupancy
  Na  Na0  1  0.36490268  0.98953255  0.75022296  1
  Na  Na1  1  0.65808344  0.96993000  0.58927444  1
  Na  Na2  1  0.67204737  0.69389634  0.08294182  1
  Na  Na3  1  0.02952436  0.00241863  0.51186342  1
  Na  Na4  1  0.01991907  0.00695509  0.01041953  1
  Na  Na5  1  0.68430615  0.33812162  0.83258454  1
  Na  Na6  1  0.66787753  0.33433425  0.33248283  1
  Na  Na7  1  0.30574224  0.66340302  0.16761347  1
  Na  Na8  1  0.32814414  0.65368140  0.66721057  1
  La  La9  1  0.00113366  0.00100305  0.35504395  1
  La  La10  1  0.98455512  -0.00139001  0.85484906  1
  La  La11  1  0.67059581  0.33472089  0.67870561  1
  La  La12  1  0.67689831  0.33626944  0.18136771  1
  La  La13  1  0.67430139  0.33601422  0.98349442  1
  La  La14  1  0.65390260  0.32793304  0.48285431  1
  Zn  Zn15  1  0.00130147  0.99771996  0.65411420  1
  Zn  Zn16  1  0.01491700  0.99598922  0.15336874  1
  Zn  Zn17  1  0.31401037  0.67042963  0.01625810  1
  Zn  Zn18  1  0.32337638  0.67294646  0.51600166  1
  Zn  Zn19  1  0.33326374  0.66409987  0.31578451  1
  Zn  Zn20  1  0.35352485  0.67276536  0.81535159  1
  P  P21  1  0.69123911  0.98596382  0.74577329  1
  P  P22  1  0.34388327  0.01008341  0.58600857  1
  P  P23  1  0.98417698  0.65714235  0.08365991  1
  S  S24  1  0.29466054  0.98389712  0.24863630  1
  S  S25  1  0.68925406  0.70714215  0.24805545  1
  S  S26  1  0.01753153  0.30470393  0.24884642  1
  S  S27  1  0.28974247  0.30262935  0.74908889  1
  S  S28  1  0.01269672  0.70732765  0.74958082  1
  S  S29  1  0.98621029  0.33124249  0.58107097  1
  S  S30  1  0.66703534  0.65362746  0.58268081  1
  S  S31  1  0.66735614  0.01355160  0.08244351  1
  S  S32  1  0.35002497  0.33525280  0.08342756  1
  S  S33  1  0.60671822  0.66086641  0.92000005  1
  S  S34  1  0.05978139  0.39576096  0.91518860  1
  S  S35  1  0.33624438  0.94976096  0.91446575  1
  S  S36  1  0.60782199  0.94442424  0.41736345  1
  S  S37  1  0.33555914  0.39544283  0.41651305  1
  S  S38  1  0.05178331  0.66220183  0.41578962  1
  O  O39  1  0.21644001  0.00716805  0.30046965  1
  O  O40  1  0.79585409  0.79202176  0.29771778  1
  O  O41  1  0.99746757  0.20781230  0.30069459  1
  O  O42  1  0.21369002  0.19800216  0.79989271  1
  O  O43  1  0.99334422  0.78499467  0.80182104  1
  O  O44  1  0.79794960  0.00892227  0.79802855  1
  O  O45  1  0.77967541  0.97669864  0.69076607  1
  O  O46  1  0.19149974  0.21714764  0.69836317  1
  O  O47  1  0.02880148  0.81081758  0.70015837  1
  O  O48  1  0.77291448  0.79919077  0.19553305  1
  O  O49  1  0.02561862  0.21360803  0.19827878  1
  O  O50  1  0.19508958  0.97264552  0.19841297  1
  O  O51  1  0.91313279  0.36379111  0.63298021  1
  O  O52  1  0.45964792  0.08868647  0.63892305  1
  O  O53  1  0.64375991  0.55125246  0.63336871  1
  O  O54  1  0.90063134  0.54369942  0.13564743  1
  O  O55  1  0.63708913  0.09138851  0.13289906  1
  O  O56  1  0.46408305  0.36466319  0.13216211  1
  O  O57  1  0.42842375  0.30354535  0.03257149  1
  O  O58  1  0.86017542  0.57026697  0.03331047  1
  O  O59  1  0.69174207  0.12042011  0.03277519  1
  O  O60  1  0.43666723  0.13139430  0.53576069  1
  O  O61  1  0.69367961  0.57052694  0.53289154  1
  O  O62  1  0.86841689  0.30342289  0.53361656  1
  O  O63  1  0.52017174  0.66277374  0.97255264  1
  O  O64  1  0.14277702  0.47759979  0.96805888  1
  O  O65  1  0.33380722  0.85709573  0.96464259  1
  O  O66  1  0.52798949  0.86164806  0.47085208  1
  O  O67  1  0.33389599  0.48308760  0.46825701  1
  O  O68  1  0.14009765  0.66836490  0.46759971  1
  O  O69  1  0.13707484  0.65732172  0.36360356  1
  O  O70  1  0.51547157  0.85580911  0.36661699  1
  O  O71  1  0.33902594  0.47998322  0.36417161  1
  O  O72  1  0.14732765  0.48510993  0.86387601  1
  O  O73  1  0.34160729  0.86965700  0.86057752  1
  O  O74  1  0.52002710  0.65857185  0.86820107  1
  O  O75  1  0.03203019  0.81559878  0.41682422  1
  O  O76  1  0.78150246  0.96514508  0.41699846  1
  O  O77  1  0.18301667  0.22156109  0.41819270  1
  O  O78  1  0.03880492  0.22313278  0.91658509  1
  O  O79  1  0.18277165  0.96913335  0.91671983  1
  O  O80  1  0.78011929  0.81325864  0.92121891  1
  O  O81  1  0.98818339  0.17119562  0.58745969  1
  O  O82  1  0.16912000  0.99389571  0.59444615  1
  O  O83  1  0.81795489  0.82455763  0.58806375  1
  O  O84  1  0.98762661  0.82782780  0.09179343  1
  O  O85  1  0.82180959  -0.00053367  0.08895486  1
  O  O86  1  0.18115895  0.18612592  0.09207626  1
  O  O87  1  0.66205199  0.14198303  0.74532680  1
  O  O88  1  0.46297226  0.31767492  0.74511822  1
  O  O89  1  0.86150029  0.53535127  0.74634859  1
  O  O90  1  0.66818993  0.53371034  0.24659818  1
  O  O91  1  0.86273571  0.32384389  0.24757683  1
  O  O92  1  0.46759988  0.13636989  0.24531083  1
  O  O93  1  0.62843367  0.50857588  0.91804964  1
  O  O94  1  0.88350477  0.37259423  0.91417272  1
  O  O95  1  0.49042116  0.12278806  0.91549151  1
  O  O96  1  0.62971723  0.11835518  0.41624162  1
  O  O97  1  0.48913389  0.37347236  0.41536567  1
  O  O98  1  0.87754187  0.51012265  0.41618783  1
  O  O99  1  0.34391696  0.49250446  0.07675828  1
  O  O100  1  0.15969270  0.67662510  0.07484889  1
  O  O101  1  0.51909722  0.84168666  0.07532108  1
  O  O102  1  0.34090910  0.84094507  0.57627416  1
  O  O103  1  0.51400023  0.67011490  0.57672450  1
  O  O104  1  0.15559813  0.47691834  0.57232086  1
  O  O105  1  0.30746796  0.82980888  0.25222776  1
  O  O106  1  0.52122509  0.69381316  0.25391458  1
  O  O107  1  0.17045297  0.47379078  0.25207554  1
  O  O108  1  0.30810535  0.47071917  0.75476477  1
  O  O109  1  0.17008139  0.69597267  0.75230991  1
  O  O110  1  0.51107071  0.82712119  0.75155053  1
