# generated using pymatgen
data_Na4LaNb3Si5SO24
_symmetry_space_group_name_H-M   'P 1'
_cell_length_a   9.19127001
_cell_length_b   9.13830561
_cell_length_c   23.08623337
_cell_angle_alpha   90.29023556
_cell_angle_beta   89.87507328
_cell_angle_gamma   120.06776847
_symmetry_Int_Tables_number   1
_chemical_formula_structural   Na4LaNb3Si5SO24
_chemical_formula_sum   'Na12 La3 Nb9 Si15 S3 O72'
_cell_volume   1678.11735997
_cell_formula_units_Z   3
loop_
 _symmetry_equiv_pos_site_id
 _symmetry_equiv_pos_as_xyz
  1  'x, y, z'
loop_
 _atom_site_type_symbol
 _atom_site_label
 _atom_site_symmetry_multiplicity
 _atom_site_fract_x
 _atom_site_fract_y
 _atom_site_fract_z
 _atom_site_occupancy
  Na  Na0  1  0.63083788  0.62239356  0.74744826  1
  Na  Na1  1  0.99144141  0.36723584  0.75231734  1
  Na  Na2  1  0.38086055  0.00699231  0.74828637  1
  Na  Na3  1  0.65802101  0.68143688  0.08364342  1
  Na  Na4  1  0.02499014  0.35072446  0.08123440  1
  Na  Na5  1  0.32273736  0.02561398  0.42018937  1
  Na  Na6  1  0.98753599  0.99639927  0.50075486  1
  Na  Na7  1  0.00973387  0.99392584  0.99327084  1
  Na  Na8  1  0.66653391  0.33264980  0.83507232  1
  Na  Na9  1  0.70009428  0.33921466  0.33075344  1
  Na  Na10  1  0.33305034  0.68074139  0.16841725  1
  Na  Na11  1  0.34679196  0.67680639  0.66172220  1
  La  La12  1  0.98485360  0.00255404  0.35959680  1
  La  La13  1  0.66008773  0.33077426  0.67803892  1
  La  La14  1  0.67136140  0.32953546  0.17738197  1
  Nb  Nb15  1  0.99912309  0.00091804  0.85819023  1
  Nb  Nb16  1  0.00278970  0.98828451  0.64763284  1
  Nb  Nb17  1  0.00695159  0.01712845  0.14228517  1
  Nb  Nb18  1  0.66791087  0.33547876  0.97752197  1
  Nb  Nb19  1  0.65830527  0.34279861  0.47982818  1
  Nb  Nb20  1  0.33320391  0.67054783  0.01301102  1
  Nb  Nb21  1  0.34121536  0.67613050  0.51932087  1
  Nb  Nb22  1  0.32140192  0.65158053  0.31817057  1
  Nb  Nb23  1  0.33555873  0.66665503  0.81548669  1
  Si  Si24  1  0.01200388  0.31182294  0.25046539  1
  Si  Si25  1  0.27686136  0.28644347  0.75278511  1
  Si  Si26  1  0.01064511  0.71762237  0.75432943  1
  Si  Si27  1  0.71406732  0.99051331  0.75261119  1
  Si  Si28  1  0.36085092  0.03106443  0.58357807  1
  Si  Si29  1  0.66646289  0.64009486  0.58530805  1
  Si  Si30  1  0.97055581  0.63588629  0.07964621  1
  Si  Si31  1  0.66052962  0.03076449  0.07990415  1
  Si  Si32  1  0.37350029  0.33975674  0.07911565  1
  Si  Si33  1  0.62494202  0.66250701  0.91563132  1
  Si  Si34  1  0.03888332  0.37675135  0.91550411  1
  Si  Si35  1  0.33724856  0.96292685  0.91468290  1
  Si  Si36  1  0.61179805  0.96173656  0.41799206  1
  Si  Si37  1  0.34438725  0.38574315  0.42098779  1
  Si  Si38  1  0.03867945  0.64751843  0.42116916  1
  S  S39  1  0.28481054  0.98362339  0.25002424  1
  S  S40  1  0.69110408  0.70981829  0.24678985  1
  S  S41  1  0.97235074  0.33112015  0.58112699  1
  O  O42  1  0.20993604  0.99262364  0.30508369  1
  O  O43  1  0.78850850  0.78499709  0.29952620  1
  O  O44  1  0.00128098  0.20596357  0.30614376  1
  O  O45  1  0.17634661  0.17095990  0.80888971  1
  O  O46  1  0.99207154  0.82060188  0.80873454  1
  O  O47  1  0.82825905  0.00589952  0.80915706  1
  O  O48  1  0.80965277  0.96813352  0.69468653  1
  O  O49  1  0.15984387  0.19041821  0.69469151  1
  O  O50  1  0.03090148  0.83212574  0.69440456  1
  O  O51  1  0.78664230  0.81006842  0.19396516  1
  O  O52  1  0.02129967  0.19629157  0.19124071  1
  O  O53  1  0.17696636  0.97725501  0.19904640  1
  O  O54  1  0.91844737  0.36306214  0.63803369  1
  O  O55  1  0.45312269  0.07919468  0.64578298  1
  O  O56  1  0.63026326  0.54932597  0.64743319  1
  O  O57  1  0.92200181  0.51492465  0.13483859  1
  O  O58  1  0.61339043  0.07817958  0.14042229  1
  O  O59  1  0.48713696  0.40544148  0.13582687  1
  O  O60  1  0.47365275  0.30499395  0.02618842  1
  O  O61  1  0.82943035  0.53464905  0.02745254  1
  O  O62  1  0.70624439  0.17338762  0.02858828  1
  O  O63  1  0.47600882  0.16548130  0.53042838  1
  O  O64  1  0.68950669  0.52244262  0.53319021  1
  O  O65  1  0.85430913  0.31439437  0.53439615  1
  O  O66  1  0.52682108  0.68254784  0.97106443  1
  O  O67  1  0.15822948  0.47152044  0.97110657  1
  O  O68  1  0.31664827  0.83804936  0.96819508  1
  O  O69  1  0.50099492  0.84757635  0.47298848  1
  O  O70  1  0.33238772  0.48974691  0.47476529  1
  O  O71  1  0.15520773  0.65563981  0.47448117  1
  O  O72  1  0.13406242  0.62727005  0.36043812  1
  O  O73  1  0.49332473  0.86021288  0.35954017  1
  O  O74  1  0.35986488  0.49704295  0.36077646  1
  O  O75  1  0.13654951  0.49734777  0.85787582  1
  O  O76  1  0.36141843  0.86708003  0.85661541  1
  O  O77  1  0.50401146  0.63970456  0.85798960  1
  O  O78  1  0.03890820  0.82204824  0.41963997  1
  O  O79  1  0.79116295  0.97792820  0.42513673  1
  O  O80  1  0.19960584  0.19218177  0.42185296  1
  O  O81  1  0.01897198  0.18870863  0.90982817  1
  O  O82  1  0.16922162  0.98064053  0.91020024  1
  O  O83  1  0.81169592  0.83089769  0.91019298  1
  O  O84  1  0.97976630  0.17285947  0.58311481  1
  O  O85  1  0.17919427  0.02781373  0.58922242  1
  O  O86  1  0.84244994  0.82491625  0.58862745  1
  O  O87  1  0.97200367  0.81620826  0.09241309  1
  O  O88  1  0.84165247  0.02182267  0.08989243  1
  O  O89  1  0.18450724  0.16353789  0.09015199  1
  O  O90  1  0.69601265  0.15779077  0.75180797  1
  O  O91  1  0.46256244  0.30683385  0.75248094  1
  O  O92  1  0.84687935  0.53127878  0.75192582  1
  O  O93  1  0.65776363  0.53564852  0.24389615  1
  O  O94  1  0.85609745  0.34421221  0.24831971  1
  O  O95  1  0.45346865  0.13251148  0.24602298  1
  O  O96  1  0.64070927  0.49238153  0.92316027  1
  O  O97  1  0.85451949  0.36178430  0.92406050  1
  O  O98  1  0.50795842  0.14604756  0.92466890  1
  O  O99  1  0.61525358  0.14405987  0.42441097  1
  O  O100  1  0.52416843  0.38242241  0.42538929  1
  O  O101  1  0.85317495  0.47737835  0.42807056  1
  O  O102  1  0.32448342  0.48593548  0.06563451  1
  O  O103  1  0.15883177  0.66974843  0.06392373  1
  O  O104  1  0.51758857  0.83473499  0.06620331  1
  O  O105  1  0.32174555  0.83797401  0.57111674  1
  O  O106  1  0.50666630  0.66681188  0.57204520  1
  O  O107  1  0.14370958  0.47680200  0.57256434  1
  O  O108  1  0.29362608  0.82449359  0.24856570  1
  O  O109  1  0.52973963  0.71281346  0.24931827  1
  O  O110  1  0.19578022  0.49614862  0.25333351  1
  O  O111  1  0.29004088  0.47447669  0.75710834  1
  O  O112  1  0.18589665  0.70898294  0.75681763  1
  O  O113  1  0.52633211  0.81630903  0.75699944  1
