# generated using pymatgen
data_Na14Y8Si7S5O48
_symmetry_space_group_name_H-M   'P 1'
_cell_length_a   18.98090047
_cell_length_b   9.48851265
_cell_length_c   23.61458509
_cell_angle_alpha   90.00433869
_cell_angle_beta   89.94820539
_cell_angle_gamma   120.05936866
_symmetry_Int_Tables_number   1
_chemical_formula_structural   Na14Y8Si7S5O48
_chemical_formula_sum   'Na42 Y24 Si21 S15 O144'
_cell_volume   3680.99784175
_cell_formula_units_Z   3
loop_
 _symmetry_equiv_pos_site_id
 _symmetry_equiv_pos_as_xyz
  1  'x, y, z'
loop_
 _atom_site_type_symbol
 _atom_site_label
 _atom_site_symmetry_multiplicity
 _atom_site_fract_x
 _atom_site_fract_y
 _atom_site_fract_z
 _atom_site_occupancy
  Na  Na0  1  0.81045305  0.98908493  0.24312036  1
  Na  Na1  1  0.18838490  0.36487230  0.25641556  1
  Na  Na2  1  0.69061765  0.36739115  0.25520297  1
  Na  Na3  1  0.99971624  0.65237057  0.24188405  1
  Na  Na4  1  0.50030040  0.65229640  0.24313644  1
  Na  Na5  1  0.30955222  0.63275986  0.75333669  1
  Na  Na6  1  0.99849266  0.34604362  0.74657576  1
  Na  Na7  1  0.50262133  0.35021032  0.74741904  1
  Na  Na8  1  0.18656011  0.00871508  0.75917008  1
  Na  Na9  1  0.69024294  0.01272893  0.76001005  1
  Na  Na10  1  0.14082440  0.33144054  0.58389575  1
  Na  Na11  1  0.64289129  0.33398817  0.58484399  1
  Na  Na12  1  0.33997798  0.98028049  0.57946529  1
  Na  Na13  1  0.84019559  0.98146504  0.58216348  1
  Na  Na14  1  0.13978935  0.95033689  0.08635628  1
  Na  Na15  1  0.65206908  0.95480297  0.08530458  1
  Na  Na16  1  0.34010084  0.69769399  0.08211077  1
  Na  Na17  1  0.83881731  0.71490505  0.07930806  1
  Na  Na18  1  0.48805322  0.68527199  0.92507071  1
  Na  Na19  1  0.98018410  0.67883041  0.92571776  1
  Na  Na20  1  0.34146454  0.01435140  0.91277231  1
  Na  Na21  1  0.83943592  0.01405364  0.92010497  1
  Na  Na22  1  0.17052653  0.29589447  0.90976106  1
  Na  Na23  1  0.67622607  0.30446137  0.91026597  1
  Na  Na24  1  0.48420077  0.28441304  0.42144603  1
  Na  Na25  1  0.98458448  0.28502743  0.42145853  1
  Na  Na26  1  0.17212793  0.04370283  0.40575721  1
  Na  Na27  1  0.67207172  0.04599430  0.40665083  1
  Na  Na28  1  0.33981547  0.66753958  0.40875681  1
  Na  Na29  1  0.84123512  0.66885963  0.40937472  1
  Na  Na30  1  0.99790757  0.01655118  0.49581650  1
  Na  Na31  1  0.49847982  0.01687928  0.49548800  1
  Na  Na32  1  0.98956759  0.98160496  0.00314117  1
  Na  Na33  1  0.50086396  0.98192146  0.99808829  1
  Na  Na34  1  0.32205874  0.32005670  0.83531405  1
  Na  Na35  1  0.82061352  0.32840855  0.83533872  1
  Na  Na36  1  0.32065744  0.31442503  0.32858615  1
  Na  Na37  1  0.82214339  0.32588927  0.32866097  1
  Na  Na38  1  0.16430464  0.67886736  0.17087213  1
  Na  Na39  1  0.66760933  0.68329968  0.16305957  1
  Na  Na40  1  0.15931288  0.65055791  0.67028389  1
  Na  Na41  1  0.66747845  0.65336842  0.67329893  1
  Y  Y42  1  0.00061741  0.99878993  0.34733666  1
  Y  Y43  1  0.49849318  0.99841836  0.34695766  1
  Y  Y44  1  0.99788765  0.99834966  0.84860350  1
  Y  Y45  1  0.50148446  0.00387764  0.84912132  1
  Y  Y46  1  0.99703465  0.00809553  0.65279094  1
  Y  Y47  1  0.49882004  0.01032292  0.65189589  1
  Y  Y48  1  0.99423402  0.98806291  0.14916662  1
  Y  Y49  1  0.49846998  0.98681247  0.15197592  1
  Y  Y50  1  0.33643478  0.32980857  0.68421455  1
  Y  Y51  1  0.83592895  0.33598376  0.68619192  1
  Y  Y52  1  0.33551593  0.33496874  0.18551473  1
  Y  Y53  1  0.83553686  0.33312146  0.18021688  1
  Y  Y54  1  0.33519948  0.34252686  0.98322626  1
  Y  Y55  1  0.83509808  0.33244005  0.98635645  1
  Y  Y56  1  0.33466732  0.32767667  0.48253931  1
  Y  Y57  1  0.83507643  0.32734425  0.48283550  1
  Y  Y58  1  0.16313550  0.66981072  0.01532922  1
  Y  Y59  1  0.66908105  0.68119615  0.01742089  1
  Y  Y60  1  0.16358615  0.65654946  0.51441262  1
  Y  Y61  1  0.66417884  0.65721055  0.51498212  1
  Y  Y62  1  0.17955961  0.68585298  0.31412729  1
  Y  Y63  1  0.67482149  0.67526471  0.31662212  1
  Y  Y64  1  0.17385896  0.67356324  0.81814131  1
  Y  Y65  1  0.68016144  0.67432082  0.81596805  1
  Si  Si66  1  0.14894243  0.99930556  0.24907930  1
  Si  Si67  1  0.65060875  0.00054131  0.25110174  1
  Si  Si68  1  0.34938125  0.69605299  0.24949028  1
  Si  Si69  1  0.84973077  0.69599402  0.25147482  1
  Si  Si70  1  0.15042401  0.30176336  0.74948233  1
  Si  Si71  1  0.64974345  0.30180876  0.74913867  1
  Si  Si72  1  0.34919688  0.99845014  0.74987535  1
  Si  Si73  1  0.84891427  0.00118046  0.74890472  1
  Si  Si74  1  0.48565089  0.33630634  0.58369121  1
  Si  Si75  1  0.98535219  0.33642480  0.58411211  1
  Si  Si76  1  0.48396373  0.63390736  0.08395587  1
  Si  Si77  1  0.98634465  0.63447073  0.08389474  1
  Si  Si78  1  0.83479673  0.03285434  0.08291905  1
  Si  Si79  1  0.31694805  0.66645794  0.91832141  1
  Si  Si80  1  0.81745499  0.66332338  0.91948506  1
  Si  Si81  1  0.16643291  0.96866327  0.91608351  1
  Si  Si82  1  0.66573080  0.96742504  0.91504951  1
  Si  Si83  1  0.31694111  0.96608965  0.42112382  1
  Si  Si84  1  0.81707347  0.96656250  0.41905426  1
  Si  Si85  1  0.16604615  0.36520049  0.41642659  1
  Si  Si86  1  0.66578189  0.36331217  0.41707068  1
  S  S87  1  0.00010554  0.29798052  0.25091099  1
  S  S88  1  0.50036092  0.29808502  0.25052232  1
  S  S89  1  0.00102421  0.70428465  0.74991215  1
  S  S90  1  0.49942757  0.70326837  0.74968073  1
  S  S91  1  0.18421827  0.03526783  0.58363457  1
  S  S92  1  0.68466821  0.03626978  0.58352259  1
  S  S93  1  0.33363495  0.63136460  0.58315533  1
  S  S94  1  0.83388398  0.63128244  0.58196378  1
  S  S95  1  0.33377102  0.03610977  0.08199516  1
  S  S96  1  0.18595531  0.33480981  0.08354637  1
  S  S97  1  0.68280858  0.33196865  0.08342316  1
  S  S98  1  0.01867035  0.37057272  0.91514690  1
  S  S99  1  0.51906133  0.37195260  0.91598465  1
  S  S100  1  0.01877188  0.66705339  0.41603982  1
  S  S101  1  0.51844626  0.66748086  0.41629026  1
  O  O102  1  0.10914467  0.02946241  0.30729096  1
  O  O103  1  0.60832840  0.02829309  0.30784981  1
  O  O104  1  0.40388607  0.78050373  0.30685093  1
  O  O105  1  0.90389911  0.77974092  0.30895111  1
  O  O106  1  0.48944826  0.20269268  0.30310629  1
  O  O107  1  0.98788568  0.19948579  0.30329367  1
  O  O108  1  0.10975224  0.18652527  0.80536235  1
  O  O109  1  0.60761066  0.18671117  0.80520423  1
  O  O110  1  0.48666012  0.77727128  0.80111066  1
  O  O111  1  0.99096689  0.77883168  0.80181543  1
  O  O112  1  0.40541536  0.02726277  0.80576560  1
  O  O113  1  0.90652219  0.02952024  0.80423628  1
  O  O114  1  0.39060556  0.96605441  0.69384237  1
  O  O115  1  0.89112195  0.97638157  0.69185239  1
  O  O116  1  0.09627521  0.21190511  0.69253268  1
  O  O117  1  0.59462369  0.21151561  0.69205913  1
  O  O118  1  0.01249743  0.80702519  0.69987682  1
  O  O119  1  0.51121185  0.80635225  0.69963304  1
  O  O120  1  0.39286998  0.80821457  0.19362412  1
  O  O121  1  0.89248367  0.81531147  0.19715425  1
  O  O122  1  0.01296218  0.21924950  0.20191428  1
  O  O123  1  0.51157380  0.21679752  0.20121518  1
  O  O124  1  0.09450486  0.98242891  0.19297122  1
  O  O125  1  0.59467412  0.98052657  0.19520777  1
  O  O126  1  0.43981197  0.35120097  0.64024131  1
  O  O127  1  0.93928540  0.35226544  0.64004387  1
  O  O128  1  0.23521676  0.11670259  0.63434518  1
  O  O129  1  0.73574602  0.11797964  0.63369880  1
  O  O130  1  0.32263740  0.53040272  0.63410420  1
  O  O131  1  0.82178567  0.52618746  0.63132975  1
  O  O132  1  0.43703376  0.52627112  0.14011555  1
  O  O133  1  0.94183519  0.53089095  0.14127459  1
  O  O134  1  0.32172088  0.11731007  0.13120756  1
  O  O135  1  0.81973802  0.11698566  0.13931040  1
  O  O136  1  0.23773648  0.35701116  0.13367647  1
  O  O137  1  0.73340102  0.35438992  0.13457479  1
  O  O138  1  0.22449079  0.30908911  0.03211150  1
  O  O139  1  0.72170982  0.30639395  0.03276907  1
  O  O140  1  0.42690870  0.54784427  0.02749959  1
  O  O141  1  0.93089859  0.54935253  0.02719464  1
  O  O142  1  0.34173949  0.12950309  0.02949203  1
  O  O143  1  0.84123984  0.13533473  0.02546277  1
  O  O144  1  0.22340493  0.13919161  0.53291225  1
  O  O145  1  0.72282047  0.13941267  0.53231626  1
  O  O146  1  0.34112914  0.55036223  0.53197839  1
  O  O147  1  0.84178193  0.55387370  0.52968250  1
  O  O148  1  0.42879783  0.31163565  0.52786640  1
  O  O149  1  0.92961891  0.31144172  0.52744590  1
  O  O150  1  0.27226674  0.68846511  0.97433190  1
  O  O151  1  0.77503367  0.68825409  0.97607989  1
  O  O152  1  0.07122231  0.45090821  0.96468974  1
  O  O153  1  0.57003808  0.45048396  0.96546076  1
  O  O154  1  0.15270728  0.85276452  0.97146841  1
  O  O155  1  0.64909628  0.85076696  0.97056901  1
  O  O156  1  0.27604232  0.86065021  0.47939204  1
  O  O157  1  0.77330935  0.85714997  0.47597228  1
  O  O158  1  0.15185214  0.44902098  0.47343352  1
  O  O159  1  0.65119399  0.44876748  0.47328710  1
  O  O160  1  0.07014275  0.69112803  0.46646498  1
  O  O161  1  0.57038165  0.69139356  0.46626288  1
  O  O162  1  0.05461225  0.63911668  0.36516973  1
  O  O163  1  0.55398771  0.63924330  0.36508428  1
  O  O164  1  0.25478526  0.87938037  0.36851398  1
  O  O165  1  0.75862978  0.88362866  0.36380744  1
  O  O166  1  0.17765881  0.47790144  0.36097440  1
  O  O167  1  0.67741036  0.47467196  0.36114519  1
  O  O168  1  0.05622936  0.46960651  0.86324641  1
  O  O169  1  0.55380942  0.46897254  0.86371168  1
  O  O170  1  0.17913626  0.88359345  0.85919678  1
  O  O171  1  0.67542953  0.87803056  0.85836320  1
  O  O172  1  0.26030681  0.63404159  0.86157040  1
  O  O173  1  0.75653782  0.62782500  0.86569162  1
  O  O174  1  0.01061658  0.81487429  0.41207054  1
  O  O175  1  0.51038715  0.81505115  0.41198632  1
  O  O176  1  0.40692277  0.97999446  0.41437852  1
  O  O177  1  0.90738651  0.98171213  0.41401702  1
  O  O178  1  0.08512184  0.18048087  0.41422635  1
  O  O179  1  0.58459222  0.17918916  0.41425422  1
  O  O180  1  0.01114272  0.20754994  0.91066387  1
  O  O181  1  0.50926438  0.20572217  0.91133008  1
  O  O182  1  0.08622141  0.99150915  0.91265186  1
  O  O183  1  0.58423513  0.98953234  0.91298037  1
  O  O184  1  0.40686780  0.83256506  0.91313825  1
  O  O185  1  0.90714960  0.83196718  0.91268208  1
  O  O186  1  0.49090440  0.16429761  0.58471059  1
  O  O187  1  0.99200092  0.16550738  0.58498648  1
  O  O188  1  0.10285237  0.01817308  0.58891713  1
  O  O189  1  0.60273988  0.01830199  0.58875204  1
  O  O190  1  0.40641920  0.79586506  0.58745600  1
  O  O191  1  0.90662476  0.79561164  0.58721357  1
  O  O192  1  0.48984909  0.81721992  0.08506984  1
  O  O193  1  0.99567064  0.81873054  0.08524594  1
  O  O194  1  0.40652488  0.01798210  0.08733092  1
  O  O195  1  0.91449937  0.00926816  0.08552133  1
  O  O196  1  0.10508838  0.18915604  0.08897431  1
  O  O197  1  0.60147011  0.18323448  0.08911102  1
  O  O198  1  0.34102838  0.16416508  0.74509452  1
  O  O199  1  0.84439924  0.17155497  0.74518154  1
  O  O200  1  0.24388002  0.33038491  0.74380749  1
  O  O201  1  0.73856911  0.31302489  0.74302787  1
  O  O202  1  0.42358778  0.54045223  0.74373639  1
  O  O203  1  0.92857931  0.53852375  0.74454390  1
  O  O204  1  0.34502867  0.51681737  0.24632380  1
  O  O205  1  0.84155339  0.51485300  0.24691045  1
  O  O206  1  0.42795430  0.31810206  0.24528403  1
  O  O207  1  0.92524930  0.31129679  0.24572795  1
  O  O208  1  0.23899813  0.16591460  0.24464280  1
  O  O209  1  0.74242235  0.16212174  0.24734984  1
  O  O210  1  0.32703846  0.50256928  0.92077433  1
  O  O211  1  0.83007167  0.50318892  0.92110765  1
  O  O212  1  0.43516286  0.35009365  0.92265246  1
  O  O213  1  0.93737246  0.35419952  0.92111340  1
  O  O214  1  0.25142813  0.14746231  0.92162878  1
  O  O215  1  0.74892257  0.14837671  0.91957534  1
  O  O216  1  0.32918895  0.15211667  0.42255527  1
  O  O217  1  0.82788082  0.15121270  0.42187853  1
  O  O218  1  0.25043356  0.35460578  0.42271869  1
  O  O219  1  0.75026103  0.35374558  0.42298663  1
  O  O220  1  0.43569097  0.52227540  0.42384136  1
  O  O221  1  0.93571579  0.52203288  0.42363293  1
  O  O222  1  0.18201738  0.48633503  0.07769952  1
  O  O223  1  0.67651023  0.47978563  0.07769139  1
  O  O224  1  0.08008427  0.66273917  0.08171637  1
  O  O225  1  0.57571891  0.66065420  0.08115971  1
  O  O226  1  0.25963961  0.86948063  0.07868662  1
  O  O227  1  0.75172319  0.84865942  0.08167154  1
  O  O228  1  0.18025157  0.87574005  0.57835280  1
  O  O229  1  0.68019952  0.87632077  0.57777775  1
  O  O230  1  0.25915759  0.64811160  0.57981386  1
  O  O231  1  0.75959495  0.64934984  0.57879768  1
  O  O232  1  0.07939179  0.49357661  0.58182181  1
  O  O233  1  0.57911782  0.49265105  0.58142263  1
  O  O234  1  0.14637672  0.82277532  0.25352481  1
  O  O235  1  0.65268744  0.82861493  0.25420906  1
  O  O236  1  0.25504886  0.65954326  0.25087468  1
  O  O237  1  0.75764688  0.67441819  0.25375338  1
  O  O238  1  0.07214995  0.46375299  0.25699185  1
  O  O239  1  0.57390675  0.46280703  0.25563967  1
  O  O240  1  0.15316352  0.47871610  0.75277933  1
  O  O241  1  0.64617739  0.47156294  0.75283002  1
  O  O242  1  0.07495400  0.68622017  0.75433845  1
  O  O243  1  0.57038503  0.67997566  0.75509805  1
  O  O244  1  0.25698626  0.83743584  0.75235841  1
  O  O245  1  0.75459553  0.84886287  0.75041608  1
