# generated using pymatgen
data_Na2Nb4Al4Si5S7O48
_symmetry_space_group_name_H-M   'P 1'
_cell_length_a   17.34673899
_cell_length_b   8.68760362
_cell_length_c   22.52083770
_cell_angle_alpha   90.14568948
_cell_angle_beta   89.75533502
_cell_angle_gamma   120.06965331
_symmetry_Int_Tables_number   1
_chemical_formula_structural   Na2Nb4Al4Si5S7O48
_chemical_formula_sum   'Na6 Nb12 Al12 Si15 S21 O144'
_cell_volume   2937.13399142
_cell_formula_units_Z   3
loop_
 _symmetry_equiv_pos_site_id
 _symmetry_equiv_pos_as_xyz
  1  'x, y, z'
loop_
 _atom_site_type_symbol
 _atom_site_label
 _atom_site_symmetry_multiplicity
 _atom_site_fract_x
 _atom_site_fract_y
 _atom_site_fract_z
 _atom_site_occupancy
  Na  Na0  1  0.00040526  0.99412897  0.49668198  1
  Na  Na1  1  0.49785136  0.00360043  0.99560057  1
  Na  Na2  1  0.33225081  0.32714736  0.84052010  1
  Na  Na3  1  0.83377179  0.33733234  0.83681191  1
  Na  Na4  1  0.33171426  0.32777343  0.33455066  1
  Na  Na5  1  0.83677143  0.33764729  0.33674686  1
  Nb  Nb6  1  0.50382482  0.01366870  0.35266015  1
  Nb  Nb7  1  0.00944215  0.99469303  0.85629767  1
  Nb  Nb8  1  0.50575705  0.01358816  0.63878992  1
  Nb  Nb9  1  0.00763782  0.00115542  0.13745579  1
  Nb  Nb10  1  0.33495952  0.34895362  0.69074509  1
  Nb  Nb11  1  0.82769254  0.32717068  0.69434639  1
  Nb  Nb12  1  0.32749306  0.32442894  0.19114414  1
  Nb  Nb13  1  0.83475056  0.32162350  0.18849642  1
  Nb  Nb14  1  0.16408208  0.66967966  0.02436516  1
  Nb  Nb15  1  0.66141177  0.65762352  0.02181885  1
  Nb  Nb16  1  0.16209183  0.66652814  0.52222659  1
  Nb  Nb17  1  0.66641619  0.67008364  0.52633868  1
  Al  Al18  1  0.00508556  0.98728687  0.35382025  1
  Al  Al19  1  0.50283090  0.01958161  0.85491516  1
  Al  Al20  1  0.00634125  0.00787047  0.65756497  1
  Al  Al21  1  0.50633323  0.00783102  0.15264569  1
  Al  Al22  1  0.32791641  0.32372559  0.97119812  1
  Al  Al23  1  0.83891832  0.33328586  0.98236056  1
  Al  Al24  1  0.33572416  0.33912310  0.48418536  1
  Al  Al25  1  0.83768462  0.33601507  0.47887203  1
  Al  Al26  1  0.15231866  0.66563046  0.31204368  1
  Al  Al27  1  0.66614811  0.66928440  0.30396374  1
  Al  Al28  1  0.16543578  0.67613184  0.80693333  1
  Al  Al29  1  0.65470727  0.64092939  0.81294114  1
  Si  Si30  1  0.13747450  0.98378955  0.25481529  1
  Si  Si31  1  0.64321015  0.99078592  0.24670176  1
  Si  Si32  1  0.50663527  0.29802997  0.24596074  1
  Si  Si33  1  0.14193593  0.30304901  0.74890749  1
  Si  Si34  1  0.63607529  0.29040894  0.75576076  1
  Si  Si35  1  0.00709014  0.71975686  0.74676512  1
  Si  Si36  1  0.46884208  0.32889242  0.57946798  1
  Si  Si37  1  0.69907635  0.06756925  0.57788954  1
  Si  Si38  1  0.33251893  0.61670029  0.57929687  1
  Si  Si39  1  0.97031338  0.60933195  0.07914919  1
  Si  Si40  1  0.83244665  0.04600560  0.07846631  1
  Si  Si41  1  0.20005200  0.34077203  0.07689083  1
  Si  Si42  1  0.51590208  0.36983933  0.91400804  1
  Si  Si43  1  0.17541890  0.95327271  0.91278012  1
  Si  Si44  1  0.01496888  0.66174575  0.41434336  1
  S  S45  1  0.35309925  0.71646224  0.25012643  1
  S  S46  1  0.85577756  0.71787728  0.25351505  1
  S  S47  1  0.00445729  0.28712885  0.25474404  1
  S  S48  1  0.50532442  0.72277873  0.75468949  1
  S  S49  1  0.35639758  0.99433187  0.75248251  1
  S  S50  1  0.85323875  0.98796587  0.75094590  1
  S  S51  1  0.97387422  0.32075816  0.58283268  1
  S  S52  1  0.18711114  0.05143120  0.58207352  1
  S  S53  1  0.83998318  0.62767857  0.58226454  1
  S  S54  1  0.47382268  0.62811629  0.08281872  1
  S  S55  1  0.34066842  0.04976779  0.08244237  1
  S  S56  1  0.68712513  0.32345873  0.08184213  1
  S  S57  1  0.31371510  0.66981384  0.91378168  1
  S  S58  1  0.80779340  0.65872371  0.91558538  1
  S  S59  1  0.01868023  0.37954363  0.91547186  1
  S  S60  1  0.66787261  0.95816918  0.91397443  1
  S  S61  1  0.30819910  0.95789582  0.41582551  1
  S  S62  1  0.81210160  0.95602078  0.41360043  1
  S  S63  1  0.16779706  0.37717151  0.41406931  1
  S  S64  1  0.67112108  0.38661322  0.41542043  1
  S  S65  1  0.52049629  0.65823366  0.41528902  1
  O  O66  1  0.09857587  0.04050621  0.30981069  1
  O  O67  1  0.59540662  0.02925316  0.30680252  1
  O  O68  1  0.41153658  0.79537564  0.30412679  1
  O  O69  1  0.91319125  0.80060233  0.30612194  1
  O  O70  1  0.48154921  0.16283404  0.30692823  1
  O  O71  1  0.98435430  0.17163879  0.30703775  1
  O  O72  1  0.09667418  0.16408567  0.80675636  1
  O  O73  1  0.59645796  0.15362533  0.80966215  1
  O  O74  1  0.48459489  0.79757632  0.80667085  1
  O  O75  1  0.97904748  0.79758772  0.80643561  1
  O  O76  1  0.41360298  0.02830897  0.80489334  1
  O  O77  1  0.91009161  0.02939559  0.80368963  1
  O  O78  1  0.39623180  0.96919079  0.69759838  1
  O  O79  1  0.89436861  0.96712437  0.69582092  1
  O  O80  1  0.08341356  0.20759000  0.69091631  1
  O  O81  1  0.58174629  0.19534836  0.69400706  1
  O  O82  1  0.01214152  0.83208699  0.68911483  1
  O  O83  1  0.51412183  0.81747153  0.69874084  1
  O  O84  1  0.39449136  0.82241630  0.19653600  1
  O  O85  1  0.89228594  0.82152355  0.19891786  1
  O  O86  1  0.01395050  0.21054626  0.19914170  1
  O  O87  1  0.51314077  0.19182940  0.19040877  1
  O  O88  1  0.08105131  0.96694378  0.19428268  1
  O  O89  1  0.58158308  0.96343174  0.19086332  1
  O  O90  1  0.43024805  0.36434850  0.64064987  1
  O  O91  1  0.93881512  0.36106847  0.63633473  1
  O  O92  1  0.24185476  0.12559317  0.63590888  1
  O  O93  1  0.75620368  0.14325754  0.63833779  1
  O  O94  1  0.31372860  0.49387381  0.64031332  1
  O  O95  1  0.82115222  0.51650317  0.63594130  1
  O  O96  1  0.43913830  0.51822993  0.13720229  1
  O  O97  1  0.92835476  0.49708435  0.14093090  1
  O  O98  1  0.32333436  0.12859134  0.13708866  1
  O  O99  1  0.81355194  0.13203800  0.14041013  1
  O  O100  1  0.25477411  0.36729343  0.13938715  1
  O  O101  1  0.74163790  0.35679913  0.13632734  1
  O  O102  1  0.24781744  0.30612687  0.02339872  1
  O  O103  1  0.72822727  0.29931491  0.02810454  1
  O  O104  1  0.42202438  0.54593077  0.02972783  1
  O  O105  1  0.91097497  0.52642079  0.02214399  1
  O  O106  1  0.35524138  0.15894290  0.03004848  1
  O  O107  1  0.84582661  0.16831712  0.02302410  1
  O  O108  1  0.22861961  0.15651976  0.52784199  1
  O  O109  1  0.74507345  0.18633151  0.52130353  1
  O  O110  1  0.34602014  0.52397367  0.52261543  1
  O  O111  1  0.85318872  0.54561214  0.52886561  1
  O  O112  1  0.41205357  0.29694821  0.52129141  1
  O  O113  1  0.92123985  0.29984334  0.52894523  1
  O  O114  1  0.27412026  0.70127993  0.96880692  1
  O  O115  1  0.76783839  0.68760275  0.97100545  1
  O  O116  1  0.07342228  0.45487112  0.97055387  1
  O  O117  1  0.58305801  0.46950121  0.97338302  1
  O  O118  1  0.15547201  0.83247648  0.97353617  1
  O  O119  1  0.65545798  0.84689667  0.96890592  1
  O  O120  1  0.26901641  0.84928096  0.47095621  1
  O  O121  1  0.77173919  0.84427553  0.46865162  1
  O  O122  1  0.15528676  0.46385531  0.46895041  1
  O  O123  1  0.65532516  0.46359871  0.46996821  1
  O  O124  1  0.08090526  0.69310822  0.47368110  1
  O  O125  1  0.57618182  0.68950254  0.47006857  1
  O  O126  1  0.06483385  0.62526613  0.36054550  1
  O  O127  1  0.56506940  0.63418771  0.36369130  1
  O  O128  1  0.25462243  0.87046305  0.36317119  1
  O  O129  1  0.75409982  0.86694881  0.36247931  1
  O  O130  1  0.18493957  0.49174824  0.36188307  1
  O  O131  1  0.68234297  0.49451434  0.36297815  1
  O  O132  1  0.06102004  0.48930918  0.86350859  1
  O  O133  1  0.56662823  0.50504735  0.86027536  1
  O  O134  1  0.18325306  0.84989605  0.85733941  1
  O  O135  1  0.68516101  0.87785199  0.86163952  1
  O  O136  1  0.25717037  0.63819658  0.86208332  1
  O  O137  1  0.75336819  0.63625403  0.86299135  1
  O  O138  1  0.00682198  0.84005233  0.40932448  1
  O  O139  1  0.51043101  0.81791194  0.40954701  1
  O  O140  1  0.39787982  0.97446719  0.41033858  1
  O  O141  1  0.90244662  0.97904704  0.40706921  1
  O  O142  1  0.08437489  0.20249540  0.40993761  1
  O  O143  1  0.58799353  0.20512774  0.41026894  1
  O  O144  1  0.00591820  0.19785075  0.90911362  1
  O  O145  1  0.50867997  0.17605960  0.90944803  1
  O  O146  1  0.08260195  0.96822104  0.90963056  1
  O  O147  1  0.58478182  0.96617640  0.90985733  1
  O  O148  1  0.40461068  0.83029967  0.90655008  1
  O  O149  1  0.89608832  0.82139376  0.91047500  1
  O  O150  1  0.48489990  0.16269511  0.58983081  1
  O  O151  1  0.98395266  0.16239331  0.58942085  1
  O  O152  1  0.09691298  0.02743343  0.58835144  1
  O  O153  1  0.59823992  0.02489373  0.59026989  1
  O  O154  1  0.41668082  0.80624077  0.59662900  1
  O  O155  1  0.91554265  0.80918072  0.58979117  1
  O  O156  1  0.48505860  0.80824588  0.09123292  1
  O  O157  1  0.98385901  0.80587436  0.09028176  1
  O  O158  1  0.41785307  0.02356434  0.09189809  1
  O  O159  1  0.91702770  0.02814357  0.09716122  1
  O  O160  1  0.09995497  0.17320952  0.09099598  1
  O  O161  1  0.59689466  0.16627116  0.08896156  1
  O  O162  1  0.34730755  0.15775019  0.74513051  1
  O  O163  1  0.84716269  0.15732026  0.74378433  1
  O  O164  1  0.23863817  0.30275503  0.74280261  1
  O  O165  1  0.73734379  0.30815729  0.74350148  1
  O  O166  1  0.42304762  0.53460816  0.74826317  1
  O  O167  1  0.91611489  0.51932083  0.73887526  1
  O  O168  1  0.34861055  0.53857587  0.24498091  1
  O  O169  1  0.84614551  0.53652046  0.24686382  1
  O  O170  1  0.41710272  0.31757004  0.24100895  1
  O  O171  1  0.92279725  0.31196326  0.24861459  1
  O  O172  1  0.23876298  0.16779112  0.24327149  1
  O  O173  1  0.73969379  0.18087821  0.24472500  1
  O  O174  1  0.32347093  0.51119058  0.92316224  1
  O  O175  1  0.81611667  0.49740296  0.92313459  1
  O  O176  1  0.42377313  0.36278217  0.92984017  1
  O  O177  1  0.92850945  0.36252597  0.92276528  1
  O  O178  1  0.25528639  0.15193347  0.92103573  1
  O  O179  1  0.74676191  0.14005307  0.92312327  1
  O  O180  1  0.31713741  0.13618498  0.42335782  1
  O  O181  1  0.81914725  0.13249165  0.42245544  1
  O  O182  1  0.24652558  0.35264291  0.42317064  1
  O  O183  1  0.74814191  0.36080039  0.42226510  1
  O  O184  1  0.43073779  0.49794312  0.42214617  1
  O  O185  1  0.91920541  0.48494346  0.42843845  1
  O  O186  1  0.18520123  0.50926199  0.07022155  1
  O  O187  1  0.67935408  0.48759303  0.07581629  1
  O  O188  1  0.07036920  0.63483006  0.07478130  1
  O  O189  1  0.56624987  0.65066162  0.07503569  1
  O  O190  1  0.25869462  0.87139386  0.07687785  1
  O  O191  1  0.74562743  0.84945933  0.07075653  1
  O  O192  1  0.17950858  0.87114671  0.57480972  1
  O  O193  1  0.68443301  0.86459154  0.57008714  1
  O  O194  1  0.24571360  0.64128433  0.56996134  1
  O  O195  1  0.75677240  0.64088873  0.57346361  1
  O  O196  1  0.06553217  0.48198972  0.57416409  1
  O  O197  1  0.57152219  0.50123427  0.57043837  1
  O  O198  1  0.15825032  0.82559357  0.26188578  1
  O  O199  1  0.65890012  0.83331564  0.26447118  1
  O  O200  1  0.26486286  0.69050346  0.26162262  1
  O  O201  1  0.76673696  0.69368964  0.26411541  1
  O  O202  1  0.08373288  0.46411879  0.26214901  1
  O  O203  1  0.59076605  0.47851666  0.26519695  1
  O  O204  1  0.16024425  0.49302323  0.76712182  1
  O  O205  1  0.65800036  0.49092681  0.76141012  1
  O  O206  1  0.08821641  0.69309095  0.76013859  1
  O  O207  1  0.58393509  0.70313332  0.76162763  1
  O  O208  1  0.26846334  0.83842796  0.75967483  1
  O  O209  1  0.76376964  0.83870096  0.75988138  1
