# generated using pymatgen
data_Na2YAlSi(SO6)2
_symmetry_space_group_name_H-M   'P 1'
_cell_length_a   8.89799420
_cell_length_b   8.95214267
_cell_length_c   22.86443411
_cell_angle_alpha   89.42562954
_cell_angle_beta   89.32751115
_cell_angle_gamma   120.02007538
_symmetry_Int_Tables_number   1
_chemical_formula_structural   Na2YAlSi(SO6)2
_chemical_formula_sum   'Na12 Y6 Al6 Si6 S12 O72'
_cell_volume   1576.59150094
_cell_formula_units_Z   6
loop_
 _symmetry_equiv_pos_site_id
 _symmetry_equiv_pos_as_xyz
  1  'x, y, z'
loop_
 _atom_site_type_symbol
 _atom_site_label
 _atom_site_symmetry_multiplicity
 _atom_site_fract_x
 _atom_site_fract_y
 _atom_site_fract_z
 _atom_site_occupancy
  Na  Na0  1  0.99888998  0.62878022  0.25236142  1
  Na  Na1  1  0.37885128  0.00825163  0.74594456  1
  Na  Na2  1  0.65894584  0.96295730  0.59452029  1
  Na  Na3  1  0.03073281  0.33878957  0.09797075  1
  Na  Na4  1  0.99168545  0.67838732  0.92948746  1
  Na  Na5  1  0.32393883  0.02009736  0.42014453  1
  Na  Na6  1  0.01086146  0.98433392  0.50082912  1
  Na  Na7  1  0.02048259  0.98162271  0.00300389  1
  Na  Na8  1  0.66543335  0.30089417  0.82880526  1
  Na  Na9  1  0.68407453  0.33663301  0.33712771  1
  Na  Na10  1  0.33133198  0.65531636  0.17430827  1
  Na  Na11  1  0.33315895  0.66699664  0.66281213  1
  Y  Y12  1  0.99533593  0.00760694  0.84506378  1
  Y  Y13  1  0.99936208  0.98969990  0.15865055  1
  Y  Y14  1  0.65508193  0.32387396  0.98183310  1
  Y  Y15  1  0.33134247  0.68401819  0.02391673  1
  Y  Y16  1  0.31563210  0.67732907  0.51572214  1
  Y  Y17  1  0.35524934  0.68504198  0.80727271  1
  Al  Al18  1  0.97384960  0.99065959  0.34966571  1
  Al  Al19  1  0.01485276  0.00081417  0.64738319  1
  Al  Al20  1  0.66382007  0.32097517  0.67924242  1
  Al  Al21  1  0.68755879  0.32458825  0.18983973  1
  Al  Al22  1  0.67434562  0.35525982  0.48703265  1
  Al  Al23  1  0.29430250  0.63023575  0.32009548  1
  Si  Si24  1  0.00074825  0.29289059  0.25224105  1
  Si  Si25  1  0.71834481  0.01759293  0.73633013  1
  Si  Si26  1  0.37756497  0.06417376  0.58207879  1
  Si  Si27  1  0.95077814  0.62336765  0.08744240  1
  Si  Si28  1  0.33205567  0.97553634  0.90958167  1
  Si  Si29  1  0.01773294  0.66894362  0.41283305  1
  S  S30  1  0.31460157  0.00074075  0.25613864  1
  S  S31  1  0.68410582  0.69501535  0.25791213  1
  S  S32  1  0.30484019  0.29419775  0.73934560  1
  S  S33  1  0.98305764  0.69546359  0.74196197  1
  S  S34  1  0.94327006  0.32782730  0.58289834  1
  S  S35  1  0.67782976  0.62003519  0.58590049  1
  S  S36  1  0.66557625  0.04207916  0.09223652  1
  S  S37  1  0.37887664  0.33449260  0.09259233  1
  S  S38  1  0.63348760  0.66576369  0.91681768  1
  S  S39  1  0.04301497  0.36938946  0.91767685  1
  S  S40  1  0.63097931  0.96058020  0.41332918  1
  S  S41  1  0.32718703  0.36752457  0.41377092  1
  O  O42  1  0.23096063  0.03116704  0.30721469  1
  O  O43  1  0.81637571  0.78895149  0.30388255  1
  O  O44  1  0.97854813  0.15213496  0.30269963  1
  O  O45  1  0.24056729  0.19441721  0.79523972  1
  O  O46  1  0.95946488  0.76085525  0.79874974  1
  O  O47  1  0.80690275  0.03291495  0.79898633  1
  O  O48  1  0.83056791  0.99652528  0.68226612  1
  O  O49  1  0.18981286  0.19377955  0.69126240  1
  O  O50  1  0.02076278  0.82627621  0.69442975  1
  O  O51  1  0.74661459  0.79258285  0.20166150  1
  O  O52  1  0.03343292  0.23343657  0.18885353  1
  O  O53  1  0.19778822  0.95243364  0.20460171  1
  O  O54  1  0.86222010  0.35005395  0.63621316  1
  O  O55  1  0.49889964  0.15393316  0.63822070  1
  O  O56  1  0.66329739  0.51424458  0.63731609  1
  O  O57  1  0.83790514  0.49754460  0.14409564  1
  O  O58  1  0.65007009  0.13582812  0.14300555  1
  O  O59  1  0.47727035  0.32860077  0.14309133  1
  O  O60  1  0.45292566  0.32222796  0.03618572  1
  O  O61  1  0.86860418  0.54314045  0.02385710  1
  O  O62  1  0.67664422  0.13092911  0.03665543  1
  O  O63  1  0.47729888  0.17938281  0.52126769  1
  O  O64  1  0.69708812  0.54160534  0.53106731  1
  O  O65  1  0.84001552  0.31611403  0.53030274  1
  O  O66  1  0.54144173  0.66247081  0.97075850  1
  O  O67  1  0.13460296  0.44815585  0.97249658  1
  O  O68  1  0.31321602  0.85276747  0.96629835  1
  O  O69  1  0.57167596  0.86624359  0.47079931  1
  O  O70  1  0.30122733  0.44154357  0.46783783  1
  O  O71  1  0.15198850  0.73447525  0.46788629  1
  O  O72  1  0.11755780  0.63273819  0.35809022  1
  O  O73  1  0.50797834  0.86090366  0.36685069  1
  O  O74  1  0.34998291  0.48325992  0.36291663  1
  O  O75  1  0.14202052  0.47078587  0.86550481  1
  O  O76  1  0.33867244  0.88438911  0.84802752  1
  O  O77  1  0.53428493  0.65337120  0.86413615  1
  O  O78  1  0.00564948  0.84477171  0.39720106  1
  O  O79  1  0.80773670  0.98544923  0.40325135  1
  O  O80  1  0.17467227  0.19067606  0.40641124  1
  O  O81  1  0.01277717  0.19268451  0.91669721  1
  O  O82  1  0.14913249  0.97636893  0.91280038  1
  O  O83  1  0.80379349  0.82677184  0.91535057  1
  O  O84  1  0.95504695  0.16864176  0.58432554  1
  O  O85  1  0.17843439  0.03395052  0.59214339  1
  O  O86  1  0.83352211  0.79693271  0.58868711  1
  O  O87  1  0.97917018  0.81724687  0.08992333  1
  O  O88  1  0.82680877  0.03417749  0.09420825  1
  O  O89  1  0.19795080  0.18570504  0.09283155  1
  O  O90  1  0.68669304  0.18514229  0.73313123  1
  O  O91  1  0.48292186  0.32235669  0.73202792  1
  O  O92  1  0.82867570  0.52789098  0.73186503  1
  O  O93  1  0.67393838  0.52413750  0.25272890  1
  O  O94  1  0.82726631  0.32077881  0.24735577  1
  O  O95  1  0.48321072  0.15927656  0.24286865  1
  O  O96  1  0.66800885  0.52056594  0.91462940  1
  O  O97  1  0.87504588  0.36717161  0.91647884  1
  O  O98  1  0.50333424  0.16396832  0.91118822  1
  O  O99  1  0.64054873  0.13089956  0.41766259  1
  O  O100  1  0.48602688  0.35177220  0.41702499  1
  O  O101  1  0.83128918  0.49380818  0.43065697  1
  O  O102  1  0.36905819  0.49546155  0.09276276  1
  O  O103  1  0.13895445  0.62703669  0.09187830  1
  O  O104  1  0.51287112  0.86752919  0.09384060  1
  O  O105  1  0.36912393  0.87420933  0.57914055  1
  O  O106  1  0.52069299  0.63884840  0.58297587  1
  O  O107  1  0.12127424  0.47958153  0.57993477  1
  O  O108  1  0.33824437  0.84818272  0.26583697  1
  O  O109  1  0.51402776  0.67800929  0.27151741  1
  O  O110  1  0.16671367  0.49109162  0.26262278  1
  O  O111  1  0.30993868  0.46105810  0.74223729  1
  O  O112  1  0.14105391  0.67755997  0.74381095  1
  O  O113  1  0.51983285  0.84602442  0.73514191  1
