# generated using pymatgen
data_Na15MgTa11(SiO4)18
_symmetry_space_group_name_H-M   'P 1'
_cell_length_a   9.02741217
_cell_length_b   9.02749771
_cell_length_c   22.60253187
_cell_angle_alpha   90.16541530
_cell_angle_beta   89.84212673
_cell_angle_gamma   120.19398588
_symmetry_Int_Tables_number   1
_chemical_formula_structural   Na15MgTa11(SiO4)18
_chemical_formula_sum   'Na15 Mg1 Ta11 Si18 O72'
_cell_volume   1592.07610938
_cell_formula_units_Z   1
loop_
 _symmetry_equiv_pos_site_id
 _symmetry_equiv_pos_as_xyz
  1  'x, y, z'
loop_
 _atom_site_type_symbol
 _atom_site_label
 _atom_site_symmetry_multiplicity
 _atom_site_fract_x
 _atom_site_fract_y
 _atom_site_fract_z
 _atom_site_occupancy
  Na  Na0  1  0.36486020  0.36441707  0.25115800  1
  Na  Na1  1  0.63378289  0.61626591  0.74375066  1
  Na  Na2  1  0.98203150  0.36696372  0.74383985  1
  Na  Na3  1  0.38529905  0.01777733  0.74359110  1
  Na  Na4  1  0.31131516  0.33632111  0.58344925  1
  Na  Na5  1  0.02443849  0.68796699  0.58351418  1
  Na  Na6  1  0.66345131  0.97510227  0.58350345  1
  Na  Na7  1  0.30183665  0.96900865  0.08485316  1
  Na  Na8  1  0.69931000  0.03348586  0.91784329  1
  Na  Na9  1  0.00041396  0.00021037  0.49367292  1
  Na  Na10  1  0.00034128  0.00050587  0.00209137  1
  Na  Na11  1  0.66586496  0.33985709  0.82886610  1
  Na  Na12  1  0.67448979  0.33234549  0.33479353  1
  Na  Na13  1  0.33378367  0.66701625  0.16867572  1
  Na  Na14  1  0.33347029  0.66693394  0.66478901  1
  Mg  Mg15  1  0.66687450  0.33351762  0.68546688  1
  Ta  Ta16  1  0.99916984  -0.00018318  0.35524020  1
  Ta  Ta17  1  0.00408250  0.99965357  0.85633700  1
  Ta  Ta18  1  0.00002782  0.99991894  0.64598799  1
  Ta  Ta19  1  0.99516082  0.99950834  0.14561207  1
  Ta  Ta20  1  0.67070529  0.33395033  0.18890777  1
  Ta  Ta21  1  0.66726090  0.33766018  0.97859553  1
  Ta  Ta22  1  0.66604633  0.33340494  0.47721459  1
  Ta  Ta23  1  0.33280908  0.66233954  0.02263689  1
  Ta  Ta24  1  0.33299301  0.66659668  0.51653197  1
  Ta  Ta25  1  0.33300223  0.67113860  0.31189416  1
  Ta  Ta26  1  0.33311274  0.66576004  0.81388874  1
  Si  Si27  1  0.28583440  0.99664948  0.24915912  1
  Si  Si28  1  0.71213092  0.71209090  0.25067281  1
  Si  Si29  1  0.99744546  0.28681937  0.25079846  1
  Si  Si30  1  0.29007228  0.29072315  0.75065921  1
  Si  Si31  1  0.00061907  0.71019763  0.75077128  1
  Si  Si32  1  0.71052881  0.99976018  0.75188466  1
  Si  Si33  1  0.95567614  0.33525751  0.58506848  1
  Si  Si34  1  0.37949630  0.04374215  0.58526887  1
  Si  Si35  1  0.66371476  0.62042939  0.58517838  1
  Si  Si36  1  0.95438924  0.62192752  0.08352188  1
  Si  Si37  1  0.67046763  0.04742571  0.08234595  1
  Si  Si38  1  0.37966201  0.33527656  0.08453554  1
  Si  Si39  1  0.62091721  0.66306332  0.91688447  1
  Si  Si40  1  0.04388405  0.37825891  0.91702215  1
  Si  Si41  1  0.33105395  0.95470654  0.91833567  1
  Si  Si42  1  0.62527523  0.95848720  0.41596717  1
  Si  Si43  1  0.33397248  0.37626775  0.41480855  1
  Si  Si44  1  0.04216109  0.66698997  0.41576453  1
  O  O45  1  0.19458264  0.03359027  0.30545684  1
  O  O46  1  0.83392930  0.80568924  0.30758520  1
  O  O47  1  0.97170726  0.16621644  0.30786393  1
  O  O48  1  0.18540099  0.16579817  0.80640511  1
  O  O49  1  0.97818567  0.81369336  0.80646637  1
  O  O50  1  0.83012160  0.02044035  0.80915632  1
  O  O51  1  0.80088194  0.96481467  0.69278762  1
  O  O52  1  0.16569054  0.20127891  0.69158000  1
  O  O53  1  0.03585353  0.83505798  0.69178987  1
  O  O54  1  0.80689027  0.83326398  0.19262739  1
  O  O55  1  0.03265448  0.19510741  0.19328090  1
  O  O56  1  0.17158542  0.97239054  0.18941193  1
  O  O57  1  0.89084620  0.38115696  0.64473333  1
  O  O58  1  0.49044375  0.10941486  0.64474150  1
  O  O59  1  0.61836220  0.50949061  0.64462483  1
  O  O60  1  0.85971243  0.49973870  0.14053576  1
  O  O61  1  0.63333708  0.13955877  0.13859986  1
  O  O62  1  0.49498762  0.36122372  0.14336816  1
  O  O63  1  0.47346672  0.30134212  0.02747517  1
  O  O64  1  0.83368200  0.52648412  0.02569268  1
  O  O65  1  0.69448718  0.16139868  0.02274053  1
  O  O66  1  0.46969100  0.17187147  0.52863187  1
  O  O67  1  0.70218799  0.53028614  0.52857385  1
  O  O68  1  0.82747871  0.29786983  0.52857766  1
  O  O69  1  0.52716066  0.69985883  0.97237738  1
  O  O70  1  0.16829461  0.47553206  0.97311811  1
  O  O71  1  0.30634890  0.83715334  0.97617524  1
  O  O72  1  0.53281084  0.84165060  0.47552330  1
  O  O73  1  0.30916321  0.46953275  0.47429776  1
  O  O74  1  0.15933835  0.69166379  0.47525457  1
  O  O75  1  0.14069348  0.63956109  0.35965159  1
  O  O76  1  0.50010603  0.85876569  0.35980637  1
  O  O77  1  0.35991788  0.49551440  0.35701205  1
  O  O78  1  0.13516348  0.49579907  0.85762521  1
  O  O79  1  0.36417882  0.86369134  0.85953510  1
  O  O80  1  0.50351806  0.63843720  0.85743489  1
  O  O81  1  0.02686708  0.83830755  0.40967603  1
  O  O82  1  0.81256093  0.97479375  0.41038673  1
  O  O83  1  0.16269971  0.18752725  0.41020905  1
  O  O84  1  0.01742880  0.18539709  0.91060447  1
  O  O85  1  0.16283021  0.97500286  0.91060205  1
  O  O86  1  0.80655612  0.83978578  0.91015330  1
  O  O87  1  0.97648342  0.16154421  0.58950262  1
  O  O88  1  0.18508239  0.02316855  0.58948651  1
  O  O89  1  0.83822817  0.81509540  0.58947169  1
  O  O90  1  0.98264631  0.81565164  0.08905809  1
  O  O91  1  0.83862729  0.02624818  0.08967226  1
  O  O92  1  0.19225801  0.15903580  0.08935286  1
  O  O93  1  0.69107809  0.16603389  0.74928766  1
  O  O94  1  0.47529252  0.30914719  0.74885000  1
  O  O95  1  0.83338764  0.52456784  0.74871137  1
  O  O96  1  0.68486752  0.51826942  0.24332498  1
  O  O97  1  0.82837458  0.30654459  0.24279312  1
  O  O98  1  0.47401886  0.17313377  0.24266925  1
  O  O99  1  0.63958201  0.49413651  0.92327181  1
  O  O100  1  0.85135670  0.35163544  0.92280131  1
  O  O101  1  0.50787089  0.14070667  0.92305051  1
  O  O102  1  0.64004597  0.14540306  0.42401222  1
  O  O103  1  0.50538707  0.36022255  0.42425603  1
  O  O104  1  0.85475246  0.49473329  0.42415752  1
  O  O105  1  0.35990012  0.50449034  0.07599946  1
  O  O106  1  0.14801458  0.64834188  0.07669969  1
  O  O107  1  0.49343533  0.85956869  0.07615485  1
  O  O108  1  0.34694801  0.84753763  0.57440610  1
  O  O109  1  0.50018131  0.65272373  0.57426389  1
  O  O110  1  0.15239806  0.49932910  0.57425395  1
  O  O111  1  0.30777601  0.82845398  0.25612751  1
  O  O112  1  0.51808220  0.68421252  0.25613867  1
  O  O113  1  0.17404975  0.47378492  0.25646352  1
  O  O114  1  0.29866537  0.47781479  0.75580699  1
  O  O115  1  0.17952123  0.70247394  0.75648000  1
  O  O116  1  0.52195014  0.82062097  0.75597209  1
