# generated using pymatgen
data_Mg(FeO2)4
_symmetry_space_group_name_H-M   'P 1'
_cell_length_a   3.02780119
_cell_length_b   5.17546197
_cell_length_c   9.26344006
_cell_angle_alpha   90.23112094
_cell_angle_beta   90.00000000
_cell_angle_gamma   90.00000000
_symmetry_Int_Tables_number   1
_chemical_formula_structural   Mg(FeO2)4
_chemical_formula_sum   'Mg1 Fe4 O8'
_cell_volume   145.15942500
_cell_formula_units_Z   1
loop_
 _symmetry_equiv_pos_site_id
 _symmetry_equiv_pos_as_xyz
  1  'x, y, z'
loop_
 _atom_site_type_symbol
 _atom_site_label
 _atom_site_symmetry_multiplicity
 _atom_site_fract_x
 _atom_site_fract_y
 _atom_site_fract_z
 _atom_site_occupancy
  Mg  Mg0  1  0.75000000  0.43709704  0.93042441  1
  Fe  Fe1  1  0.25000000  0.55632648  0.35799539  1
  Fe  Fe2  1  0.25000000  0.94021499  0.85592586  1
  Fe  Fe3  1  0.75000000  0.42558708  0.62838838  1
  Fe  Fe4  1  0.75000000  0.04597106  0.15439053  1
  O  O5  1  0.25000000  0.58652163  0.76469735  1
  O  O6  1  0.25000000  0.87000351  0.24589875  1
  O  O7  1  0.75000000  0.38517602  0.25629581  1
  O  O8  1  0.75000000  0.14110150  0.76508472  1
  O  O9  1  0.25000000  0.29756520  0.51481438  1
  O  O10  1  0.25000000  0.22374555  0.01956975  1
  O  O11  1  0.75000000  0.68798773  0.48279413  1
  O  O12  1  0.75000000  0.80548223  0.97996856  1
