# generated using pymatgen
data_Na3YHf3(PO4)6
_symmetry_space_group_name_H-M   'P 1'
_cell_length_a   8.98903146
_cell_length_b   8.99591537
_cell_length_c   23.17821279
_cell_angle_alpha   89.88261995
_cell_angle_beta   90.10217360
_cell_angle_gamma   120.33348235
_symmetry_Int_Tables_number   1
_chemical_formula_structural   Na3YHf3(PO4)6
_chemical_formula_sum   'Na9 Y3 Hf9 P18 O72'
_cell_volume   1617.70204753
_cell_formula_units_Z   3
loop_
 _symmetry_equiv_pos_site_id
 _symmetry_equiv_pos_as_xyz
  1  'x, y, z'
loop_
 _atom_site_type_symbol
 _atom_site_label
 _atom_site_symmetry_multiplicity
 _atom_site_fract_x
 _atom_site_fract_y
 _atom_site_fract_z
 _atom_site_occupancy
  Na  Na0  1  0.36143930  0.35561023  0.24681051  1
  Na  Na1  1  0.63510136  0.63088465  0.74895801  1
  Na  Na2  1  0.96998436  0.29841494  0.41505673  1
  Na  Na3  1  0.00050005  0.98781883  0.50089563  1
  Na  Na4  1  0.99979357  0.99997589  0.00252138  1
  Na  Na5  1  0.66703995  0.32054493  0.83482090  1
  Na  Na6  1  0.66796897  0.33396348  0.32859274  1
  Na  Na7  1  0.33238574  0.67925927  0.16391523  1
  Na  Na8  1  0.31977074  0.66703051  0.66502794  1
  Y  Y9  1  0.99688594  0.98716860  0.35416075  1
  Y  Y10  1  0.66755713  0.32474901  0.68539788  1
  Y  Y11  1  0.67606608  0.33331833  0.18022686  1
  Hf  Hf12  1  0.00302730  0.00258665  0.85632592  1
  Hf  Hf13  1  0.00298885  0.00404409  0.64605087  1
  Hf  Hf14  1  0.99649819  0.99701228  0.14638108  1
  Hf  Hf15  1  0.66616058  0.33418620  0.98160350  1
  Hf  Hf16  1  0.66032395  0.33406036  0.48301826  1
  Hf  Hf17  1  0.33379692  0.66542663  0.01699949  1
  Hf  Hf18  1  0.33731752  0.66845065  0.52062440  1
  Hf  Hf19  1  0.33621787  0.67518338  0.31355512  1
  Hf  Hf20  1  0.32718795  0.66707257  0.81534482  1
  P  P21  1  0.29042894  0.99595221  0.24895901  1
  P  P22  1  0.69964243  0.70520408  0.24912452  1
  P  P23  1  0.00440045  0.29548243  0.25280714  1
  P  P24  1  0.28467287  0.29224048  0.75189702  1
  P  P25  1  0.00726148  0.72009618  0.75154988  1
  P  P26  1  0.71220953  0.99440886  0.75250153  1
  P  P27  1  0.96337449  0.33131133  0.58085813  1
  P  P28  1  0.36649961  0.03478425  0.58252774  1
  P  P29  1  0.66873461  0.63144508  0.58493877  1
  P  P30  1  0.96784294  0.63543037  0.08039564  1
  P  P31  1  0.66777929  0.03453306  0.08072300  1
  P  P32  1  0.36720880  0.33257171  0.08289601  1
  P  P33  1  0.62279573  0.66342770  0.91523247  1
  P  P34  1  0.03906720  0.37560631  0.91696988  1
  P  P35  1  0.33621437  0.95904618  0.91681058  1
  P  P36  1  0.61940408  0.96256936  0.41879027  1
  P  P37  1  0.34215295  0.38484477  0.41684345  1
  P  P38  1  0.04251719  0.65902437  0.41937681  1
  O  O39  1  0.21199616  0.02448901  0.30330208  1
  O  O40  1  0.80150899  0.78255527  0.30417523  1
  O  O41  1  0.98684716  0.20023623  0.30965119  1
  O  O42  1  0.19329991  0.18327613  0.80549247  1
  O  O43  1  0.98816821  0.81201204  0.80475548  1
  O  O44  1  0.82031178  0.00805672  0.80591166  1
  O  O45  1  0.79827593  0.97070136  0.69763226  1
  O  O46  1  0.17908250  0.20425014  0.69662845  1
  O  O47  1  0.02652199  0.82621069  0.69631866  1
  O  O48  1  0.79441707  0.81775900  0.19547377  1
  O  O49  1  0.02761498  0.19804828  0.20057600  1
  O  O50  1  0.17615749  0.97426549  0.19539045  1
  O  O51  1  0.88698791  0.36365594  0.63455517  1
  O  O52  1  0.47248640  0.10816975  0.63709371  1
  O  O53  1  0.63741644  0.53071777  0.64124175  1
  O  O54  1  0.89977894  0.53161151  0.13562544  1
  O  O55  1  0.63180785  0.10201809  0.13581048  1
  O  O56  1  0.46637774  0.36503356  0.13957738  1
  O  O57  1  0.46742183  0.30948820  0.03203346  1
  O  O58  1  0.84637448  0.53834918  0.02866995  1
  O  O59  1  0.69272388  0.15595524  0.02899951  1
  O  O60  1  0.46084679  0.15343723  0.52997415  1
  O  O61  1  0.69089343  0.53329185  0.53326103  1
  O  O62  1  0.84888194  0.30671403  0.52685127  1
  O  O63  1  0.53267333  0.68903478  0.96699800  1
  O  O64  1  0.15275417  0.46240909  0.96958305  1
  O  O65  1  0.30937616  0.84509747  0.96926106  1
  O  O66  1  0.52754940  0.85288683  0.47175393  1
  O  O67  1  0.32432699  0.48157100  0.46851979  1
  O  O68  1  0.15151079  0.67196972  0.47199533  1
  O  O69  1  0.12926477  0.63686569  0.36415421  1
  O  O70  1  0.51417429  0.87367712  0.36338675  1
  O  O71  1  0.36065937  0.48717642  0.36024257  1
  O  O72  1  0.12769065  0.48807055  0.86270267  1
  O  O73  1  0.35985097  0.87172539  0.86242104  1
  O  O74  1  0.51482146  0.63996560  0.85956674  1
  O  O75  1  0.02034550  0.81514653  0.41830862  1
  O  O76  1  0.80294915  0.99142503  0.41698275  1
  O  O77  1  0.17614728  0.20800627  0.41589043  1
  O  O78  1  0.02073331  0.19594132  0.90994227  1
  O  O79  1  0.17498332  0.97777061  0.90979204  1
  O  O80  1  0.80465028  0.82522065  0.90953587  1
  O  O81  1  0.97707499  0.16686778  0.58801652  1
  O  O82  1  0.18795733  0.02096860  0.58786949  1
  O  O83  1  0.83355048  0.81165394  0.58883924  1
  O  O84  1  0.98100607  0.81391704  0.08672502  1
  O  O85  1  0.83319920  0.02143999  0.08742913  1
  O  O86  1  0.18623938  0.16775768  0.08788793  1
  O  O87  1  0.69041457  0.15125148  0.75010765  1
  O  O88  1  0.46849761  0.32116585  0.74921450  1
  O  O89  1  0.84101454  0.54313561  0.74853207  1
  O  O90  1  0.66307251  0.51932791  0.24410857  1
  O  O91  1  0.85231490  0.32410770  0.24655111  1
  O  O92  1  0.46979922  0.15657080  0.24314914  1
  O  O93  1  0.64005192  0.50162596  0.92310160  1
  O  O94  1  0.85903802  0.35694533  0.92325259  1
  O  O95  1  0.49780608  0.14019900  0.92337187  1
  O  O96  1  0.63738396  0.14412472  0.42347818  1
  O  O97  1  0.50391074  0.36699933  0.42379467  1
  O  O98  1  0.86348311  0.48935523  0.42400857  1
  O  O99  1  0.34427618  0.48912445  0.07094726  1
  O  O100  1  0.14887037  0.66069500  0.06989447  1
  O  O101  1  0.51248886  0.85250358  0.06988781  1
  O  O102  1  0.34016121  0.85326093  0.57324391  1
  O  O103  1  0.51256287  0.65562244  0.57411830  1
  O  O104  1  0.14719049  0.48686799  0.57283730  1
  O  O105  1  0.30390631  0.83093898  0.25514551  1
  O  O106  1  0.51940587  0.69270640  0.25421820  1
  O  O107  1  0.17783124  0.47382871  0.25589025  1
  O  O108  1  0.30322466  0.47449248  0.75691557  1
  O  O109  1  0.16859866  0.70052662  0.75718939  1
  O  O110  1  0.53282145  0.82438251  0.75741319  1
