# generated using pymatgen
data_Na6Ca8Ta16Si15(S7O48)3
_symmetry_space_group_name_H-M   'P 1'
_cell_length_a   17.89944492
_cell_length_b   8.95940468
_cell_length_c   23.31041036
_cell_angle_alpha   89.95877495
_cell_angle_beta   89.69652502
_cell_angle_gamma   120.00316409
_symmetry_Int_Tables_number   1
_chemical_formula_structural   Na6Ca8Ta16Si15(S7O48)3
_chemical_formula_sum   'Na6 Ca8 Ta16 Si15 S21 O144'
_cell_volume   3237.24853398
_cell_formula_units_Z   1
loop_
 _symmetry_equiv_pos_site_id
 _symmetry_equiv_pos_as_xyz
  1  'x, y, z'
loop_
 _atom_site_type_symbol
 _atom_site_label
 _atom_site_symmetry_multiplicity
 _atom_site_fract_x
 _atom_site_fract_y
 _atom_site_fract_z
 _atom_site_occupancy
  Na  Na0  1  0.99715970  0.99484302  0.49854206  1
  Na  Na1  1  0.49824784  0.00103784  0.00195308  1
  Na  Na2  1  0.33099718  0.33009513  0.84163263  1
  Na  Na3  1  0.83712601  0.32974323  0.83991463  1
  Na  Na4  1  0.33784994  0.34446661  0.33838078  1
  Na  Na5  1  0.83331710  0.34778577  0.33820680  1
  Ca  Ca6  1  0.99789763  0.99401997  0.34815295  1
  Ca  Ca7  1  0.50167121  0.99549832  0.85144032  1
  Ca  Ca8  1  0.99653182  0.99293804  0.65230650  1
  Ca  Ca9  1  0.49686912  -0.00000702  0.15251065  1
  Ca  Ca10  1  0.32695904  0.32479593  0.97777343  1
  Ca  Ca11  1  0.84132435  0.33179837  0.97844943  1
  Ca  Ca12  1  0.34248432  0.35347945  0.47736830  1
  Ca  Ca13  1  0.82774892  0.33118646  0.47682194  1
  Ta  Ta14  1  0.49601271  0.99686989  0.35645187  1
  Ta  Ta15  1  0.99420902  0.99128146  0.85821486  1
  Ta  Ta16  1  0.50490656  0.99589681  0.64963924  1
  Ta  Ta17  1  0.99610440  0.00087140  0.15342499  1
  Ta  Ta18  1  0.33088608  0.34014578  0.68332048  1
  Ta  Ta19  1  0.83892858  0.34336380  0.69253418  1
  Ta  Ta20  1  0.33626855  0.33582790  0.19227380  1
  Ta  Ta21  1  0.83174388  0.32501040  0.18706783  1
  Ta  Ta22  1  0.15859603  0.66231565  0.01938543  1
  Ta  Ta23  1  0.67006914  0.67342513  0.02665659  1
  Ta  Ta24  1  0.16958925  0.66648839  0.52418465  1
  Ta  Ta25  1  0.65997832  0.65432150  0.51559921  1
  Ta  Ta26  1  0.16212392  0.66352791  0.30278358  1
  Ta  Ta27  1  0.66449145  0.65181175  0.30923439  1
  Ta  Ta28  1  0.16279771  0.66887809  0.81341317  1
  Ta  Ta29  1  0.66255023  0.66292039  0.80396229  1
  Si  Si30  1  0.14423299  0.00435400  0.24970307  1
  Si  Si31  1  0.35618997  0.71058802  0.25129479  1
  Si  Si32  1  0.85229742  0.70140408  0.25143693  1
  Si  Si33  1  0.99521846  0.28522492  0.25207244  1
  Si  Si34  1  0.50024564  0.28492610  0.24978405  1
  Si  Si35  1  0.64538879  0.28792512  0.74995433  1
  Si  Si36  1  0.00306804  0.71837100  0.75030192  1
  Si  Si37  1  0.49410489  0.70154777  0.75142884  1
  Si  Si38  1  0.85655069  0.00282996  0.75140326  1
  Si  Si39  1  0.33638792  0.63538845  0.58304355  1
  Si  Si40  1  0.83822027  0.04606012  0.08340548  1
  Si  Si41  1  0.02301530  0.37466987  0.91424386  1
  Si  Si42  1  0.16547979  0.95464182  0.91414022  1
  Si  Si43  1  0.66459334  0.37301009  0.41225449  1
  Si  Si44  1  0.52470065  0.67181627  0.41117888  1
  S  S45  1  0.64816221  0.00209277  0.25267608  1
  S  S46  1  0.14965226  0.29535148  0.75223631  1
  S  S47  1  0.35241583  0.00133828  0.74748330  1
  S  S48  1  0.48008397  0.33095963  0.58539615  1
  S  S49  1  0.98085961  0.33957006  0.58139829  1
  S  S50  1  0.18874653  0.04000557  0.58027141  1
  S  S51  1  0.68763602  0.03678782  0.58591908  1
  S  S52  1  0.82967031  0.62340151  0.58176680  1
  S  S53  1  0.48046147  0.62304396  0.08117066  1
  S  S54  1  0.97997102  0.62974226  0.08492717  1
  S  S55  1  0.32989230  0.03527444  0.08115619  1
  S  S56  1  0.18632401  0.33630381  0.08560164  1
  S  S57  1  0.68752984  0.33471182  0.07960120  1
  S  S58  1  0.30726526  0.67274428  0.91796800  1
  S  S59  1  0.80515065  0.66987067  0.91457084  1
  S  S60  1  0.52964882  0.39114814  0.91738037  1
  S  S61  1  0.66400275  0.93863958  0.91775055  1
  S  S62  1  0.30583677  0.94040658  0.41434074  1
  S  S63  1  0.80871118  0.94436204  0.41752879  1
  S  S64  1  0.16330978  0.38665034  0.41730706  1
  S  S65  1  0.03004420  0.67029566  0.41751669  1
  O  O66  1  0.12238722  0.06235676  0.30788156  1
  O  O67  1  0.60605548  0.03596635  0.30237362  1
  O  O68  1  0.41953579  0.80350476  0.30702867  1
  O  O69  1  0.90762240  0.74713546  0.30759949  1
  O  O70  1  0.48247248  0.15787885  0.30585131  1
  O  O71  1  0.96798224  0.18229412  0.30975013  1
  O  O72  1  0.10902505  0.18083338  0.80211297  1
  O  O73  1  0.61824834  0.18014231  0.80708063  1
  O  O74  1  0.46363784  0.75235221  0.80732391  1
  O  O75  1  0.98429900  0.80825795  0.80617134  1
  O  O76  1  0.40295084  0.04827300  0.79952958  1
  O  O77  1  0.91993827  0.03478685  0.80714802  1
  O  O78  1  0.39754896  0.97818058  0.69785307  1
  O  O79  1  0.88257750  0.95741162  0.69313883  1
  O  O80  1  0.10206439  0.23860169  0.69960680  1
  O  O81  1  0.58122850  0.19261220  0.69506523  1
  O  O82  1  0.02787474  0.81836171  0.69249037  1
  O  O83  1  0.51119586  0.83116414  0.69598047  1
  O  O84  1  0.38242762  0.80724108  0.19289976  1
  O  O85  1  0.90425522  0.83140226  0.19650307  1
  O  O86  1  0.01312473  0.19480079  0.19624449  1
  O  O87  1  0.52509345  0.23413108  0.19204776  1
  O  O88  1  0.08298677  0.97140564  0.19414033  1
  O  O89  1  0.60085610  0.96663096  0.19995763  1
  O  O90  1  0.43305948  0.35638890  0.63524855  1
  O  O91  1  0.93987408  0.36623626  0.63397417  1
  O  O92  1  0.24324307  0.12097697  0.63332797  1
  O  O93  1  0.74409460  0.12556021  0.63588136  1
  O  O94  1  0.31618658  0.49482565  0.63888841  1
  O  O95  1  0.82086096  0.51570950  0.63392977  1
  O  O96  1  0.44043118  0.51496886  0.13340699  1
  O  O97  1  0.93682377  0.51165970  0.13453120  1
  O  O98  1  0.31940694  0.12158676  0.13291789  1
  O  O99  1  0.81632009  0.13844246  0.13796355  1
  O  O100  1  0.24599950  0.36741066  0.13477791  1
  O  O101  1  0.74052134  0.36509354  0.13180415  1
  O  O102  1  0.21967439  0.30291937  0.03329568  1
  O  O103  1  0.72922991  0.32097255  0.02798233  1
  O  O104  1  0.42996707  0.54479018  0.03017464  1
  O  O105  1  0.93145012  0.56603270  0.03269664  1
  O  O106  1  0.34094205  0.13792208  0.02993895  1
  O  O107  1  0.85403860  0.14717718  0.02588239  1
  O  O108  1  0.23148144  0.14152708  0.52962872  1
  O  O109  1  0.71793213  0.13745146  0.53383687  1
  O  O110  1  0.35832809  0.56347714  0.52892815  1
  O  O111  1  0.84070041  0.54202415  0.53093089  1
  O  O112  1  0.43034718  0.29267952  0.53349189  1
  O  O113  1  0.92921140  0.31474885  0.53089001  1
  O  O114  1  0.25751360  0.67659925  0.97089964  1
  O  O115  1  0.76500926  0.69017474  0.96857871  1
  O  O116  1  0.08086195  0.47450182  0.97374367  1
  O  O117  1  0.58212464  0.48643973  0.96934661  1
  O  O118  1  0.15451033  0.83014292  0.97220858  1
  O  O119  1  0.66312919  0.83760583  0.97112464  1
  O  O120  1  0.26450454  0.83891241  0.46915879  1
  O  O121  1  0.75748833  0.83693659  0.47239430  1
  O  O122  1  0.16349884  0.48892065  0.47184372  1
  O  O123  1  0.65371276  0.47587622  0.47193959  1
  O  O124  1  0.08307922  0.67663120  0.47007879  1
  O  O125  1  0.58105916  0.68632167  0.47342461  1
  O  O126  1  0.07646729  0.66418452  0.36540617  1
  O  O127  1  0.58733648  0.67620278  0.36064213  1
  O  O128  1  0.25217298  0.84845172  0.36495324  1
  O  O129  1  0.76066130  0.85831137  0.36619389  1
  O  O130  1  0.16669894  0.48931259  0.36696955  1
  O  O131  1  0.67584117  0.50210284  0.35925767  1
  O  O132  1  0.08503173  0.49687953  0.86088662  1
  O  O133  1  0.57609072  0.48953098  0.86448766  1
  O  O134  1  0.17655897  0.84796242  0.85970964  1
  O  O135  1  0.66632415  0.84298115  0.86643987  1
  O  O136  1  0.26004123  0.66414738  0.86473086  1
  O  O137  1  0.75232904  0.65605256  0.86432453  1
  O  O138  1  0.02512027  0.82669604  0.42061457  1
  O  O139  1  0.51994419  0.84953625  0.40371344  1
  O  O140  1  0.39098292  0.94839001  0.40993034  1
  O  O141  1  0.89110714  0.95119356  0.42215816  1
  O  O142  1  0.08379864  0.22306618  0.42209594  1
  O  O143  1  0.57441859  0.19192004  0.40355109  1
  O  O144  1  0.02044385  0.19068819  0.90336542  1
  O  O145  1  0.52209867  0.22123659  0.91795776  1
  O  O146  1  0.07540523  0.95630276  0.90313551  1
  O  O147  1  0.58404301  0.94455986  0.92117879  1
  O  O148  1  0.39036366  0.83218263  0.91989734  1
  O  O149  1  0.89138995  0.83280096  0.90944402  1
  O  O150  1  0.49372000  0.18538160  0.60053126  1
  O  O151  1  0.00060269  0.20218424  0.58838689  1
  O  O152  1  0.10264966  0.01347138  0.58732099  1
  O  O153  1  0.59821955  0.01358610  0.59826852  1
  O  O154  1  0.41140472  0.82491460  0.60463015  1
  O  O155  1  0.90322983  0.79789727  0.58633735  1
  O  O156  1  0.50027126  0.79993763  0.08748619  1
  O  O157  1  0.99721755  0.80424749  0.09748824  1
  O  O158  1  0.40282726  0.00585273  0.08544049  1
  O  O159  1  0.91506267  0.00757779  0.10037135  1
  O  O160  1  0.09966214  0.18809031  0.09807643  1
  O  O161  1  0.60028235  0.19141493  0.08533152  1
  O  O162  1  0.33582662  0.14734723  0.73244947  1
  O  O163  1  0.84342076  0.17639294  0.74044404  1
  O  O164  1  0.23838973  0.30527749  0.74352256  1
  O  O165  1  0.74179338  0.32374157  0.72820361  1
  O  O166  1  0.41616632  0.50372593  0.73036827  1
  O  O167  1  0.91542529  0.51994104  0.74088827  1
  O  O168  1  0.34266106  0.51060001  0.24120673  1
  O  O169  1  0.83212842  0.50950060  0.22730825  1
  O  O170  1  0.41268454  0.30778681  0.23972191  1
  O  O171  1  0.91690915  0.32555976  0.23200249  1
  O  O172  1  0.24161844  0.16017164  0.22791575  1
  O  O173  1  0.73640589  0.16629875  0.24553370  1
  O  O174  1  0.31379691  0.51703990  0.91975273  1
  O  O175  1  0.81598516  0.52045755  0.91750333  1
  O  O176  1  0.44642737  0.38459940  0.91815125  1
  O  O177  1  0.93356542  0.36820877  0.90975412  1
  O  O178  1  0.24925803  0.13909737  0.91232323  1
  O  O179  1  0.74149152  0.10766128  0.91775045  1
  O  O180  1  0.31551760  0.11005254  0.41867153  1
  O  O181  1  0.81411118  0.11082967  0.42201456  1
  O  O182  1  0.24131217  0.37457057  0.41889023  1
  O  O183  1  0.74806411  0.35539733  0.41338491  1
  O  O184  1  0.43403004  0.50004700  0.41004930  1
  O  O185  1  0.94733183  0.51130618  0.41957689  1
  O  O186  1  0.17823373  0.49532404  0.07689565  1
  O  O187  1  0.68069618  0.49985822  0.07141731  1
  O  O188  1  0.06755107  0.63978163  0.07691436  1
  O  O189  1  0.56863209  0.63077294  0.07296089  1
  O  O190  1  0.24765044  0.85996581  0.07373874  1
  O  O191  1  0.74848473  0.84872171  0.07246657  1
  O  O192  1  0.18245997  0.86425015  0.57324687  1
  O  O193  1  0.67629761  0.86163364  0.57913420  1
  O  O194  1  0.24738336  0.64816764  0.57266605  1
  O  O195  1  0.74751558  0.63290029  0.57540316  1
  O  O196  1  0.06830297  0.50788652  0.57323404  1
  O  O197  1  0.56614240  0.49153918  0.57914814  1
  O  O198  1  0.15828170  0.83525622  0.25978498  1
  O  O199  1  0.66647243  0.86329675  0.26553521  1
  O  O200  1  0.25986869  0.67314852  0.27246988  1
  O  O201  1  0.75976781  0.69491563  0.25861414  1
  O  O202  1  0.08104306  0.47917859  0.25959919  1
  O  O203  1  0.57535105  0.48235583  0.26679835  1
  O  O204  1  0.17118329  0.47460763  0.76497786  1
  O  O205  1  0.65853302  0.48328546  0.75997044  1
  O  O206  1  0.07954602  0.67229218  0.76721101  1
  O  O207  1  0.58013466  0.68294819  0.75983504  1
  O  O208  1  0.26752895  0.84306505  0.75460342  1
  O  O209  1  0.75961649  0.84785375  0.77254203  1
