# generated using pymatgen
data_MgZn2(SbO3)4
_symmetry_space_group_name_H-M   'P 1'
_cell_length_a   5.33789070
_cell_length_b   5.59060548
_cell_length_c   7.80612922
_cell_angle_alpha   92.87295383
_cell_angle_beta   89.19835559
_cell_angle_gamma   89.81696664
_symmetry_Int_Tables_number   1
_chemical_formula_structural   MgZn2(SbO3)4
_chemical_formula_sum   'Mg1 Zn2 Sb4 O12'
_cell_volume   232.63349646
_cell_formula_units_Z   1
loop_
 _symmetry_equiv_pos_site_id
 _symmetry_equiv_pos_as_xyz
  1  'x, y, z'
loop_
 _atom_site_type_symbol
 _atom_site_label
 _atom_site_symmetry_multiplicity
 _atom_site_fract_x
 _atom_site_fract_y
 _atom_site_fract_z
 _atom_site_occupancy
  Mg  Mg0  1  0.49315600  0.44217000  0.78031800  1
  Zn  Zn1  1  0.50951500  0.51073200  0.27266400  1
  Zn  Zn2  1  0.98449600  0.01259900  0.78005600  1
  Sb  Sb3  1  0.49436200  0.00676000  0.03885200  1
  Sb  Sb4  1  0.00522400  0.54046900  0.00439300  1
  Sb  Sb5  1  0.99728700  0.46801300  0.49759900  1
  Sb  Sb6  1  0.50241300  0.96284400  0.50319000  1
  O  O7  1  0.68042200  0.26946500  0.42417600  1
  O  O8  1  0.17308900  0.15445700  0.56209100  1
  O  O9  1  0.86123300  0.87064100  0.01590300  1
  O  O10  1  0.31287000  0.71524700  0.92531200  1
  O  O11  1  0.32114000  0.64425900  0.57291300  1
  O  O12  1  0.79619100  0.74692300  0.42611300  1
  O  O13  1  0.18987300  0.25949600  0.90609600  1
  O  O14  1  0.67333100  0.40957700  0.04707000  1
  O  O15  1  0.13297700  0.44031100  0.24850900  1
  O  O16  1  0.61780600  0.06598600  0.73469900  1
  O  O17  1  0.38985400  0.86773900  0.27195900  1
  O  O18  1  0.86194400  0.54094600  0.73797300  1
