# generated using pymatgen
data_Na5Ti3ZnSiP5O24
_symmetry_space_group_name_H-M   'P 1'
_cell_length_a   8.85131142
_cell_length_b   8.80082935
_cell_length_c   22.04508357
_cell_angle_alpha   90.01684390
_cell_angle_beta   90.33771621
_cell_angle_gamma   119.83735315
_symmetry_Int_Tables_number   1
_chemical_formula_structural   Na5Ti3ZnSiP5O24
_chemical_formula_sum   'Na15 Ti9 Zn3 Si3 P15 O72'
_cell_volume   1489.60974443
_cell_formula_units_Z   3
loop_
 _symmetry_equiv_pos_site_id
 _symmetry_equiv_pos_as_xyz
  1  'x, y, z'
loop_
 _atom_site_type_symbol
 _atom_site_label
 _atom_site_symmetry_multiplicity
 _atom_site_fract_x
 _atom_site_fract_y
 _atom_site_fract_z
 _atom_site_occupancy
  Na  Na0  1  0.64057879  0.01100375  0.24570075  1
  Na  Na1  1  0.37131302  0.36045420  0.24527285  1
  Na  Na2  1  0.98922167  0.63066248  0.24580924  1
  Na  Na3  1  0.63260263  0.62586980  0.74683113  1
  Na  Na4  1  0.99246278  0.36690782  0.74686547  1
  Na  Na5  1  0.37801135  0.00935216  0.74598836  1
  Na  Na6  1  0.66334181  0.97219399  0.58436500  1
  Na  Na7  1  0.33360669  0.29986572  0.92069984  1
  Na  Na8  1  0.32646852  0.03365385  0.41346817  1
  Na  Na9  1  0.99707490  0.00011661  0.49422845  1
  Na  Na10  1  0.99094052  0.99171870  0.00263343  1
  Na  Na11  1  0.67476247  0.33382197  0.83667149  1
  Na  Na12  1  0.67766517  0.34303271  0.33224809  1
  Na  Na13  1  0.33343799  0.66767368  0.16011101  1
  Na  Na14  1  0.32415278  0.66005306  0.66240287  1
  Ti  Ti15  1  0.99012302  0.99503749  0.85837173  1
  Ti  Ti16  1  0.01143496  0.00101640  0.64250255  1
  Ti  Ti17  1  0.99909818  0.00183696  0.14414179  1
  Ti  Ti18  1  0.67939918  0.33962573  0.98192052  1
  Ti  Ti19  1  0.66450872  0.33528521  0.48198174  1
  Ti  Ti20  1  0.33746275  0.66286566  0.01949510  1
  Ti  Ti21  1  0.32837643  0.66508565  0.51934586  1
  Ti  Ti22  1  0.33249676  0.66472890  0.31524239  1
  Ti  Ti23  1  0.33037409  0.66297795  0.81903127  1
  Zn  Zn24  1  0.99214103  0.99883416  0.35197532  1
  Zn  Zn25  1  0.66573383  0.33099555  0.67756777  1
  Zn  Zn26  1  0.66718231  0.33463314  0.17660328  1
  Si  Si27  1  0.37450855  0.04107190  0.58383892  1
  Si  Si28  1  0.62491050  0.66627266  0.91818965  1
  Si  Si29  1  0.03951675  0.37790791  0.91741565  1
  P  P30  1  0.29019381  -0.00077660  0.25195781  1
  P  P31  1  0.70973988  0.71012319  0.25073918  1
  P  P32  1  0.00057307  0.29098580  0.25089002  1
  P  P33  1  0.28604975  0.28887230  0.75155206  1
  P  P34  1  0.00279910  0.71500629  0.75065396  1
  P  P35  1  0.71098951  0.99722555  0.74999009  1
  P  P36  1  0.96187608  0.33721976  0.58437340  1
  P  P37  1  0.66527695  0.62542558  0.58443982  1
  P  P38  1  0.96469031  0.62920528  0.08489299  1
  P  P39  1  0.66450152  0.03858669  0.08462658  1
  P  P40  1  0.37234519  0.33220231  0.08360461  1
  P  P41  1  0.33373588  0.95496501  0.91745598  1
  P  P42  1  0.62484737  0.95688709  0.41848468  1
  P  P43  1  0.33701888  0.37962520  0.41782594  1
  P  P44  1  0.03954817  0.66014605  0.41705830  1
  O  O45  1  0.21744347  0.03180594  0.31030565  1
  O  O46  1  0.82271270  0.78545921  0.30706141  1
  O  O47  1  0.96664180  0.17944627  0.30707906  1
  O  O48  1  0.19949027  0.17648931  0.80793914  1
  O  O49  1  0.97885059  0.80775737  0.80582189  1
  O  O50  1  0.83131700  0.01970301  0.80506819  1
  O  O51  1  0.79225088  0.96732086  0.69231736  1
  O  O52  1  0.16638383  0.19681526  0.69512671  1
  O  O53  1  0.02941972  0.83227044  0.69379938  1
  O  O54  1  0.79644393  0.83306588  0.19486933  1
  O  O55  1  0.03487928  0.20298405  0.19471105  1
  O  O56  1  0.16555564  0.96565254  0.19671711  1
  O  O57  1  0.89869272  0.37399779  0.64410420  1
  O  O58  1  0.48966854  0.10275852  0.64520183  1
  O  O59  1  0.63282809  0.52571105  0.64389413  1
  O  O60  1  0.89593426  0.52754343  0.14353398  1
  O  O61  1  0.63425604  0.10701789  0.14404941  1
  O  O62  1  0.47404235  0.36511915  0.14264675  1
  O  O63  1  0.46018270  0.30550881  0.02685903  1
  O  O64  1  0.83854206  0.53170787  0.02972889  1
  O  O65  1  0.69220551  0.16292566  0.02993859  1
  O  O66  1  0.47112608  0.16693907  0.52442599  1
  O  O67  1  0.69507834  0.53121463  0.52995730  1
  O  O68  1  0.83292751  0.30336905  0.53062499  1
  O  O69  1  0.52901310  0.69935443  0.97440480  1
  O  O70  1  0.17503490  0.47151786  0.97269491  1
  O  O71  1  0.30234242  0.83636439  0.97146966  1
  O  O72  1  0.52796277  0.84552348  0.47438364  1
  O  O73  1  0.31993070  0.47886046  0.47190760  1
  O  O74  1  0.16217033  0.68357350  0.47131628  1
  O  O75  1  0.13067415  0.63694621  0.35896592  1
  O  O76  1  0.50338381  0.86669389  0.36096827  1
  O  O77  1  0.35927421  0.49164561  0.35928852  1
  O  O78  1  0.12971168  0.49728861  0.85540975  1
  O  O79  1  0.36012003  0.86922814  0.85827958  1
  O  O80  1  0.49934758  0.63242429  0.85689818  1
  O  O81  1  0.03320559  0.82992190  0.41497827  1
  O  O82  1  0.80254414  0.97328390  0.41562856  1
  O  O83  1  0.17968486  0.19559080  0.41559277  1
  O  O84  1  0.03219967  0.18890359  0.90842653  1
  O  O85  1  0.17169555  0.97860343  0.90887608  1
  O  O86  1  0.81698294  0.83772751  0.90958640  1
  O  O87  1  0.96802893  0.16229136  0.58836635  1
  O  O88  1  0.18064579  0.02352328  0.58894667  1
  O  O89  1  0.82904636  0.81364432  0.58816583  1
  O  O90  1  0.97566893  0.81202409  0.08877340  1
  O  O91  1  0.83377652  0.02331924  0.08855604  1
  O  O92  1  0.18695648  0.16432537  0.08882410  1
  O  O93  1  0.69510428  0.16347900  0.75051563  1
  O  O94  1  0.46961244  0.31216441  0.74821478  1
  O  O95  1  0.84095439  0.53202823  0.74744809  1
  O  O96  1  0.67865152  0.52289318  0.24377192  1
  O  O97  1  0.84539599  0.32195297  0.24410270  1
  O  O98  1  0.47511541  0.15532400  0.24497616  1
  O  O99  1  0.63194320  0.48558591  0.92432966  1
  O  O100  1  0.84701458  0.35431352  0.92422537  1
  O  O101  1  0.49405368  0.13967366  0.92245099  1
  O  O102  1  0.62988418  0.13724056  0.42229392  1
  O  O103  1  0.50721530  0.36699756  0.42211966  1
  O  O104  1  0.86155391  0.49328502  0.42336321  1
  O  O105  1  0.34891372  0.49571804  0.07549943  1
  O  O106  1  0.14663099  0.65250739  0.07342141  1
  O  O107  1  0.50339024  0.85542583  0.07443969  1
  O  O108  1  0.35207373  0.84646927  0.57228238  1
  O  O109  1  0.50725283  0.65349618  0.57412325  1
  O  O110  1  0.14573077  0.49216915  0.57306690  1
  O  O111  1  0.30312705  0.82547636  0.25584653  1
  O  O112  1  0.52446899  0.69777805  0.25621690  1
  O  O113  1  0.17373258  0.47633467  0.25563831  1
  O  O114  1  0.29910728  0.47354789  0.75337257  1
  O  O115  1  0.17219585  0.70176349  0.75359207  1
  O  O116  1  0.52684177  0.83032471  0.75540086  1
