# generated using pymatgen
data_Na7CaZr3Si3(PO8)3
_symmetry_space_group_name_H-M   'P 1'
_cell_length_a   9.27660551
_cell_length_b   9.27379179
_cell_length_c   22.83820993
_cell_angle_alpha   90.01325912
_cell_angle_beta   90.06414623
_cell_angle_gamma   119.95753210
_symmetry_Int_Tables_number   1
_chemical_formula_structural   Na7CaZr3Si3(PO8)3
_chemical_formula_sum   'Na21 Ca3 Zr9 Si9 P9 O72'
_cell_volume   1702.25398566
_cell_formula_units_Z   3
loop_
 _symmetry_equiv_pos_site_id
 _symmetry_equiv_pos_as_xyz
  1  'x, y, z'
loop_
 _atom_site_type_symbol
 _atom_site_label
 _atom_site_symmetry_multiplicity
 _atom_site_fract_x
 _atom_site_fract_y
 _atom_site_fract_z
 _atom_site_occupancy
  Na  Na0  1  0.63852308  0.01285720  0.24402297  1
  Na  Na1  1  0.37589932  0.36308953  0.24472722  1
  Na  Na2  1  0.98809604  0.62961180  0.24881016  1
  Na  Na3  1  0.63847825  0.62182374  0.74800775  1
  Na  Na4  1  0.98460073  0.37161900  0.74301576  1
  Na  Na5  1  0.37251209  0.00748289  0.74456756  1
  Na  Na6  1  0.02656495  0.68462258  0.58477221  1
  Na  Na7  1  0.66736216  0.97685442  0.57838432  1
  Na  Na8  1  0.31999964  0.98030287  0.08349128  1
  Na  Na9  1  0.65649116  0.68464854  0.08411317  1
  Na  Na10  1  0.02565809  0.33535663  0.07868864  1
  Na  Na11  1  0.33350222  0.30289638  0.91864946  1
  Na  Na12  1  0.96997435  0.28586859  0.41621130  1
  Na  Na13  1  0.31642130  0.03043382  0.41535575  1
  Na  Na14  1  0.71469706  0.68322475  0.41519834  1
  Na  Na15  1  0.00928236  0.01341519  0.49222075  1
  Na  Na16  1  0.98314916  0.99403895  0.99605462  1
  Na  Na17  1  0.69233624  0.34990522  0.83474790  1
  Na  Na18  1  0.66460621  0.33317698  0.33406379  1
  Na  Na19  1  0.34186637  0.66896201  0.16482855  1
  Na  Na20  1  0.32075785  0.64667806  0.66251369  1
  Ca  Ca21  1  0.99864438  -0.00000995  0.35262817  1
  Ca  Ca22  1  0.66890651  0.33774751  0.68218307  1
  Ca  Ca23  1  0.66346063  0.33109584  0.17637092  1
  Zr  Zr24  1  0.99013352  0.99063727  0.85617126  1
  Zr  Zr25  1  0.00675319  0.00433975  0.64651945  1
  Zr  Zr26  1  0.00037759  0.00379512  0.14823192  1
  Zr  Zr27  1  0.67138008  0.33064190  0.98067495  1
  Zr  Zr28  1  0.66829317  0.33170668  0.48249767  1
  Zr  Zr29  1  0.33627177  0.66518991  0.01298210  1
  Zr  Zr30  1  0.33063058  0.65872745  0.51718954  1
  Zr  Zr31  1  0.33378105  0.66612682  0.31837325  1
  Zr  Zr32  1  0.32778035  0.66354300  0.81690055  1
  Si  Si33  1  0.00661292  0.71070746  0.75027887  1
  Si  Si34  1  0.97061814  0.33394420  0.58610604  1
  Si  Si35  1  0.66389777  0.02839622  0.08548340  1
  Si  Si36  1  0.36372532  0.33490400  0.08295193  1
  Si  Si37  1  0.62910171  0.66156072  0.91580698  1
  Si  Si38  1  0.03316609  0.36798623  0.91583871  1
  Si  Si39  1  0.62310807  0.96480309  0.41922599  1
  Si  Si40  1  0.34203461  0.37479694  0.41582810  1
  Si  Si41  1  0.03539625  0.65987089  0.41839784  1
  P  P42  1  0.29750301  0.99368943  0.25080623  1
  P  P43  1  0.69692046  0.70187730  0.25062520  1
  P  P44  1  0.00623797  0.30583113  0.25057353  1
  P  P45  1  0.28528762  0.29204037  0.75381882  1
  P  P46  1  0.70675971  0.99229360  0.75030580  1
  P  P47  1  0.36478203  0.03060543  0.58408114  1
  P  P48  1  0.66877421  0.63847437  0.58512729  1
  P  P49  1  0.96880737  0.63564158  0.08357303  1
  P  P50  1  0.33529352  0.96464350  0.91630182  1
  O  O51  1  0.21684427  0.01051515  0.30629452  1
  O  O52  1  0.79340556  0.78104876  0.30652276  1
  O  O53  1  0.98544820  0.20717075  0.30611617  1
  O  O54  1  0.19847973  0.19247522  0.80918615  1
  O  O55  1  0.99692901  0.82195489  0.80406704  1
  O  O56  1  0.81997692  0.01340579  0.80325818  1
  O  O57  1  0.79235977  0.97436255  0.69402365  1
  O  O58  1  0.17363615  0.20156472  0.69943117  1
  O  O59  1  0.02645009  0.82032211  0.69039150  1
  O  O60  1  0.79526155  0.81303661  0.19599725  1
  O  O61  1  0.01894422  0.20571512  0.19592731  1
  O  O62  1  0.18656143  0.97985865  0.19574443  1
  O  O63  1  0.90249198  0.37097514  0.64575766  1
  O  O64  1  0.46292270  0.10117872  0.64077729  1
  O  O65  1  0.64059410  0.54451515  0.64255562  1
  O  O66  1  0.91277760  0.53830726  0.14072026  1
  O  O67  1  0.62274251  0.08567520  0.14641577  1
  O  O68  1  0.47037883  0.38372464  0.14240124  1
  O  O69  1  0.46031231  0.30243771  0.02826189  1
  O  O70  1  0.84281888  0.54006723  0.03348555  1
  O  O71  1  0.70081064  0.16688893  0.03368529  1
  O  O72  1  0.45717684  0.14324848  0.53067476  1
  O  O73  1  0.69010270  0.54345136  0.53242959  1
  O  O74  1  0.84290559  0.30718238  0.53024826  1
  O  O75  1  0.53740608  0.68349487  0.97363773  1
  O  O76  1  0.14887236  0.46169046  0.97291651  1
  O  O77  1  0.31341338  0.85976059  0.97137884  1
  O  O78  1  0.52836274  0.85350422  0.47630840  1
  O  O79  1  0.32163438  0.47828808  0.46944102  1
  O  O80  1  0.15140695  0.67942713  0.47476256  1
  O  O81  1  0.12529502  0.63342916  0.35908396  1
  O  O82  1  0.50761090  0.87149328  0.36004211  1
  O  O83  1  0.36673342  0.48708323  0.35568922  1
  O  O84  1  0.12785863  0.48506604  0.85803286  1
  O  O85  1  0.35370667  0.87568531  0.86143904  1
  O  O86  1  0.51106821  0.64036672  0.85864360  1
  O  O87  1  0.01368894  0.82127988  0.41794944  1
  O  O88  1  0.80705359  0.98822246  0.41836862  1
  O  O89  1  0.18058185  0.19232553  0.41674610  1
  O  O90  1  0.03320690  0.19136512  0.91228137  1
  O  O91  1  0.18280900  0.99051232  0.91162355  1
  O  O92  1  0.81402470  0.82621070  0.91260424  1
  O  O93  1  0.97394583  0.15726010  0.58791161  1
  O  O94  1  0.18634957  0.00840893  0.58606734  1
  O  O95  1  0.83537824  0.81093643  0.58706413  1
  O  O96  1  0.98029867  0.80970523  0.08830935  1
  O  O97  1  0.83238933  0.00802028  0.08839853  1
  O  O98  1  0.17950004  0.16071668  0.08868221  1
  O  O99  1  0.68193893  0.14390197  0.74899050  1
  O  O100  1  0.45796126  0.30845487  0.74984254  1
  O  O101  1  0.84153956  0.52822440  0.75341573  1
  O  O102  1  0.67370853  0.52612994  0.24589034  1
  O  O103  1  0.85753873  0.33433407  0.24462570  1
  O  O104  1  0.47341036  0.14586741  0.24643042  1
  O  O105  1  0.63183239  0.48692742  0.92174206  1
  O  O106  1  0.84899696  0.34747741  0.92165727  1
  O  O107  1  0.49171059  0.13980036  0.92127706  1
  O  O108  1  0.62850257  0.14525828  0.42232141  1
  O  O109  1  0.51487450  0.36899016  0.42251928  1
  O  O110  1  0.85388991  0.48739300  0.42313331  1
  O  O111  1  0.32624811  0.48979930  0.07274124  1
  O  O112  1  0.14629411  0.66710237  0.07087290  1
  O  O113  1  0.50165538  0.84346595  0.07295224  1
  O  O114  1  0.34334378  0.85394482  0.57722324  1
  O  O115  1  0.52627467  0.67795558  0.57694465  1
  O  O116  1  0.15459863  0.49943756  0.57755677  1
  O  O117  1  0.30350872  0.82690687  0.25028259  1
  O  O118  1  0.52464764  0.69652886  0.24976004  1
  O  O119  1  0.17391658  0.47643719  0.24976062  1
  O  O120  1  0.30071240  0.46845933  0.75473115  1
  O  O121  1  0.18128468  0.70136914  0.75367371  1
  O  O122  1  0.53543274  0.82805448  0.75493387  1
