# generated using pymatgen
data_LaTa3(PO4)6
_symmetry_space_group_name_H-M   'P 1'
_cell_length_a   8.95135452
_cell_length_b   8.95135422
_cell_length_c   23.00107222
_cell_angle_alpha   90.00000000
_cell_angle_beta   90.00000000
_cell_angle_gamma   120.00000110
_symmetry_Int_Tables_number   1
_chemical_formula_structural   LaTa3(PO4)6
_chemical_formula_sum   'La3 Ta9 P18 O72'
_cell_volume   1596.08571130
_cell_formula_units_Z   3
loop_
 _symmetry_equiv_pos_site_id
 _symmetry_equiv_pos_as_xyz
  1  'x, y, z'
loop_
 _atom_site_type_symbol
 _atom_site_label
 _atom_site_symmetry_multiplicity
 _atom_site_fract_x
 _atom_site_fract_y
 _atom_site_fract_z
 _atom_site_occupancy
  La  La0  1  0.00000000  0.00000000  0.37096454  1
  La  La1  1  0.66666700  0.33333300  0.69525150  1
  La  La2  1  0.66666700  0.33333300  0.18664660  1
  Ta  Ta3  1  0.00000000  0.00000000  0.86065924  1
  Ta  Ta4  1  0.00000000  0.00000000  0.64277522  1
  Ta  Ta5  1  0.00000000  0.00000000  0.14688882  1
  Ta  Ta6  1  0.66666700  0.33333300  0.98077249  1
  Ta  Ta7  1  0.66666700  0.33333300  0.47875511  1
  Ta  Ta8  1  0.33333300  0.66666700  0.01635439  1
  Ta  Ta9  1  0.33333300  0.66666700  0.52369046  1
  Ta  Ta10  1  0.33333300  0.66666700  0.30789034  1
  Ta  Ta11  1  0.33333300  0.66666700  0.80927224  1
  P  P12  1  0.27175252  0.97602423  0.25041120  1
  P  P13  1  0.70427171  0.72824748  0.25041120  1
  P  P14  1  0.02397577  0.29572829  0.25041120  1
  P  P15  1  0.26003963  0.28345204  0.75348753  1
  P  P16  1  0.02341241  0.73996037  0.75348753  1
  P  P17  1  0.71654796  0.97658759  0.75348753  1
  P  P18  1  0.95763553  0.32876240  0.58238939  1
  P  P19  1  0.37112787  0.04236447  0.58238939  1
  P  P20  1  0.67123760  0.62887213  0.58238939  1
  P  P21  1  0.96557884  0.63580899  0.07904231  1
  P  P22  1  0.67023116  0.03442116  0.07904231  1
  P  P23  1  0.36419101  0.32976884  0.07904231  1
  P  P24  1  0.61442071  0.65610273  0.91407080  1
  P  P25  1  0.04168102  0.38557929  0.91407080  1
  P  P26  1  0.34389727  0.95831898  0.91407080  1
  P  P27  1  0.58875275  0.95675025  0.41882557  1
  P  P28  1  0.36799649  0.41124725  0.41882557  1
  P  P29  1  0.04324975  0.63200351  0.41882557  1
  O  O30  1  0.19740280  0.00810168  0.30405608  1
  O  O31  1  0.81069888  0.80259720  0.30405608  1
  O  O32  1  0.99189832  0.18930112  0.30405608  1
  O  O33  1  0.16546352  0.17844197  0.80887750  1
  O  O34  1  0.01297845  0.83453648  0.80887750  1
  O  O35  1  0.82155803  0.98702155  0.80887750  1
  O  O36  1  0.80320218  0.95530343  0.69822184  1
  O  O37  1  0.15210124  0.19679782  0.69822184  1
  O  O38  1  0.04469657  0.84789876  0.69822184  1
  O  O39  1  0.80271847  0.84324596  0.19414534  1
  O  O40  1  0.04052749  0.19728153  0.19414534  1
  O  O41  1  0.15675404  0.95947251  0.19414534  1
  O  O42  1  0.90221513  0.38025964  0.63698646  1
  O  O43  1  0.47804551  0.09778487  0.63698646  1
  O  O44  1  0.61974036  0.52195449  0.63698646  1
  O  O45  1  0.91972636  0.52617379  0.13214352  1
  O  O46  1  0.60644843  0.08027364  0.13214352  1
  O  O47  1  0.47382621  0.39355157  0.13214352  1
  O  O48  1  0.46771031  0.30045196  0.02779836  1
  O  O49  1  0.83274266  0.53228969  0.02779836  1
  O  O50  1  0.69954804  0.16725734  0.02779836  1
  O  O51  1  0.46320450  0.17045083  0.53126419  1
  O  O52  1  0.70724734  0.53679550  0.53126419  1
  O  O53  1  0.82954917  0.29275266  0.53126419  1
  O  O54  1  0.52842257  0.69320092  0.96538971  1
  O  O55  1  0.16477735  0.47157743  0.96538971  1
  O  O56  1  0.30679908  0.83522265  0.96538971  1
  O  O57  1  0.48671991  0.85220335  0.47289302  1
  O  O58  1  0.36548245  0.51328009  0.47289302  1
  O  O59  1  0.14779665  0.63451755  0.47289302  1
  O  O60  1  0.13039474  0.61613917  0.36280237  1
  O  O61  1  0.48574343  0.86960526  0.36280237  1
  O  O62  1  0.38386083  0.51425657  0.36280237  1
  O  O63  1  0.12712131  0.50323894  0.86030630  1
  O  O64  1  0.37611663  0.87287869  0.86030630  1
  O  O65  1  0.49676106  0.62388337  0.86030630  1
  O  O66  1  0.02218207  0.78759799  0.42199854  1
  O  O67  1  0.76541592  0.97781793  0.42199854  1
  O  O68  1  0.21240201  0.23458408  0.42199854  1
  O  O69  1  0.01631302  0.20111161  0.90560373  1
  O  O70  1  0.18479859  0.98368698  0.90560373  1
  O  O71  1  0.79888839  0.81520141  0.90560373  1
  O  O72  1  0.96392544  0.15818332  0.59438916  1
  O  O73  1  0.19425788  0.03607456  0.59438916  1
  O  O74  1  0.84181668  0.80574212  0.59438916  1
  O  O75  1  0.97356034  0.81050703  0.08828845  1
  O  O76  1  0.83694670  0.02643966  0.08828845  1
  O  O77  1  0.18949297  0.16305330  0.08828845  1
  O  O78  1  0.69688275  0.13288680  0.75252272  1
  O  O79  1  0.43600505  0.30311725  0.75252272  1
  O  O80  1  0.86711320  0.56399495  0.75252272  1
  O  O81  1  0.65760148  0.54529601  0.23826649  1
  O  O82  1  0.88769553  0.34239852  0.23826649  1
  O  O83  1  0.45470399  0.11230447  0.23826649  1
  O  O84  1  0.63377456  0.49731516  0.92750889  1
  O  O85  1  0.86354160  0.36622544  0.92750889  1
  O  O86  1  0.50268484  0.13645840  0.92750889  1
  O  O87  1  0.60065436  0.13598147  0.42777577  1
  O  O88  1  0.53532810  0.39934564  0.42777577  1
  O  O89  1  0.86401853  0.46467190  0.42777577  1
  O  O90  1  0.33079671  0.47710797  0.05734282  1
  O  O91  1  0.14631026  0.66920329  0.05734282  1
  O  O92  1  0.52289203  0.85368974  0.05734282  1
  O  O93  1  0.32125403  0.85340655  0.56709833  1
  O  O94  1  0.53215151  0.67874597  0.56709833  1
  O  O95  1  0.14659345  0.46784849  0.56709833  1
  O  O96  1  0.26467827  0.79708079  0.25787337  1
  O  O97  1  0.53240153  0.73532173  0.25787337  1
  O  O98  1  0.20291921  0.46759847  0.25787337  1
  O  O99  1  0.27175566  0.46364410  0.76157991  1
  O  O100  1  0.19188744  0.72824434  0.76157991  1
  O  O101  1  0.53635590  0.80811256  0.76157991  1
