# generated using pymatgen
data_Na7Zn2SiGe2P5O24
_symmetry_space_group_name_H-M   'P 1'
_cell_length_a   8.87558844
_cell_length_b   8.88502689
_cell_length_c   21.62843623
_cell_angle_alpha   90.14326542
_cell_angle_beta   89.63353092
_cell_angle_gamma   119.87261079
_symmetry_Int_Tables_number   1
_chemical_formula_structural   Na7Zn2SiGe2P5O24
_chemical_formula_sum   'Na21 Zn6 Si3 Ge6 P15 O72'
_cell_volume   1478.96770517
_cell_formula_units_Z   3
loop_
 _symmetry_equiv_pos_site_id
 _symmetry_equiv_pos_as_xyz
  1  'x, y, z'
loop_
 _atom_site_type_symbol
 _atom_site_label
 _atom_site_symmetry_multiplicity
 _atom_site_fract_x
 _atom_site_fract_y
 _atom_site_fract_z
 _atom_site_occupancy
  Na  Na0  1  0.35714067  0.36980559  0.25374648  1
  Na  Na1  1  0.00992452  0.63808447  0.25236324  1
  Na  Na2  1  0.62718891  0.64456773  0.75083373  1
  Na  Na3  1  0.00935477  0.36972075  0.75425912  1
  Na  Na4  1  0.36001287  0.98676014  0.75216696  1
  Na  Na5  1  0.29296887  0.31288726  0.58310136  1
  Na  Na6  1  0.02542173  0.70564615  0.58542130  1
  Na  Na7  1  0.67819762  0.97216969  0.58945157  1
  Na  Na8  1  0.29477301  0.97547040  0.08561276  1
  Na  Na9  1  0.68591664  0.70773667  0.08418077  1
  Na  Na10  1  0.02622753  0.32404878  0.08733022  1
  Na  Na11  1  0.96012423  0.65361493  0.92234620  1
  Na  Na12  1  0.69391605  0.03827312  0.91856345  1
  Na  Na13  1  0.96352048  0.30786961  0.41883488  1
  Na  Na14  1  0.34778580  0.03950593  0.42154405  1
  Na  Na15  1  0.99382707  0.98710183  0.50381063  1
  Na  Na16  1  0.01301139  0.00630304  0.00390784  1
  Na  Na17  1  0.65024601  0.33167767  0.83965840  1
  Na  Na18  1  0.66657349  0.33652127  0.33849526  1
  Na  Na19  1  0.34923788  0.68343650  0.17291999  1
  Na  Na20  1  0.33887014  0.67169359  0.67114732  1
  Zn  Zn21  1  0.00211369  0.99890983  0.65132616  1
  Zn  Zn22  1  0.99742033  0.99268926  0.15142212  1
  Zn  Zn23  1  0.66390346  0.33760054  0.98423240  1
  Zn  Zn24  1  0.66045261  0.33394152  0.48285452  1
  Zn  Zn25  1  0.34019699  0.67371830  0.31694836  1
  Zn  Zn26  1  0.33909349  0.67285274  0.81777560  1
  Si  Si27  1  0.71056811  0.00700756  0.74794925  1
  Si  Si28  1  0.37340091  0.03425164  0.57989379  1
  Si  Si29  1  0.96430854  0.62490404  0.08060811  1
  Ge  Ge30  1  0.99389538  0.99479556  0.35096001  1
  Ge  Ge31  1  0.00173691  0.00717204  0.85083261  1
  Ge  Ge32  1  0.66261199  0.32241171  0.68417856  1
  Ge  Ge33  1  0.67209897  0.33209937  0.18440665  1
  Ge  Ge34  1  0.32807144  0.66287439  0.01746009  1
  Ge  Ge35  1  0.33894065  0.67260922  0.51751917  1
  P  P36  1  0.30139523  0.00943892  0.24861589  1
  P  P37  1  0.70808206  0.70054085  0.24751141  1
  P  P38  1  0.98594219  0.28337164  0.24870995  1
  P  P39  1  0.29644938  0.28797415  0.74812779  1
  P  P40  1  0.98985033  0.70185116  0.74956525  1
  P  P41  1  0.96441768  0.34352211  0.57996335  1
  P  P42  1  0.65798803  0.61681834  0.58270689  1
  P  P43  1  0.65811005  0.03818414  0.08039885  1
  P  P44  1  0.37980436  0.34173308  0.08380620  1
  P  P45  1  0.62993520  0.67317203  0.91460531  1
  P  P46  1  0.04884620  0.36773628  0.91469799  1
  P  P47  1  0.32417022  0.96094508  0.91472073  1
  P  P48  1  0.63407972  0.95344497  0.41537632  1
  P  P49  1  0.32554509  0.37083504  0.41327750  1
  P  P50  1  0.04155167  0.67447074  0.41361069  1
  O  O51  1  0.21133808  0.04587342  0.30723931  1
  O  O52  1  0.83911121  0.79521373  0.30328228  1
  O  O53  1  0.96358311  0.17162675  0.30893521  1
  O  O54  1  0.20813759  0.15880021  0.80440289  1
  O  O55  1  0.95878810  0.79237991  0.80836267  1
  O  O56  1  0.84194108  0.04701587  0.80983893  1
  O  O57  1  0.79016517  0.97188003  0.68722834  1
  O  O58  1  0.19559057  0.21631305  0.68893528  1
  O  O59  1  0.02864329  0.81024453  0.69157047  1
  O  O60  1  0.78210848  0.79661012  0.18746086  1
  O  O61  1  0.01398134  0.20317206  0.19125140  1
  O  O62  1  0.19644489  0.98343746  0.19042210  1
  O  O63  1  0.88059050  0.38097378  0.63978481  1
  O  O64  1  0.50544285  0.12511715  0.64137666  1
  O  O65  1  0.62431233  0.50114092  0.64368358  1
  O  O66  1  0.87269010  0.49023550  0.14222738  1
  O  O67  1  0.61593704  0.12503209  0.13750284  1
  O  O68  1  0.49752264  0.37727144  0.14395068  1
  O  O69  1  0.45405151  0.29638521  0.02887333  1
  O  O70  1  0.85097513  0.54739831  0.02001135  1
  O  O71  1  0.68804876  0.14129138  0.02143987  1
  O  O72  1  0.44940993  0.14730469  0.51898810  1
  O  O73  1  0.69718890  0.53880973  0.52791205  1
  O  O74  1  0.85759285  0.31577879  0.52281984  1
  O  O75  1  0.53755280  0.70496218  0.97347984  1
  O  O76  1  0.15955378  0.45556685  0.97494662  1
  O  O77  1  0.28852935  0.83508833  0.97336408  1
  O  O78  1  0.55322592  0.84338198  0.47701559  1
  O  O79  1  0.29471396  0.46201469  0.47274540  1
  O  O80  1  0.16692771  0.71241897  0.47201067  1
  O  O81  1  0.12043357  0.64668348  0.35529416  1
  O  O82  1  0.51532207  0.87195406  0.36170341  1
  O  O83  1  0.33665590  0.46724437  0.35477186  1
  O  O84  1  0.13020205  0.47642430  0.85754817  1
  O  O85  1  0.35034136  0.88193109  0.85626557  1
  O  O86  1  0.53377579  0.65843684  0.85563654  1
  O  O87  1  0.03787583  0.85217230  0.40992741  1
  O  O88  1  0.81815536  0.96525636  0.41017215  1
  O  O89  1  0.14926190  0.18526227  0.41347516  1
  O  O90  1  0.03746224  0.18336492  0.91280858  1
  O  O91  1  0.14679380  0.96316968  0.91166846  1
  O  O92  1  0.81373141  0.84915778  0.91473994  1
  O  O93  1  0.99081490  0.18706719  0.58701743  1
  O  O94  1  0.17846863  0.00234422  0.58757490  1
  O  O95  1  0.80956394  0.80219838  0.58839672  1
  O  O96  1  0.99744518  0.82021484  0.08764996  1
  O  O97  1  0.81619731  0.01486413  0.08931794  1
  O  O98  1  0.19283659  0.19335541  0.09144986  1
  O  O99  1  0.70457275  0.19442248  0.74482889  1
  O  O100  1  0.48100484  0.30059503  0.74582390  1
  O  O101  1  0.81356770  0.52366070  0.74588064  1
  O  O102  1  0.70152957  0.51778796  0.24691827  1
  O  O103  1  0.81382253  0.29662290  0.24666920  1
  O  O104  1  0.48167971  0.18568640  0.24546146  1
  O  O105  1  0.65833757  0.51871994  0.91990576  1
  O  O106  1  0.86313439  0.33869779  0.91984460  1
  O  O107  1  0.48368593  0.13878033  0.92280799  1
  O  O108  1  0.66594953  0.13998638  0.42104875  1
  O  O109  1  0.48011112  0.34195941  0.41764660  1
  O  O110  1  0.86266038  0.51626237  0.42217894  1
  O  O111  1  0.37899989  0.51977261  0.07767290  1
  O  O112  1  0.15979450  0.63317263  0.07693940  1
  O  O113  1  0.48703599  0.85325118  0.07749826  1
  O  O114  1  0.36627836  0.84037402  0.57614483  1
  O  O115  1  0.48036710  0.61971449  0.57803989  1
  O  O116  1  0.14818809  0.51569994  0.57670897  1
  O  O117  1  0.32044369  0.84962592  0.25618617  1
  O  O118  1  0.52407161  0.66890938  0.25595086  1
  O  O119  1  0.14293465  0.46868287  0.25394779  1
  O  O120  1  0.32007185  0.46912845  0.75695161  1
  O  O121  1  0.14172828  0.66778970  0.75726386  1
  O  O122  1  0.51470663  0.84405103  0.75410875  1
