# generated using pymatgen
data_Na10Ca6Ti2Si3(S3O16)3
_symmetry_space_group_name_H-M   'P 1'
_cell_length_a   18.52287422
_cell_length_b   9.29905127
_cell_length_c   23.13625266
_cell_angle_alpha   90.06144778
_cell_angle_beta   90.13616911
_cell_angle_gamma   120.28360649
_symmetry_Int_Tables_number   1
_chemical_formula_structural   Na10Ca6Ti2Si3(S3O16)3
_chemical_formula_sum   'Na30 Ca18 Ti6 Si9 S27 O144'
_cell_volume   3441.27757370
_cell_formula_units_Z   3
loop_
 _symmetry_equiv_pos_site_id
 _symmetry_equiv_pos_as_xyz
  1  'x, y, z'
loop_
 _atom_site_type_symbol
 _atom_site_label
 _atom_site_symmetry_multiplicity
 _atom_site_fract_x
 _atom_site_fract_y
 _atom_site_fract_z
 _atom_site_occupancy
  Na  Na0  1  0.31355260  0.99662313  0.24928097  1
  Na  Na1  1  0.18652606  0.35818525  0.25045443  1
  Na  Na2  1  0.49021185  0.63500854  0.25366910  1
  Na  Na3  1  0.30999815  0.61403854  0.73397841  1
  Na  Na4  1  0.81392973  0.63292834  0.74737711  1
  Na  Na5  1  0.99553451  0.33768718  0.75291547  1
  Na  Na6  1  0.18222451  0.02296035  0.75321175  1
  Na  Na7  1  0.68696932  0.01492857  0.75107461  1
  Na  Na8  1  0.16899709  0.35544969  0.59005318  1
  Na  Na9  1  0.83168288  0.68489758  0.08681886  1
  Na  Na10  1  0.48630986  0.66123415  0.91687474  1
  Na  Na11  1  0.35621146  0.04685817  0.91576510  1
  Na  Na12  1  0.85138064  0.02938515  0.92008798  1
  Na  Na13  1  0.65771577  0.30171756  0.91573896  1
  Na  Na14  1  0.98420431  0.30869592  0.41577270  1
  Na  Na15  1  0.15663810  0.01415766  0.41309484  1
  Na  Na16  1  0.35169342  0.67116753  0.42212122  1
  Na  Na17  1  0.85494549  0.66511157  0.41467532  1
  Na  Na18  1  0.99470936  0.95999365  0.50351646  1
  Na  Na19  1  0.50633644  0.00041262  0.50402456  1
  Na  Na20  1  0.01298915  0.03006900  0.00303190  1
  Na  Na21  1  0.50454637  0.03106779  0.00383042  1
  Na  Na22  1  0.32910375  0.33341199  0.83461215  1
  Na  Na23  1  0.83069521  0.32791206  0.82953135  1
  Na  Na24  1  0.33000111  0.32948106  0.32939028  1
  Na  Na25  1  0.83192705  0.33473649  0.33511902  1
  Na  Na26  1  0.16181000  0.66207761  0.16534090  1
  Na  Na27  1  0.68092635  0.69904599  0.16117109  1
  Na  Na28  1  0.17648527  0.67131161  0.66121726  1
  Na  Na29  1  0.66412373  0.66048826  0.66431171  1
  Ca  Ca30  1  0.00005831  0.99556960  0.34563960  1
  Ca  Ca31  1  0.50408097  0.00728876  0.35147333  1
  Ca  Ca32  1  0.00392489  0.00546678  0.85181807  1
  Ca  Ca33  1  0.50159758  0.00767825  0.84651998  1
  Ca  Ca34  1  0.33797688  0.33835296  0.67929087  1
  Ca  Ca35  1  0.83054268  0.32969243  0.67899874  1
  Ca  Ca36  1  0.32951187  0.32941513  0.17929236  1
  Ca  Ca37  1  0.83347988  0.32156429  0.18139814  1
  Ca  Ca38  1  0.33463606  0.33461377  0.98689596  1
  Ca  Ca39  1  0.83588504  0.31272897  0.99453695  1
  Ca  Ca40  1  0.34188021  0.35382563  0.49185661  1
  Ca  Ca41  1  0.83351457  0.33531492  0.48684687  1
  Ca  Ca42  1  0.16401799  0.65960697  0.01801556  1
  Ca  Ca43  1  0.66464978  0.66853134  0.02101007  1
  Ca  Ca44  1  0.16815338  0.67754575  0.52031841  1
  Ca  Ca45  1  0.66468290  0.66847124  0.51789947  1
  Ca  Ca46  1  0.67035099  0.66949401  0.31278459  1
  Ca  Ca47  1  0.16427512  0.65367627  0.81544931  1
  Ti  Ti48  1  0.99254076  0.00736244  0.65721005  1
  Ti  Ti49  1  0.50315670  0.01661133  0.64682717  1
  Ti  Ti50  1  0.00176047  0.99451896  0.15026598  1
  Ti  Ti51  1  0.49137119  0.98577529  0.15401415  1
  Ti  Ti52  1  0.15692134  0.67860811  0.30767533  1
  Ti  Ti53  1  0.65837742  0.63618070  0.80865771  1
  Si  Si54  1  0.14678551  0.00049758  0.25215569  1
  Si  Si55  1  0.34703196  0.70081716  0.25516926  1
  Si  Si56  1  0.14960642  0.29598125  0.74801378  1
  Si  Si57  1  0.64699107  0.29398254  0.75135482  1
  Si  Si58  1  0.84601013  0.99375027  0.75658577  1
  Si  Si59  1  0.33838619  0.65350273  0.58710977  1
  Si  Si60  1  0.83891815  0.02292852  0.08428461  1
  Si  Si61  1  0.51772550  0.37210987  0.91469646  1
  Si  Si62  1  0.01697100  0.66386652  0.41407763  1
  S  S63  1  0.64182312  0.99568805  0.24600849  1
  S  S64  1  0.85089278  0.70390589  0.24562335  1
  S  S65  1  0.00483169  0.30394760  0.25282641  1
  S  S66  1  0.50229357  0.29256424  0.24491635  1
  S  S67  1  0.00140310  0.71445921  0.74576235  1
  S  S68  1  0.50550975  0.70715063  0.75252749  1
  S  S69  1  0.35154342  0.99544174  0.74739437  1
  S  S70  1  0.48949067  0.32592892  0.58652660  1
  S  S71  1  0.98495434  0.31480611  0.58624183  1
  S  S72  1  0.17254815  0.03079684  0.58630963  1
  S  S73  1  0.67324277  0.02456114  0.58815384  1
  S  S74  1  0.84012131  0.65735142  0.58583293  1
  S  S75  1  0.48545522  0.65671220  0.08837088  1
  S  S76  1  0.98628466  0.64921663  0.08765061  1
  S  S77  1  0.34026493  0.02285352  0.08620584  1
  S  S78  1  0.17380692  0.32245312  0.08855263  1
  S  S79  1  0.67422903  0.31778938  0.08466056  1
  S  S80  1  0.31828177  0.66669068  0.91593258  1
  S  S81  1  0.80823302  0.65783458  0.91236462  1
  S  S82  1  0.01071983  0.36112192  0.91535931  1
  S  S83  1  0.16900576  0.96641188  0.91645250  1
  S  S84  1  0.66775267  0.95956973  0.91163869  1
  S  S85  1  0.30906598  0.95826762  0.40985952  1
  S  S86  1  0.81734491  0.96823279  0.41725939  1
  S  S87  1  0.16791028  0.37643999  0.41387959  1
  S  S88  1  0.66903801  0.37236514  0.41801768  1
  S  S89  1  0.51343101  0.66338847  0.41314597  1
  O  O90  1  0.11899635  0.04313041  0.31244842  1
  O  O91  1  0.60571133  0.00850389  0.30063368  1
  O  O92  1  0.40421001  0.78368905  0.31103613  1
  O  O93  1  0.89171393  0.77867224  0.30152290  1
  O  O94  1  0.49400669  0.20108643  0.29843926  1
  O  O95  1  0.99392117  0.21896194  0.30867590  1
  O  O96  1  0.10668219  0.17510612  0.80154739  1
  O  O97  1  0.61864062  0.19323329  0.81107771  1
  O  O98  1  0.49179799  0.77008549  0.80791789  1
  O  O99  1  0.98557149  0.77854783  0.79930713  1
  O  O100  1  0.39116183  0.00707759  0.80406208  1
  O  O101  1  0.89981628  0.02470564  0.81419571  1
  O  O102  1  0.40367516  0.98786419  0.69970688  1
  O  O103  1  0.90494688  0.97637465  0.70044410  1
  O  O104  1  0.08210533  0.17912172  0.69116418  1
  O  O105  1  0.58169341  0.18150706  0.69757090  1
  O  O106  1  0.00663278  0.82132722  0.69521877  1
  O  O107  1  0.51741731  0.82198275  0.70419522  1
  O  O108  1  0.40822944  0.83943896  0.19855885  1
  O  O109  1  0.90335404  0.81379201  0.19620306  1
  O  O110  1  0.01597115  0.21035480  0.20464895  1
  O  O111  1  0.50714868  0.19567251  0.19413158  1
  O  O112  1  0.08230564  0.98456619  0.19885650  1
  O  O113  1  0.58566063  0.99038869  0.19649743  1
  O  O114  1  0.44813468  0.33891809  0.63822842  1
  O  O115  1  0.94539910  0.33769921  0.63781384  1
  O  O116  1  0.22282277  0.11507152  0.63856523  1
  O  O117  1  0.72081599  0.09712915  0.64200829  1
  O  O118  1  0.32551040  0.53329773  0.64148903  1
  O  O119  1  0.83185373  0.55550716  0.63717262  1
  O  O120  1  0.44325109  0.55314850  0.13927663  1
  O  O121  1  0.94505032  0.55042845  0.13892668  1
  O  O122  1  0.33180201  0.10664067  0.13761304  1
  O  O123  1  0.82725368  0.12743435  0.13429763  1
  O  O124  1  0.22188597  0.34671787  0.14234512  1
  O  O125  1  0.73339745  0.34406650  0.13195630  1
  O  O126  1  0.21569561  0.30117213  0.03775349  1
  O  O127  1  0.70760854  0.29448159  0.02851944  1
  O  O128  1  0.43659507  0.58413356  0.03461020  1
  O  O129  1  0.93420980  0.57535579  0.03508260  1
  O  O130  1  0.35171855  0.11990067  0.03268736  1
  O  O131  1  0.85778350  0.11067283  0.02056785  1
  O  O132  1  0.21562272  0.13207346  0.53352413  1
  O  O133  1  0.71517890  0.12936602  0.53741910  1
  O  O134  1  0.35729187  0.59029857  0.52569613  1
  O  O135  1  0.84913424  0.57912555  0.53189826  1
  O  O136  1  0.44035679  0.30114609  0.53344238  1
  O  O137  1  0.93717321  0.29797124  0.53281183  1
  O  O138  1  0.27203771  0.68225413  0.96491535  1
  O  O139  1  0.77061099  0.67742434  0.96562042  1
  O  O140  1  0.06162954  0.46181766  0.96451490  1
  O  O141  1  0.57736307  0.46501563  0.96816880  1
  O  O142  1  0.16765824  0.86436957  0.96566639  1
  O  O143  1  0.66395033  0.86517793  0.96343177  1
  O  O144  1  0.27139393  0.85702935  0.46157365  1
  O  O145  1  0.77479390  0.86614081  0.46833956  1
  O  O146  1  0.16442858  0.45896135  0.46740310  1
  O  O147  1  0.66506481  0.45914767  0.47010399  1
  O  O148  1  0.07752703  0.69168982  0.46699974  1
  O  O149  1  0.56266070  0.66429348  0.46317037  1
  O  O150  1  0.07640908  0.65579355  0.35552786  1
  O  O151  1  0.55389176  0.66102211  0.35776757  1
  O  O152  1  0.25811046  0.86662272  0.35634041  1
  O  O153  1  0.77070264  0.88697255  0.36370626  1
  O  O154  1  0.17603445  0.47797796  0.36160465  1
  O  O155  1  0.67402315  0.46780452  0.36506088  1
  O  O156  1  0.05020404  0.44186828  0.85937239  1
  O  O157  1  0.57652858  0.49760776  0.85633181  1
  O  O158  1  0.17352427  0.88959791  0.86053678  1
  O  O159  1  0.67502218  0.87739203  0.85811664  1
  O  O160  1  0.27545666  0.65580690  0.86028182  1
  O  O161  1  0.75605636  0.65022284  0.85968884  1
  O  O162  1  0.00202650  0.82268557  0.41119640  1
  O  O163  1  0.50379493  0.81382730  0.41720072  1
  O  O164  1  0.39459414  0.98453236  0.40547291  1
  O  O165  1  0.90301001  0.98791045  0.41564244  1
  O  O166  1  0.08942337  0.20984429  0.41181061  1
  O  O167  1  0.59558615  0.20192188  0.41710465  1
  O  O168  1  0.00204536  0.19267181  0.91990727  1
  O  O169  1  0.50277099  0.18309093  0.91184027  1
  O  O170  1  0.09482801  0.98583170  0.91927105  1
  O  O171  1  0.58947045  0.96968931  0.91113454  1
  O  O172  1  0.40400203  0.81838054  0.91632386  1
  O  O173  1  0.89308182  0.80454803  0.90799387  1
  O  O174  1  0.49668403  0.16906780  0.59152864  1
  O  O175  1  0.98846639  0.15562299  0.59210434  1
  O  O176  1  0.09000815  0.02575421  0.58915833  1
  O  O177  1  0.58848649  0.01272486  0.59304165  1
  O  O178  1  0.42404036  0.84281933  0.60447501  1
  O  O179  1  0.91844444  0.82491862  0.59139161  1
  O  O180  1  0.49120904  0.82596997  0.09629294  1
  O  O181  1  0.99166032  0.81919589  0.09328499  1
  O  O182  1  0.41965808  0.01243444  0.09288199  1
  O  O183  1  0.92699930  0.00993741  0.10386923  1
  O  O184  1  0.08941120  0.16546665  0.09374209  1
  O  O185  1  0.59001808  0.16566786  0.09407251  1
  O  O186  1  0.33724945  0.13733651  0.74182911  1
  O  O187  1  0.83589765  0.15510912  0.74461830  1
  O  O188  1  0.24352060  0.32250061  0.74377659  1
  O  O189  1  0.74338774  0.34509915  0.74040087  1
  O  O190  1  0.43404224  0.53781379  0.74403438  1
  O  O191  1  0.93151128  0.54073519  0.73806909  1
  O  O192  1  0.33724277  0.51915955  0.24432597  1
  O  O193  1  0.84176057  0.53799849  0.24089858  1
  O  O194  1  0.42578110  0.30724317  0.23966689  1
  O  O195  1  0.93639754  0.33727446  0.24459693  1
  O  O196  1  0.24337882  0.14266945  0.24174180  1
  O  O197  1  0.72628276  0.13789419  0.24065623  1
  O  O198  1  0.32791904  0.51764171  0.92103819  1
  O  O199  1  0.80936919  0.49897674  0.91264073  1
  O  O200  1  0.42810650  0.36782729  0.91237532  1
  O  O201  1  0.92542069  0.34163279  0.91609995  1
  O  O202  1  0.24864967  0.13269410  0.91950456  1
  O  O203  1  0.74232398  0.13243884  0.91410090  1
  O  O204  1  0.30987999  0.11917244  0.41239509  1
  O  O205  1  0.82786425  0.13778324  0.42116945  1
  O  O206  1  0.24235629  0.35213058  0.41533536  1
  O  O207  1  0.74867204  0.36584909  0.41922682  1
  O  O208  1  0.42726519  0.51180408  0.41355494  1
  O  O209  1  0.92773357  0.48838344  0.41133622  1
  O  O210  1  0.16053551  0.46587371  0.08224643  1
  O  O211  1  0.66647292  0.46879301  0.08244871  1
  O  O212  1  0.07155237  0.67638976  0.08241686  1
  O  O213  1  0.57057161  0.68520301  0.08462820  1
  O  O214  1  0.26761874  0.85256041  0.08247827  1
  O  O215  1  0.76596544  0.82726074  0.08444170  1
  O  O216  1  0.15982981  0.86171204  0.58365809  1
  O  O217  1  0.65896899  0.85406916  0.58201058  1
  O  O218  1  0.25366563  0.66517847  0.58493636  1
  O  O219  1  0.76605006  0.67840692  0.58269223  1
  O  O220  1  0.07246757  0.45476995  0.58230235  1
  O  O221  1  0.57476676  0.47122892  0.58308080  1
  O  O222  1  0.15058663  0.82031765  0.25598492  1
  O  O223  1  0.63991011  0.83298404  0.24278622  1
  O  O224  1  0.25661068  0.69622313  0.25408066  1
  O  O225  1  0.76846077  0.69462632  0.24192936  1
  O  O226  1  0.08874148  0.47025005  0.25497461  1
  O  O227  1  0.57644380  0.46212396  0.24466866  1
  O  O228  1  0.14921233  0.47168498  0.74376499  1
  O  O229  1  0.65085127  0.48106500  0.75619930  1
  O  O230  1  0.08221554  0.71537584  0.74761956  1
  O  O231  1  0.58683373  0.70366595  0.75600198  1
  O  O232  1  0.26838620  0.83665668  0.74480071  1
  O  O233  1  0.75457163  0.81591911  0.75602720  1
