# generated using pymatgen
data_Na3CaNb5Si3(PO6)6
_symmetry_space_group_name_H-M   'P 1'
_cell_length_a   8.89431291
_cell_length_b   8.89431261
_cell_length_c   23.08026283
_cell_angle_alpha   90.00000000
_cell_angle_beta   90.00000000
_cell_angle_gamma   120.00000106
_symmetry_Int_Tables_number   1
_chemical_formula_structural   Na3CaNb5Si3(PO6)6
_chemical_formula_sum   'Na6 Ca2 Nb10 Si6 P12 O72'
_cell_volume   1581.23409878
_cell_formula_units_Z   2
loop_
 _symmetry_equiv_pos_site_id
 _symmetry_equiv_pos_as_xyz
  1  'x, y, z'
loop_
 _atom_site_type_symbol
 _atom_site_label
 _atom_site_symmetry_multiplicity
 _atom_site_fract_x
 _atom_site_fract_y
 _atom_site_fract_z
 _atom_site_occupancy
  Na  Na0  1  0.00000000  -0.00000000  0.49949479  1
  Na  Na1  1  0.00000000  -0.00000000  0.99949479  1
  Na  Na2  1  0.66666700  0.33333300  0.82756900  1
  Na  Na3  1  0.66666700  0.33333300  0.32756900  1
  Na  Na4  1  0.33333300  0.66666700  0.16666067  1
  Na  Na5  1  0.33333300  0.66666700  0.66666067  1
  Ca  Ca6  1  0.66666700  0.33333300  0.68687669  1
  Ca  Ca7  1  0.66666700  0.33333300  0.18687669  1
  Nb  Nb8  1  0.00000000  -0.00000000  0.35744945  1
  Nb  Nb9  1  0.00000000  -0.00000000  0.85744945  1
  Nb  Nb10  1  0.00000000  -0.00000000  0.64594638  1
  Nb  Nb11  1  0.00000000  -0.00000000  0.14594638  1
  Nb  Nb12  1  0.66666700  0.33333300  0.97778007  1
  Nb  Nb13  1  0.66666700  0.33333300  0.47778007  1
  Nb  Nb14  1  0.33333300  0.66666700  0.01758373  1
  Nb  Nb15  1  0.33333300  0.66666700  0.51758373  1
  Nb  Nb16  1  0.33333300  0.66666700  0.31317871  1
  Nb  Nb17  1  0.33333300  0.66666700  0.81317871  1
  Si  Si18  1  0.61911831  0.66518140  0.91614836  1
  Si  Si19  1  0.04606209  0.38088169  0.91614836  1
  Si  Si20  1  0.33481860  0.95393791  0.91614836  1
  Si  Si21  1  0.61911831  0.95393791  0.41614836  1
  Si  Si22  1  0.33481860  0.38088169  0.41614836  1
  Si  Si23  1  0.04606209  0.66518140  0.41614836  1
  P  P24  1  0.28155094  0.99418878  0.25209025  1
  P  P25  1  0.71263784  0.71844906  0.25209025  1
  P  P26  1  0.00581122  0.28736216  0.25209025  1
  P  P27  1  0.28155094  0.28736216  0.75209025  1
  P  P28  1  0.00581122  0.71844906  0.75209025  1
  P  P29  1  0.71263784  0.99418878  0.75209025  1
  P  P30  1  0.96162806  0.33468016  0.58276932  1
  P  P31  1  0.37305310  0.03837194  0.58276932  1
  P  P32  1  0.66531984  0.62694690  0.58276932  1
  P  P33  1  0.96162806  0.62694690  0.08276932  1
  P  P34  1  0.66531984  0.03837194  0.08276932  1
  P  P35  1  0.37305310  0.33468016  0.08276932  1
  O  O36  1  0.18076559  0.00514736  0.30500649  1
  O  O37  1  0.82438177  0.81923441  0.30500649  1
  O  O38  1  0.99485264  0.17561823  0.30500649  1
  O  O39  1  0.18076559  0.17561823  0.80500649  1
  O  O40  1  0.99485264  0.81923441  0.80500649  1
  O  O41  1  0.82438177  0.00514736  0.80500649  1
  O  O42  1  0.80526255  0.97373671  0.69612393  1
  O  O43  1  0.16847416  0.19473745  0.69612393  1
  O  O44  1  0.02626329  0.83152584  0.69612393  1
  O  O45  1  0.80526255  0.83152584  0.19612393  1
  O  O46  1  0.02626329  0.19473745  0.19612393  1
  O  O47  1  0.16847416  0.97373671  0.19612393  1
  O  O48  1  0.89778758  0.37182845  0.63792533  1
  O  O49  1  0.47404186  0.10221242  0.63792533  1
  O  O50  1  0.62817155  0.52595814  0.63792533  1
  O  O51  1  0.89778758  0.52595814  0.13792533  1
  O  O52  1  0.62817155  0.10221242  0.13792533  1
  O  O53  1  0.47404186  0.37182845  0.13792533  1
  O  O54  1  0.46241200  0.30527588  0.02900058  1
  O  O55  1  0.84286488  0.53758800  0.02900058  1
  O  O56  1  0.69472412  0.15713512  0.02900058  1
  O  O57  1  0.46241200  0.15713512  0.52900058  1
  O  O58  1  0.69472412  0.53758800  0.52900058  1
  O  O59  1  0.84286488  0.30527588  0.52900058  1
  O  O60  1  0.52989666  0.69660759  0.97244924  1
  O  O61  1  0.16670993  0.47010334  0.97244924  1
  O  O62  1  0.30339241  0.83329007  0.97244924  1
  O  O63  1  0.52989666  0.83329007  0.47244924  1
  O  O64  1  0.30339241  0.47010334  0.47244924  1
  O  O65  1  0.16670993  0.69660759  0.47244924  1
  O  O66  1  0.13727966  0.63458360  0.35902136  1
  O  O67  1  0.49730294  0.86272034  0.35902136  1
  O  O68  1  0.36541640  0.50269706  0.35902136  1
  O  O69  1  0.13727966  0.50269706  0.85902136  1
  O  O70  1  0.36541640  0.86272034  0.85902136  1
  O  O71  1  0.49730294  0.63458360  0.85902136  1
  O  O72  1  0.02350950  0.83447267  0.40772286  1
  O  O73  1  0.81096317  0.97649050  0.40772286  1
  O  O74  1  0.16552733  0.18903683  0.40772286  1
  O  O75  1  0.02350950  0.18903683  0.90772286  1
  O  O76  1  0.16552733  0.97649050  0.90772286  1
  O  O77  1  0.81096317  0.83447267  0.90772286  1
  O  O78  1  0.97966831  0.16666542  0.58913913  1
  O  O79  1  0.18699711  0.02033169  0.58913913  1
  O  O80  1  0.83333458  0.81300289  0.58913913  1
  O  O81  1  0.97966831  0.81300289  0.08913913  1
  O  O82  1  0.83333458  0.02033169  0.08913913  1
  O  O83  1  0.18699711  0.16666542  0.08913913  1
  O  O84  1  0.69548005  0.15339618  0.75138296  1
  O  O85  1  0.45791713  0.30451995  0.75138296  1
  O  O86  1  0.84660382  0.54208287  0.75138296  1
  O  O87  1  0.69548005  0.54208287  0.25138296  1
  O  O88  1  0.84660382  0.30451995  0.25138296  1
  O  O89  1  0.45791713  0.15339618  0.25138296  1
  O  O90  1  0.64025959  0.49510476  0.92694771  1
  O  O91  1  0.85484618  0.35974041  0.92694771  1
  O  O92  1  0.50489524  0.14515382  0.92694771  1
  O  O93  1  0.64025959  0.14515382  0.42694771  1
  O  O94  1  0.50489524  0.35974041  0.42694771  1
  O  O95  1  0.85484618  0.49510476  0.42694771  1
  O  O96  1  0.34198830  0.48915340  0.07080916  1
  O  O97  1  0.14716410  0.65801170  0.07080916  1
  O  O98  1  0.51084660  0.85283590  0.07080916  1
  O  O99  1  0.34198830  0.85283590  0.57080916  1
  O  O100  1  0.51084660  0.65801170  0.57080916  1
  O  O101  1  0.14716410  0.48915340  0.57080916  1
  O  O102  1  0.28922262  0.82291972  0.25595016  1
  O  O103  1  0.53369610  0.71077738  0.25595016  1
  O  O104  1  0.17708028  0.46630390  0.25595016  1
  O  O105  1  0.28922262  0.46630390  0.75595016  1
  O  O106  1  0.17708028  0.71077738  0.75595016  1
  O  O107  1  0.53369610  0.82291972  0.75595016  1
