# generated using pymatgen
data_Na6CaSi2Sn3(PO6)4
_symmetry_space_group_name_H-M   'P 1'
_cell_length_a   9.12997035
_cell_length_b   9.14836520
_cell_length_c   22.46234805
_cell_angle_alpha   90.17299776
_cell_angle_beta   89.96948346
_cell_angle_gamma   120.20397567
_symmetry_Int_Tables_number   1
_chemical_formula_structural   Na6CaSi2Sn3(PO6)4
_chemical_formula_sum   'Na18 Ca3 Si6 Sn9 P12 O72'
_cell_volume   1621.43693310
_cell_formula_units_Z   3
loop_
 _symmetry_equiv_pos_site_id
 _symmetry_equiv_pos_as_xyz
  1  'x, y, z'
loop_
 _atom_site_type_symbol
 _atom_site_label
 _atom_site_symmetry_multiplicity
 _atom_site_fract_x
 _atom_site_fract_y
 _atom_site_fract_z
 _atom_site_occupancy
  Na  Na0  1  0.00073006  0.99695727  0.50243806  1
  Na  Na1  1  0.00032449  0.99788828  0.99849558  1
  Na  Na2  1  0.65110336  0.30323009  0.83475667  1
  Na  Na3  1  0.65010592  0.33092965  0.32438507  1
  Na  Na4  1  0.32607995  0.66761002  0.16148307  1
  Na  Na5  1  0.32746970  0.66486619  0.66524765  1
  Na  Na6  1  0.64737481  0.01115185  0.24353822  1
  Na  Na7  1  0.98857296  0.62770719  0.23851373  1
  Na  Na8  1  0.63153810  0.61898327  0.74373140  1
  Na  Na9  1  0.99027216  0.36993358  0.74877938  1
  Na  Na10  1  0.66525324  0.97325338  0.58580833  1
  Na  Na11  1  0.66625943  0.68546477  0.07803671  1
  Na  Na12  1  0.02450127  0.34205561  0.08279180  1
  Na  Na13  1  0.96909244  0.66771928  0.91990387  1
  Na  Na14  1  0.33428001  0.30348232  0.91848170  1
  Na  Na15  1  0.96158577  0.28453404  0.41410948  1
  Na  Na16  1  0.32892067  0.03244964  0.41206331  1
  Na  Na17  1  0.71237673  0.68481973  0.41847263  1
  Ca  Ca18  1  0.00186593  0.00053092  0.35147522  1
  Ca  Ca19  1  0.65748868  0.32939825  0.68413081  1
  Ca  Ca20  1  0.66025852  0.33041207  0.17844941  1
  Si  Si21  1  0.66836924  0.63867987  0.58586998  1
  Si  Si22  1  0.97539026  0.63990275  0.08429504  1
  Si  Si23  1  0.62626235  0.66502929  0.91608586  1
  Si  Si24  1  0.03713202  0.37239412  0.91554937  1
  Si  Si25  1  0.33796652  0.96457404  0.91516325  1
  Si  Si26  1  0.62218738  0.96707658  0.41953885  1
  Sn  Sn27  1  0.99775070  0.99952139  0.85595924  1
  Sn  Sn28  1  0.00406383  0.99572757  0.64707507  1
  Sn  Sn29  1  0.00865022  0.00237075  0.14956092  1
  Sn  Sn30  1  0.66769248  0.33265453  0.98144017  1
  Sn  Sn31  1  0.66550046  0.33514570  0.48710369  1
  Sn  Sn32  1  0.33320832  0.67364379  0.01293247  1
  Sn  Sn33  1  0.33461578  0.66331563  0.52102453  1
  Sn  Sn34  1  0.33681724  0.66751632  0.31470949  1
  Sn  Sn35  1  0.33552618  0.67443901  0.81721802  1
  P  P36  1  0.29773579  0.98958531  0.25446462  1
  P  P37  1  0.69518815  0.70424130  0.25184119  1
  P  P38  1  0.00998167  0.30499485  0.25191831  1
  P  P39  1  0.28292343  0.29395809  0.75312922  1
  P  P40  1  0.01333614  0.71568139  0.75236450  1
  P  P41  1  0.70734637  0.98986133  0.75039866  1
  P  P42  1  0.97057449  0.33199111  0.58477611  1
  P  P43  1  0.36096878  0.02979997  0.58022726  1
  P  P44  1  0.66794388  0.02910607  0.08513044  1
  P  P45  1  0.36223585  0.33602746  0.07997843  1
  P  P46  1  0.34492390  0.38302103  0.41830948  1
  P  P47  1  0.03906042  0.65322325  0.41817155  1
  O  O48  1  0.22675583  0.00301653  0.31377912  1
  O  O49  1  0.78656638  0.78125547  0.31016665  1
  O  O50  1  0.99395900  0.21013142  0.30885485  1
  O  O51  1  0.19761320  0.19446947  0.81061377  1
  O  O52  1  0.99342824  0.80043660  0.80957079  1
  O  O53  1  0.82131616  0.00871034  0.80409005  1
  O  O54  1  0.78739332  0.96720162  0.69144827  1
  O  O55  1  0.16962268  0.20383630  0.69744459  1
  O  O56  1  0.03288788  0.82262748  0.69628444  1
  O  O57  1  0.78874485  0.82327147  0.19636870  1
  O  O58  1  0.02598453  0.21389661  0.19404650  1
  O  O59  1  0.17765727  0.96819441  0.20060907  1
  O  O60  1  0.89606822  0.35500224  0.64165535  1
  O  O61  1  0.48415324  0.10704391  0.63118980  1
  O  O62  1  0.64336916  0.54163087  0.64663616  1
  O  O63  1  0.90829118  0.53293559  0.14435981  1
  O  O64  1  0.63987686  0.08819940  0.14466840  1
  O  O65  1  0.47139087  0.36970014  0.13406682  1
  O  O66  1  0.43910526  0.30419613  0.02269773  1
  O  O67  1  0.84080367  0.54567781  0.02744726  1
  O  O68  1  0.69762218  0.15490931  0.03350868  1
  O  O69  1  0.43871551  0.13404817  0.52094675  1
  O  O70  1  0.69267676  0.54751513  0.52444889  1
  O  O71  1  0.84998510  0.29654320  0.52864609  1
  O  O72  1  0.54455452  0.69553177  0.97587692  1
  O  O73  1  0.16074282  0.45458621  0.97331034  1
  O  O74  1  0.28490219  0.83474246  0.97057402  1
  O  O75  1  0.52847929  0.84645096  0.47641219  1
  O  O76  1  0.30970976  0.46339478  0.47280437  1
  O  O77  1  0.15340409  0.67477310  0.47139853  1
  O  O78  1  0.11396685  0.62249757  0.35953655  1
  O  O79  1  0.50433346  0.88367916  0.35832741  1
  O  O80  1  0.37420085  0.49377695  0.36177353  1
  O  O81  1  0.11689117  0.49394583  0.85611720  1
  O  O82  1  0.37804579  0.88835304  0.85560421  1
  O  O83  1  0.50510229  0.62467474  0.85680254  1
  O  O84  1  0.01861147  0.80894346  0.41665117  1
  O  O85  1  0.80997956  0.99152467  0.41965429  1
  O  O86  1  0.19487404  0.20320603  0.41511708  1
  O  O87  1  0.02363443  0.18720050  0.91148459  1
  O  O88  1  0.16857667  0.98598632  0.91097894  1
  O  O89  1  0.82116320  0.82517183  0.91201622  1
  O  O90  1  0.98506519  0.16862911  0.58632929  1
  O  O91  1  0.18819804  0.02128731  0.58662556  1
  O  O92  1  0.83728929  0.83387128  0.58500257  1
  O  O93  1  0.98012011  0.82478805  0.08820647  1
  O  O94  1  0.83782662  0.02101350  0.08659656  1
  O  O95  1  0.17678455  0.17992779  0.08644893  1
  O  O96  1  0.69338385  0.14858616  0.74951988  1
  O  O97  1  0.46170537  0.32282420  0.75160496  1
  O  O98  1  0.85539208  0.53851157  0.75053373  1
  O  O99  1  0.67713620  0.53026535  0.24500270  1
  O  O100  1  0.85268444  0.32472306  0.24733948  1
  O  O101  1  0.47946076  0.13470548  0.24739109  1
  O  O102  1  0.64148550  0.49325933  0.92162010  1
  O  O103  1  0.85368086  0.36147770  0.92303266  1
  O  O104  1  0.49940413  0.15504075  0.92416161  1
  O  O105  1  0.63409831  0.15572084  0.42349640  1
  O  O106  1  0.51383726  0.37825107  0.42260974  1
  O  O107  1  0.86087067  0.48907324  0.42322426  1
  O  O108  1  0.34283575  0.49610210  0.07381822  1
  O  O109  1  0.16062603  0.65376621  0.07475356  1
  O  O110  1  0.51965348  0.84541836  0.07460416  1
  O  O111  1  0.32938059  0.84605409  0.57419044  1
  O  O112  1  0.50493716  0.67184738  0.57983911  1
  O  O113  1  0.14776985  0.48947708  0.57561853  1
  O  O114  1  0.29657135  0.81467850  0.25133400  1
  O  O115  1  0.52005232  0.70090722  0.25105519  1
  O  O116  1  0.17395443  0.48617152  0.25201791  1
  O  O117  1  0.28967337  0.47080319  0.75341081  1
  O  O118  1  0.17480652  0.69638021  0.75304391  1
  O  O119  1  0.53341604  0.81942342  0.75358571  1
