# generated using pymatgen
data_Na14Sc4Si9Ge4(SO16)3
_symmetry_space_group_name_H-M   'P 1'
_cell_length_a   18.00157910
_cell_length_b   8.96796130
_cell_length_c   21.98960215
_cell_angle_alpha   89.98900269
_cell_angle_beta   89.07305354
_cell_angle_gamma   119.99594888
_symmetry_Int_Tables_number   1
_chemical_formula_structural   Na14Sc4Si9Ge4(SO16)3
_chemical_formula_sum   'Na42 Sc12 Si27 Ge12 S9 O144'
_cell_volume   3073.92572113
_cell_formula_units_Z   3
loop_
 _symmetry_equiv_pos_site_id
 _symmetry_equiv_pos_as_xyz
  1  'x, y, z'
loop_
 _atom_site_type_symbol
 _atom_site_label
 _atom_site_symmetry_multiplicity
 _atom_site_fract_x
 _atom_site_fract_y
 _atom_site_fract_z
 _atom_site_occupancy
  Na  Na0  1  0.82044417  0.01176902  0.25392105  1
  Na  Na1  1  0.17742414  0.35683357  0.25609514  1
  Na  Na2  1  0.69094164  0.37173424  0.25432832  1
  Na  Na3  1  0.00012903  0.63041433  0.24748034  1
  Na  Na4  1  0.49913749  0.63762044  0.25029806  1
  Na  Na5  1  0.31948937  0.62645269  0.74981394  1
  Na  Na6  1  0.99696065  0.35877857  0.74151995  1
  Na  Na7  1  0.50163564  0.37208733  0.74376760  1
  Na  Na8  1  0.18925800  0.00857990  0.74967728  1
  Na  Na9  1  0.68154943  0.00182509  0.74920246  1
  Na  Na10  1  0.14789206  0.32479406  0.58080988  1
  Na  Na11  1  0.65607170  0.33194495  0.58182788  1
  Na  Na12  1  0.33605904  0.98400912  0.58687976  1
  Na  Na13  1  0.83383328  0.97218346  0.58313862  1
  Na  Na14  1  0.15088186  0.97368957  0.07906451  1
  Na  Na15  1  0.65188024  0.97309120  0.07856315  1
  Na  Na16  1  0.33257195  0.69362573  0.08104923  1
  Na  Na17  1  0.83618777  0.68981500  0.08737254  1
  Na  Na18  1  0.47803627  0.67324603  0.91608882  1
  Na  Na19  1  0.97747321  0.67587541  0.92312328  1
  Na  Na20  1  0.34677438  0.02854860  0.90768134  1
  Na  Na21  1  0.84760297  0.02885368  0.91060376  1
  Na  Na22  1  0.17107931  0.29182768  0.90917146  1
  Na  Na23  1  0.66785588  0.28318356  0.90988637  1
  Na  Na24  1  0.48071921  0.28719607  0.42718281  1
  Na  Na25  1  0.97638535  0.28014692  0.42082290  1
  Na  Na26  1  0.16737579  0.05374351  0.41388884  1
  Na  Na27  1  0.67300361  0.04966671  0.41638976  1
  Na  Na28  1  0.34905622  0.66752557  0.41436202  1
  Na  Na29  1  0.84760393  0.66449726  0.41863423  1
  Na  Na30  1  0.99782402  0.99402336  0.50313009  1
  Na  Na31  1  0.50441498  0.00629482  0.50587058  1
  Na  Na32  1  0.00148872  0.99763520  0.00396072  1
  Na  Na33  1  0.50249412  0.00037419  0.00012151  1
  Na  Na34  1  0.32899880  0.33404915  0.82687998  1
  Na  Na35  1  0.82320058  0.33405114  0.82684767  1
  Na  Na36  1  0.32393777  0.31170609  0.33249350  1
  Na  Na37  1  0.82906500  0.32320774  0.33201460  1
  Na  Na38  1  0.15913681  0.65627699  0.16650635  1
  Na  Na39  1  0.66494224  0.65954223  0.16643758  1
  Na  Na40  1  0.16280663  0.66898609  0.66450360  1
  Na  Na41  1  0.66375709  0.66418582  0.66543715  1
  Sc  Sc42  1  0.00280024  0.01223934  0.35236535  1
  Sc  Sc43  1  0.50004440  0.00242842  0.35383190  1
  Sc  Sc44  1  0.99791929  0.99786390  0.85094715  1
  Sc  Sc45  1  0.50319564  0.99410847  0.85138316  1
  Sc  Sc46  1  0.33659438  0.32313717  0.68332403  1
  Sc  Sc47  1  0.83709153  0.34948481  0.18441785  1
  Sc  Sc48  1  0.32582636  0.33513560  0.98358163  1
  Sc  Sc49  1  0.82259334  0.33913890  0.98329629  1
  Sc  Sc50  1  0.32539698  0.30951585  0.48318504  1
  Sc  Sc51  1  0.82764812  0.32933772  0.48660764  1
  Sc  Sc52  1  0.67645973  0.67917701  0.31299011  1
  Sc  Sc53  1  0.17577414  0.67245359  0.81002466  1
  Si  Si54  1  0.15689056  0.00452075  0.24954975  1
  Si  Si55  1  0.64629996  0.99668051  0.24928187  1
  Si  Si56  1  0.35703105  0.71439478  0.24774985  1
  Si  Si57  1  0.85990667  0.71948025  0.24829447  1
  Si  Si58  1  0.00373859  0.29658453  0.25153630  1
  Si  Si59  1  0.14234470  0.28757938  0.74695724  1
  Si  Si60  1  0.65564073  0.30911917  0.75150649  1
  Si  Si61  1  0.50366238  0.71113645  0.75213423  1
  Si  Si62  1  0.35987236  0.00041789  0.74861507  1
  Si  Si63  1  0.85644074  0.00974341  0.74775905  1
  Si  Si64  1  0.48721927  0.33440323  0.58218530  1
  Si  Si65  1  0.98060881  0.34142229  0.58338986  1
  Si  Si66  1  0.17647048  0.01920097  0.58444059  1
  Si  Si67  1  0.67851019  0.02192697  0.58418218  1
  Si  Si68  1  0.84045889  0.62950341  0.58500321  1
  Si  Si69  1  0.48026475  0.62137259  0.08436097  1
  Si  Si70  1  0.98674775  0.63832648  0.08187116  1
  Si  Si71  1  0.17805819  0.33478427  0.08428947  1
  Si  Si72  1  0.67372356  0.33076831  0.08543242  1
  Si  Si73  1  0.31110116  0.67001080  0.92031921  1
  Si  Si74  1  0.80308907  0.66521007  0.91594351  1
  Si  Si75  1  0.16616980  0.95451591  0.91717897  1
  Si  Si76  1  0.66803752  0.94540717  0.91738624  1
  Si  Si77  1  0.30328650  0.94199074  0.41553669  1
  Si  Si78  1  0.81278054  0.95723489  0.42047845  1
  Si  Si79  1  0.16810715  0.39063099  0.41676082  1
  Si  Si80  1  0.66698018  0.37725223  0.41749396  1
  Ge  Ge81  1  0.99655385  0.00996171  0.64307317  1
  Ge  Ge82  1  0.51570722  0.02772533  0.65584979  1
  Ge  Ge83  1  0.01534128  0.00482417  0.15599172  1
  Ge  Ge84  1  0.50457187  0.98295537  0.14879038  1
  Ge  Ge85  1  0.82468516  0.31267086  0.67796895  1
  Ge  Ge86  1  0.32635361  0.35549378  0.18214192  1
  Ge  Ge87  1  0.16147714  0.66066542  0.01905084  1
  Ge  Ge88  1  0.66080647  0.65726950  0.02001895  1
  Ge  Ge89  1  0.16048109  0.66393196  0.51953402  1
  Ge  Ge90  1  0.67734232  0.66019679  0.52796684  1
  Ge  Ge91  1  0.17970733  0.67651282  0.30569186  1
  Ge  Ge92  1  0.68057603  0.68618853  0.80486298  1
  S  S93  1  0.49430295  0.28449223  0.24747345  1
  S  S94  1  0.99565065  0.70285225  0.74918496  1
  S  S95  1  0.33367791  0.63260589  0.58129654  1
  S  S96  1  0.33588002  0.04519756  0.08484284  1
  S  S97  1  0.83395344  0.03490519  0.08120651  1
  S  S98  1  0.02144086  0.37772265  0.91893030  1
  S  S99  1  0.52381791  0.38128778  0.91777183  1
  S  S100  1  0.02578624  0.66567162  0.41506045  1
  S  S101  1  0.52160998  0.66529914  0.41831839  1
  O  O102  1  0.12170513  0.05854990  0.30897703  1
  O  O103  1  0.60437271  0.03433034  0.30919229  1
  O  O104  1  0.41424236  0.78657422  0.30736589  1
  O  O105  1  0.91611162  0.80138640  0.30852105  1
  O  O106  1  0.48465867  0.19161119  0.30565174  1
  O  O107  1  0.98501752  0.18853668  0.31440974  1
  O  O108  1  0.10433487  0.17663548  0.81045463  1
  O  O109  1  0.61625158  0.18746494  0.81186196  1
  O  O110  1  0.48442086  0.77863620  0.81597973  1
  O  O111  1  0.98688569  0.77863526  0.80793296  1
  O  O112  1  0.41320328  0.02662974  0.81043021  1
  O  O113  1  0.91144141  0.04799873  0.80969204  1
  O  O114  1  0.41105193  0.97403758  0.68952355  1
  O  O115  1  0.90331884  0.98141722  0.68885953  1
  O  O116  1  0.07885669  0.18420065  0.68992121  1
  O  O117  1  0.59152519  0.22747074  0.69243695  1
  O  O118  1  0.00854708  0.81595112  0.69742008  1
  O  O119  1  0.52725894  0.85871476  0.69849287  1
  O  O120  1  0.40322234  0.83465112  0.18654280  1
  O  O121  1  0.91061718  0.84703364  0.18795920  1
  O  O122  1  0.02832769  0.19865606  0.19707876  1
  O  O123  1  0.50604071  0.19386325  0.19508748  1
  O  O124  1  0.09362996  0.95986590  0.19005498  1
  O  O125  1  0.58430463  0.96541686  0.18934263  1
  O  O126  1  0.44449101  0.36280389  0.64257443  1
  O  O127  1  0.93237736  0.36493338  0.64421209  1
  O  O128  1  0.24140920  0.10043247  0.64118141  1
  O  O129  1  0.74538168  0.11076802  0.64202837  1
  O  O130  1  0.32304811  0.52734945  0.63585333  1
  O  O131  1  0.81650106  0.48313160  0.63867221  1
  O  O132  1  0.43044685  0.49736237  0.14493371  1
  O  O133  1  0.94585376  0.52580544  0.14251584  1
  O  O134  1  0.32416093  0.13769766  0.13666895  1
  O  O135  1  0.82304616  0.11822493  0.13566431  1
  O  O136  1  0.24713158  0.38566174  0.14138346  1
  O  O137  1  0.73803952  0.37555498  0.14184232  1
  O  O138  1  0.21705366  0.28585157  0.02562704  1
  O  O139  1  0.71138040  0.28009111  0.02496381  1
  O  O140  1  0.42169883  0.54193355  0.02580354  1
  O  O141  1  0.92479657  0.55332073  0.02290273  1
  O  O142  1  0.34509063  0.13613653  0.02689822  1
  O  O143  1  0.83932495  0.13392689  0.02573465  1
  O  O144  1  0.21626490  0.14418231  0.52391262  1
  O  O145  1  0.71595043  0.14815998  0.52501114  1
  O  O146  1  0.33957187  0.54541169  0.52575978  1
  O  O147  1  0.85519114  0.56347912  0.52029531  1
  O  O148  1  0.42387547  0.29202599  0.52358775  1
  O  O149  1  0.92331220  0.30260545  0.52410531  1
  O  O150  1  0.25859142  0.68986677  0.98060496  1
  O  O151  1  0.75794055  0.69063629  0.97844907  1
  O  O152  1  0.07646181  0.46021431  0.97309474  1
  O  O153  1  0.57667053  0.46265285  0.97308478  1
  O  O154  1  0.15281865  0.82990395  0.97774540  1
  O  O155  1  0.65041592  0.82418838  0.97981183  1
  O  O156  1  0.25761812  0.82417869  0.47728912  1
  O  O157  1  0.76109441  0.83090096  0.47987486  1
  O  O158  1  0.15091566  0.47781461  0.47838692  1
  O  O159  1  0.65592555  0.47581242  0.47789503  1
  O  O160  1  0.07753357  0.69037817  0.47065059  1
  O  O161  1  0.57501090  0.68663470  0.46976504  1
  O  O162  1  0.06508354  0.64389055  0.35925785  1
  O  O163  1  0.55723964  0.64333494  0.35968670  1
  O  O164  1  0.24292075  0.85583591  0.35599584  1
  O  O165  1  0.75668490  0.87913192  0.35867301  1
  O  O166  1  0.18115531  0.50650294  0.35426574  1
  O  O167  1  0.67358742  0.47939620  0.35434108  1
  O  O168  1  0.05974195  0.47724674  0.86301555  1
  O  O169  1  0.56092917  0.48309459  0.86219955  1
  O  O170  1  0.17614404  0.86723918  0.85518839  1
  O  O171  1  0.68065585  0.85361729  0.85611225  1
  O  O172  1  0.25397395  0.63256762  0.85959104  1
  O  O173  1  0.74211879  0.63101989  0.85709158  1
  O  O174  1  0.01903023  0.82465145  0.41333317  1
  O  O175  1  0.51161417  0.82227654  0.41592348  1
  O  O176  1  0.39844772  0.96120702  0.41320776  1
  O  O177  1  0.90553607  0.96371382  0.41997618  1
  O  O178  1  0.08490203  0.19682703  0.41745510  1
  O  O179  1  0.57951954  0.18496043  0.41949581  1
  O  O180  1  0.01362143  0.20449425  0.91743592  1
  O  O181  1  0.51752620  0.21005769  0.91612440  1
  O  O182  1  0.08056686  0.97616993  0.91910686  1
  O  O183  1  0.58487983  0.97239441  0.91820760  1
  O  O184  1  0.40382190  0.84690977  0.92182418  1
  O  O185  1  0.89868001  0.83645273  0.91373644  1
  O  O186  1  0.49596247  0.15767054  0.59043081  1
  O  O187  1  0.99236645  0.16813653  0.58913811  1
  O  O188  1  0.08329454  0.00903001  0.59371209  1
  O  O189  1  0.58596588  0.01542114  0.59558035  1
  O  O190  1  0.40797456  0.80641182  0.58302501  1
  O  O191  1  0.91923905  0.82699171  0.59475128  1
  O  O192  1  0.48894000  0.81716838  0.09029135  1
  O  O193  1  0.99710649  0.83369254  0.08923843  1
  O  O194  1  0.41053488  0.01840682  0.08926570  1
  O  O195  1  0.90823440  0.01015426  0.08246553  1
  O  O196  1  0.08606093  0.15713015  0.09493980  1
  O  O197  1  0.57717874  0.15380696  0.09485999  1
  O  O198  1  0.34626854  0.16672687  0.74645927  1
  O  O199  1  0.84465715  0.18230397  0.74016354  1
  O  O200  1  0.23921340  0.31849455  0.74043962  1
  O  O201  1  0.74708513  0.31204748  0.73931963  1
  O  O202  1  0.41901556  0.52448435  0.74266822  1
  O  O203  1  0.92024031  0.52923609  0.74631944  1
  O  O204  1  0.34587585  0.51659161  0.24144636  1
  O  O205  1  0.84629488  0.52588707  0.24531474  1
  O  O206  1  0.41829859  0.30683229  0.24332088  1
  O  O207  1  0.91941493  0.31366634  0.24187020  1
  O  O208  1  0.25138252  0.18283908  0.23419671  1
  O  O209  1  0.74195614  0.16047929  0.24164393  1
  O  O210  1  0.32391581  0.50153366  0.92307943  1
  O  O211  1  0.81518815  0.49453115  0.91840980  1
  O  O212  1  0.43669105  0.35841241  0.92539054  1
  O  O213  1  0.93549736  0.35839745  0.92637536  1
  O  O214  1  0.25491911  0.14167977  0.92092254  1
  O  O215  1  0.75613723  0.13465316  0.91995012  1
  O  O216  1  0.31547805  0.13659533  0.41771549  1
  O  O217  1  0.82520488  0.15009637  0.42316126  1
  O  O218  1  0.25595423  0.37774943  0.41904544  1
  O  O219  1  0.75417681  0.36369134  0.41862171  1
  O  O220  1  0.43330697  0.51096279  0.42351229  1
  O  O221  1  0.93953121  0.51171902  0.42025760  1
  O  O222  1  0.17440547  0.51370860  0.07673476  1
  O  O223  1  0.66992956  0.51007117  0.07485403  1
  O  O224  1  0.08561360  0.66408555  0.07572466  1
  O  O225  1  0.57911771  0.65486122  0.08054367  1
  O  O226  1  0.25551891  0.86995326  0.08529778  1
  O  O227  1  0.75233933  0.85816273  0.08089301  1
  O  O228  1  0.17265400  0.83206047  0.57406689  1
  O  O229  1  0.67498039  0.83640246  0.57766684  1
  O  O230  1  0.25220187  0.64500425  0.58088651  1
  O  O231  1  0.75103514  0.64504866  0.58382374  1
  O  O232  1  0.08014289  0.50775959  0.57884917  1
  O  O233  1  0.58475474  0.50314428  0.57620290  1
  O  O234  1  0.15778147  0.82246444  0.25498207  1
  O  O235  1  0.64712785  0.81592680  0.24962981  1
  O  O236  1  0.25973616  0.68521420  0.24931854  1
  O  O237  1  0.76464290  0.70188663  0.24644124  1
  O  O238  1  0.09096417  0.49262650  0.25546673  1
  O  O239  1  0.57311410  0.45883964  0.24843007  1
  O  O240  1  0.14429497  0.47229385  0.74810854  1
  O  O241  1  0.65679126  0.49431179  0.75662894  1
  O  O242  1  0.07479488  0.68599215  0.75136772  1
  O  O243  1  0.59102289  0.69081342  0.75615783  1
  O  O244  1  0.26453328  0.82590569  0.74601979  1
  O  O245  1  0.75929527  0.83994329  0.75058325  1
