# generated using pymatgen
data_Hg2P3Cl
_symmetry_space_group_name_H-M   'P 1'
_cell_length_a   5.95294616
_cell_length_b   5.95294467
_cell_length_c   7.69635369
_cell_angle_alpha   95.30467272
_cell_angle_beta   95.30466529
_cell_angle_gamma   96.66640638
_symmetry_Int_Tables_number   1
_chemical_formula_structural   Hg2P3Cl
_chemical_formula_sum   'Hg4 P6 Cl2'
_cell_volume   268.26364092
_cell_formula_units_Z   2
loop_
 _symmetry_equiv_pos_site_id
 _symmetry_equiv_pos_as_xyz
  1  'x, y, z'
loop_
 _atom_site_type_symbol
 _atom_site_label
 _atom_site_symmetry_multiplicity
 _atom_site_fract_x
 _atom_site_fract_y
 _atom_site_fract_z
 _atom_site_occupancy
  Hg  Hg0  1  0.86136089  0.58942095  0.66917624  1
  Hg  Hg1  1  0.41057905  0.13863911  0.83082376  1
  Hg  Hg2  1  0.58942095  0.86136089  0.16917624  1
  Hg  Hg3  1  0.13863911  0.41057905  0.33082376  1
  P  P4  1  0.94091342  0.82663028  0.02720086  1
  P  P5  1  0.17336972  0.05908658  0.47279914  1
  P  P6  1  0.05908658  0.17336972  0.97279914  1
  P  P7  1  0.80636786  0.19363214  0.75000000  1
  P  P8  1  0.19363214  0.80636786  0.25000000  1
  P  P9  1  0.82663028  0.94091342  0.52720086  1
  Cl  Cl10  1  0.37209213  0.62790787  0.75000000  1
  Cl  Cl11  1  0.62790787  0.37209213  0.25000000  1
