# generated using pymatgen
data_MgV3FeO8
_symmetry_space_group_name_H-M   'P 1'
_cell_length_a   5.73589728
_cell_length_b   6.90230589
_cell_length_c   5.34326278
_cell_angle_alpha   90.63087988
_cell_angle_beta   89.06031780
_cell_angle_gamma   89.14564175
_symmetry_Int_Tables_number   1
_chemical_formula_structural   MgV3FeO8
_chemical_formula_sum   'Mg1 V3 Fe1 O8'
_cell_volume   211.47930845
_cell_formula_units_Z   1
loop_
 _symmetry_equiv_pos_site_id
 _symmetry_equiv_pos_as_xyz
  1  'x, y, z'
loop_
 _atom_site_type_symbol
 _atom_site_label
 _atom_site_symmetry_multiplicity
 _atom_site_fract_x
 _atom_site_fract_y
 _atom_site_fract_z
 _atom_site_occupancy
  Mg  Mg0  1  0.92589600  0.37774800  0.49777600  1
  V  V1  1  0.06897900  0.11544800  0.99942100  1
  V  V2  1  0.43322100  0.64451200  0.50402500  1
  V  V3  1  0.57590600  0.37598300  0.00435800  1
  Fe  Fe4  1  0.91785400  0.85709600  0.49575900  1
  O  O5  1  0.00442400  0.12138100  0.32587300  1
  O  O6  1  0.11732200  0.61205700  0.45119800  1
  O  O7  1  0.35550000  0.17626300  0.93720500  1
  O  O8  1  0.48710600  0.59323400  0.83343400  1
  O  O9  1  0.61698800  0.44056100  0.35231200  1
  O  O10  1  0.58212900  0.85272000  0.42664700  1
  O  O11  1  0.88577600  0.29891400  0.85729200  1
  O  O12  1  0.00806400  0.90074700  0.86309900  1
