# generated using pymatgen
data_Ba2MgNiMoO6
_symmetry_space_group_name_H-M   'P 1'
_cell_length_a   5.75482034
_cell_length_b   6.82270862
_cell_length_c   6.82270865
_cell_angle_alpha   49.83002633
_cell_angle_beta   65.05327848
_cell_angle_gamma   65.05325707
_symmetry_Int_Tables_number   1
_chemical_formula_structural   Ba2MgNiMoO6
_chemical_formula_sum   'Ba2 Mg1 Ni1 Mo1 O6'
_cell_volume   181.21584322
_cell_formula_units_Z   1
loop_
 _symmetry_equiv_pos_site_id
 _symmetry_equiv_pos_as_xyz
  1  'x, y, z'
loop_
 _atom_site_type_symbol
 _atom_site_label
 _atom_site_symmetry_multiplicity
 _atom_site_fract_x
 _atom_site_fract_y
 _atom_site_fract_z
 _atom_site_occupancy
  Ba  Ba0  1  0.82583517  0.67426055  0.67426055  1
  Ba  Ba1  1  0.17436937  0.32573898  0.32573898  1
  Mg  Mg2  1  0.49990473  0.99999735  0.99999735  1
  Ni  Ni3  1  -0.00016555  0.00003468  0.00003468  1
  Mo  Mo4  1  0.49989321  0.50000104  0.50000104  1
  O  O5  1  0.25239901  0.24563961  0.75447816  1
  O  O6  1  0.74758374  0.24557446  0.75429427  1
  O  O7  1  0.67758575  0.32234166  0.32234166  1
  O  O8  1  0.74758374  0.75429327  0.24557446  1
  O  O9  1  0.25239901  0.75447816  0.24563961  1
  O  O10  1  0.32261183  0.67763823  0.67763723  1
