# generated using pymatgen
data_PbF2
_symmetry_space_group_name_H-M   'P 1'
_cell_length_a   3.87964277
_cell_length_b   6.40810393
_cell_length_c   7.66379463
_cell_angle_alpha   90.00000000
_cell_angle_beta   90.00000000
_cell_angle_gamma   90.00000000
_symmetry_Int_Tables_number   1
_chemical_formula_structural   PbF2
_chemical_formula_sum   'Pb4 F8'
_cell_volume   190.53077914
_cell_formula_units_Z   4
loop_
 _symmetry_equiv_pos_site_id
 _symmetry_equiv_pos_as_xyz
  1  'x, y, z'
loop_
 _atom_site_type_symbol
 _atom_site_label
 _atom_site_symmetry_multiplicity
 _atom_site_fract_x
 _atom_site_fract_y
 _atom_site_fract_z
 _atom_site_occupancy
  Pb  Pb0  1  0.25000000  0.75507947  0.39405554  1
  Pb  Pb1  1  0.75000000  0.24492053  0.60594446  1
  Pb  Pb2  1  0.25000000  0.25507947  0.10594446  1
  Pb  Pb3  1  0.75000000  0.74492053  0.89405554  1
  F  F4  1  0.25000000  0.97409676  0.65347941  1
  F  F5  1  0.75000000  0.02590324  0.34652059  1
  F  F6  1  0.25000000  0.47409676  0.84652059  1
  F  F7  1  0.75000000  0.52590324  0.15347941  1
  F  F8  1  0.75000000  0.14079530  0.93486462  1
  F  F9  1  0.25000000  0.85920470  0.06513538  1
  F  F10  1  0.75000000  0.64079530  0.56513538  1
  F  F11  1  0.25000000  0.35920470  0.43486462  1
