# generated using pymatgen
data_Na2CaGaP(SO6)2
_symmetry_space_group_name_H-M   'P 1'
_cell_length_a   9.04555928
_cell_length_b   9.02365875
_cell_length_c   22.63754613
_cell_angle_alpha   91.02857389
_cell_angle_beta   90.00000000
_cell_angle_gamma   120.08031745
_symmetry_Int_Tables_number   1
_chemical_formula_structural   Na2CaGaP(SO6)2
_chemical_formula_sum   'Na12 Ca6 Ga6 P6 S12 O72'
_cell_volume   1598.57324551
_cell_formula_units_Z   6
loop_
 _symmetry_equiv_pos_site_id
 _symmetry_equiv_pos_as_xyz
  1  'x, y, z'
loop_
 _atom_site_type_symbol
 _atom_site_label
 _atom_site_symmetry_multiplicity
 _atom_site_fract_x
 _atom_site_fract_y
 _atom_site_fract_z
 _atom_site_occupancy
  Na  Na0  1  0.99898265  0.63758031  0.24433234  1
  Na  Na1  1  0.63859766  0.63758031  0.74433234  1
  Na  Na2  1  0.65896532  0.96472190  0.57959007  1
  Na  Na3  1  0.30575757  0.96472190  0.07959007  1
  Na  Na4  1  0.69496325  0.02564643  0.91219553  1
  Na  Na5  1  0.33068218  0.02564643  0.41219553  1
  Na  Na6  1  0.98499249  0.99239821  0.50142546  1
  Na  Na7  1  0.00740572  0.99239821  0.00142546  1
  Na  Na8  1  0.65964647  0.31457362  0.83450350  1
  Na  Na9  1  0.65492814  0.31457362  0.33450350  1
  Na  Na10  1  0.33517077  0.65361177  0.16717933  1
  Na  Na11  1  0.31844000  0.65361177  0.66717933  1
  Ca  Ca12  1  0.99257262  0.00732729  0.35347623  1
  Ca  Ca13  1  0.01475467  0.00732729  0.85347623  1
  Ca  Ca14  1  0.66418437  0.32560955  0.68586942  1
  Ca  Ca15  1  0.66142618  0.32560955  0.18586942  1
  Ca  Ca16  1  0.32578249  0.65962240  0.01904484  1
  Ca  Ca17  1  0.33383891  0.65962240  0.51904484  1
  Ga  Ga18  1  0.98570025  0.98112541  0.65290927  1
  Ga  Ga19  1  0.99542516  0.98112541  0.15290927  1
  Ga  Ga20  1  0.66895880  0.34772658  0.98420448  1
  Ga  Ga21  1  0.67876878  0.34772658  0.48420448  1
  Ga  Ga22  1  0.35376651  0.69502917  0.31746616  1
  Ga  Ga23  1  0.34126166  0.69502917  0.81746616  1
  P  P24  1  0.29126768  0.98438172  0.25334974  1
  P  P25  1  0.69311403  0.98438172  0.75334974  1
  P  P26  1  0.68412159  0.63656359  0.58656912  1
  P  P27  1  0.95244300  0.63656359  0.08656912  1
  P  P28  1  0.35556007  0.98227475  0.92294421  1
  P  P29  1  0.62671368  0.98227475  0.42294421  1
  S  S30  1  0.69395244  0.71204323  0.24962346  1
  S  S31  1  0.01780578  0.30303635  0.24792190  1
  S  S32  1  0.28523056  0.30303635  0.74792190  1
  S  S33  1  0.01809080  0.71204323  0.74962346  1
  S  S34  1  0.95591245  0.31871674  0.58310401  1
  S  S35  1  0.35398774  0.04157343  0.58112307  1
  S  S36  1  0.68758669  0.04157343  0.08112307  1
  S  S37  1  0.36280529  0.31871674  0.08310401  1
  S  S38  1  0.62247287  0.65178460  0.91468043  1
  S  S39  1  0.02847498  0.38152754  0.91399840  1
  S  S40  1  0.35305156  0.38152754  0.41399840  1
  S  S41  1  0.02931073  0.65178460  0.41468043  1
  O  O42  1  0.20865016  -0.00127072  0.30931009  1
  O  O43  1  0.79599210  0.79040355  0.30279766  1
  O  O44  1  0.99434086  0.20832814  0.30161376  1
  O  O45  1  0.21398728  0.20832814  0.80161376  1
  O  O46  1  0.99441145  0.79040355  0.80279766  1
  O  O47  1  0.79007912  -0.00127072  0.80931009  1
  O  O48  1  0.78093045  0.95299339  0.69708024  1
  O  O49  1  0.17838197  0.20852969  0.69404944  1
  O  O50  1  0.04193407  0.81689269  0.69637040  1
  O  O51  1  0.77495861  0.81689269  0.19637040  1
  O  O52  1  0.03014772  0.20852969  0.19404944  1
  O  O53  1  0.17206293  0.95299339  0.19708024  1
  O  O54  1  0.87947425  0.34022580  0.63697313  1
  O  O55  1  0.46640774  0.12326547  0.63209288  1
  O  O56  1  0.66606535  0.54649086  0.64425843  1
  O  O57  1  0.88042651  0.54649086  0.14425843  1
  O  O58  1  0.65685872  0.12326547  0.13209288  1
  O  O59  1  0.46075255  0.34022580  0.13697313  1
  O  O60  1  0.44948526  0.29269361  0.02971299  1
  O  O61  1  0.83514303  0.53783049  0.03137554  1
  O  O62  1  0.70526045  0.13944350  0.02592853  1
  O  O63  1  0.43418405  0.13944350  0.52592853  1
  O  O64  1  0.70268846  0.53783049  0.53137554  1
  O  O65  1  0.84320935  0.29269361  0.52971299  1
  O  O66  1  0.53903987  0.67548308  0.96616994  1
  O  O67  1  0.12403183  0.45397507  0.96868109  1
  O  O68  1  0.33618723  0.88491054  0.97877526  1
  O  O69  1  0.54872231  0.88491054  0.47877526  1
  O  O70  1  0.32994224  0.45397507  0.46868109  1
  O  O71  1  0.13644222  0.67548308  0.46616994  1
  O  O72  1  0.10745228  0.62910261  0.35884997  1
  O  O73  1  0.50108732  0.88881294  0.36774300  1
  O  O74  1  0.36426685  0.48426176  0.36097138  1
  O  O75  1  0.11999391  0.48426176  0.86097138  1
  O  O76  1  0.38772461  0.88881294  0.86774300  1
  O  O77  1  0.52164933  0.62910261  0.85884997  1
  O  O78  1  0.01276922  0.80734483  0.41178531  1
  O  O79  1  0.80420092  0.00797704  0.41520101  1
  O  O80  1  0.20933909  0.20225603  0.40940651  1
  O  O81  1  0.99291694  0.20225603  0.90940651  1
  O  O82  1  0.20377612  0.00797704  0.91520101  1
  O  O83  1  0.79457561  0.80734483  0.91178531  1
  O  O84  1  0.96046664  0.15409932  0.58583434  1
  O  O85  1  0.18566435  0.03181430  0.58801798  1
  O  O86  1  0.85081122  0.82020902  0.58865969  1
  O  O87  1  0.96939780  0.82020902  0.08865969  1
  O  O88  1  0.84614995  0.03181430  0.08801798  1
  O  O89  1  0.19363268  0.15409932  0.08583434  1
  O  O90  1  0.66465627  0.13510145  0.74788560  1
  O  O91  1  0.46270910  0.33680596  0.74318442  1
  O  O92  1  0.86448845  0.54059959  0.74388154  1
  O  O93  1  0.67611213  0.54059959  0.24388154  1
  O  O94  1  0.87409787  0.33680596  0.24318442  1
  O  O95  1  0.47044618  0.13510145  0.24788560  1
  O  O96  1  0.63851071  0.49515505  0.91965822  1
  O  O97  1  0.85614054  0.37110681  0.91697890  1
  O  O98  1  0.52887124  0.15899100  0.92579378  1
  O  O99  1  0.63012076  0.15899100  0.42579378  1
  O  O100  1  0.51496727  0.37110681  0.41697890  1
  O  O101  1  0.85664534  0.49515505  0.41965822  1
  O  O102  1  0.33814662  0.46604012  0.07774412  1
  O  O103  1  0.13520156  0.66890666  0.07993493  1
  O  O104  1  0.53528257  0.86651984  0.07709805  1
  O  O105  1  0.33123627  0.86651984  0.57709805  1
  O  O106  1  0.53370410  0.66890666  0.57993493  1
  O  O107  1  0.12789250  0.46604012  0.57774412  1
  O  O108  1  0.29645378  0.80986450  0.25518539  1
  O  O109  1  0.52137821  0.69638698  0.25447424  1
  O  O110  1  0.18058331  0.47627446  0.25101128  1
  O  O111  1  0.29569015  0.47627446  0.75101128  1
  O  O112  1  0.17500777  0.69638698  0.75447424  1
  O  O113  1  0.51340972  0.80986450  0.75518539  1
