# generated using pymatgen
data_Na10Ti5Zn3Si6(SO8)6
_symmetry_space_group_name_H-M   'P 1'
_cell_length_a   17.86424586
_cell_length_b   8.93642797
_cell_length_c   22.17879606
_cell_angle_alpha   89.93738193
_cell_angle_beta   89.53021940
_cell_angle_gamma   119.96579004
_symmetry_Int_Tables_number   1
_chemical_formula_structural   Na10Ti5Zn3Si6(SO8)6
_chemical_formula_sum   'Na30 Ti15 Zn9 Si18 S18 O144'
_cell_volume   3067.21674100
_cell_formula_units_Z   3
loop_
 _symmetry_equiv_pos_site_id
 _symmetry_equiv_pos_as_xyz
  1  'x, y, z'
loop_
 _atom_site_type_symbol
 _atom_site_label
 _atom_site_symmetry_multiplicity
 _atom_site_fract_x
 _atom_site_fract_y
 _atom_site_fract_z
 _atom_site_occupancy
  Na  Na0  1  0.31794390  0.00536013  0.24609216  1
  Na  Na1  1  0.19400898  0.36924601  0.24310080  1
  Na  Na2  1  0.68911879  0.36737687  0.24235135  1
  Na  Na3  1  0.99755560  0.63129483  0.25009001  1
  Na  Na4  1  0.31582057  0.61887037  0.75203125  1
  Na  Na5  1  0.81714083  0.62286464  0.74963238  1
  Na  Na6  1  0.99390210  0.36556840  0.74732874  1
  Na  Na7  1  0.49305631  0.37071337  0.74100732  1
  Na  Na8  1  0.18726097  0.00905026  0.74843231  1
  Na  Na9  1  0.68959150  0.01274699  0.75062334  1
  Na  Na10  1  0.65016485  0.34628510  0.57510921  1
  Na  Na11  1  0.32383035  0.68583871  0.07831704  1
  Na  Na12  1  0.82628446  0.69139869  0.08619387  1
  Na  Na13  1  0.16128521  0.31046212  0.92242085  1
  Na  Na14  1  0.99533302  0.30587940  0.42072133  1
  Na  Na15  1  0.16519535  0.02895101  0.42088439  1
  Na  Na16  1  0.66028584  0.02062560  0.41445799  1
  Na  Na17  1  0.84418205  0.67337359  0.41993708  1
  Na  Na18  1  0.00259945  0.00574226  0.50371839  1
  Na  Na19  1  0.48852881  0.99892589  0.49518545  1
  Na  Na20  1  0.00172895  0.01352309  0.99868064  1
  Na  Na21  1  0.50262156  0.02196696  0.99635415  1
  Na  Na22  1  0.34226291  0.34730989  0.83351531  1
  Na  Na23  1  0.83604311  0.33610954  0.83155213  1
  Na  Na24  1  0.34295560  0.36766492  0.32861301  1
  Na  Na25  1  0.83210398  0.32564708  0.32597608  1
  Na  Na26  1  0.16423842  0.66052371  0.15740595  1
  Na  Na27  1  0.65963288  0.66740463  0.15968656  1
  Na  Na28  1  0.16333408  0.66362236  0.65806769  1
  Na  Na29  1  0.66169159  0.67171224  0.65796412  1
  Ti  Ti30  1  0.00138421  0.99105737  0.35502543  1
  Ti  Ti31  1  0.99795561  0.00688123  0.84917208  1
  Ti  Ti32  1  0.50240442  0.99792641  0.85725739  1
  Ti  Ti33  1  0.00151566  0.00071373  0.65332131  1
  Ti  Ti34  1  0.50513251  0.01343184  0.64650505  1
  Ti  Ti35  1  0.00744954  0.99444366  0.14741789  1
  Ti  Ti36  1  0.49827419  0.00232079  0.14499316  1
  Ti  Ti37  1  0.33220660  0.34359987  0.97621605  1
  Ti  Ti38  1  0.82663091  0.32158117  0.98090940  1
  Ti  Ti39  1  0.33767783  0.33821485  0.48433482  1
  Ti  Ti40  1  0.83386966  0.33740627  0.47328456  1
  Ti  Ti41  1  0.17245000  0.66237777  0.31465649  1
  Ti  Ti42  1  0.67754551  0.67446243  0.31657199  1
  Ti  Ti43  1  0.15605716  0.63953354  0.81758112  1
  Ti  Ti44  1  0.65582390  0.65317939  0.80933625  1
  Zn  Zn45  1  0.49957109  0.00247005  0.35026627  1
  Zn  Zn46  1  0.33780113  0.35094105  0.68282589  1
  Zn  Zn47  1  0.83664959  0.33694623  0.69065978  1
  Zn  Zn48  1  0.32946542  0.34395637  0.18565014  1
  Zn  Zn49  1  0.83056115  0.33906400  0.18026215  1
  Zn  Zn50  1  0.16628114  0.63760667  0.01202421  1
  Zn  Zn51  1  0.65722791  0.63479804  0.01559886  1
  Zn  Zn52  1  0.15844341  0.65178109  0.51106829  1
  Zn  Zn53  1  0.66163001  0.64997676  0.51416390  1
  Si  Si54  1  0.14758592  0.99353832  0.25237890  1
  Si  Si55  1  0.35896555  0.71310437  0.25281726  1
  Si  Si56  1  0.85531033  0.71352895  0.24905551  1
  Si  Si57  1  0.14622894  0.29119209  0.74988865  1
  Si  Si58  1  0.64328641  0.28751033  0.75071263  1
  Si  Si59  1  0.00508986  0.71706911  0.75253299  1
  Si  Si60  1  0.49948732  0.71727272  0.75020665  1
  Si  Si61  1  0.85284006  0.99344339  0.75000164  1
  Si  Si62  1  0.48097361  0.33475395  0.58796245  1
  Si  Si63  1  0.18335247  0.32998247  0.08520756  1
  Si  Si64  1  0.68414928  0.33390923  0.08701414  1
  Si  Si65  1  0.31471816  0.67513423  0.91841728  1
  Si  Si66  1  0.01146039  0.35916239  0.91910349  1
  Si  Si67  1  0.51707592  0.36830205  0.91693651  1
  Si  Si68  1  0.81195582  0.95599163  0.42019655  1
  Si  Si69  1  0.17080979  0.37387663  0.41752513  1
  Si  Si70  1  0.65950062  0.36205496  0.41869894  1
  Si  Si71  1  0.02514770  0.66995161  0.41661438  1
  S  S72  1  0.64535436  0.99137555  0.24984533  1
  S  S73  1  0.99954905  0.28535200  0.25004422  1
  S  S74  1  0.50323315  0.29733574  0.24935511  1
  S  S75  1  0.35589279  0.99360946  0.75124146  1
  S  S76  1  0.97859438  0.32874856  0.58344381  1
  S  S77  1  0.18566787  0.03937060  0.58434871  1
  S  S78  1  0.68774860  0.04196741  0.58374298  1
  S  S79  1  0.33239019  0.63106529  0.58352636  1
  S  S80  1  0.83898313  0.63087876  0.58424350  1
  S  S81  1  0.47896223  0.62657070  0.08414199  1
  S  S82  1  0.97993159  0.62575045  0.08349933  1
  S  S83  1  0.33529028  0.04779172  0.08599486  1
  S  S84  1  0.83449100  0.04584837  0.08339521  1
  S  S85  1  0.81446555  0.66641380  0.91733903  1
  S  S86  1  0.16604358  0.95506040  0.91728217  1
  S  S87  1  0.66811984  0.95708803  0.91778047  1
  S  S88  1  0.31353790  0.96126138  0.41878917  1
  S  S89  1  0.51914378  0.65839644  0.41716846  1
  O  O90  1  0.09583406  0.02083654  0.30881019  1
  O  O91  1  0.61214951  0.02431593  0.30668116  1
  O  O92  1  0.41204240  0.81289030  0.31019499  1
  O  O93  1  0.91461519  0.81797083  0.30707813  1
  O  O94  1  0.49072380  0.19805207  0.30463641  1
  O  O95  1  0.99003444  0.19170119  0.30712261  1
  O  O96  1  0.10032047  0.17377297  0.81018016  1
  O  O97  1  0.59273558  0.15708032  0.80553460  1
  O  O98  1  0.48739229  0.81486353  0.80734160  1
  O  O99  1  0.98982918  0.81535477  0.80883103  1
  O  O100  1  0.40964615  0.02084081  0.80453222  1
  O  O101  1  0.91869361  0.03074793  0.80637468  1
  O  O102  1  0.39744958  0.97079950  0.69573728  1
  O  O103  1  0.90071221  0.95624203  0.69178758  1
  O  O104  1  0.07856293  0.19880742  0.69303445  1
  O  O105  1  0.58263348  0.20571605  0.68902187  1
  O  O106  1  0.02275022  0.84638549  0.69295209  1
  O  O107  1  0.51382273  0.84294184  0.69087653  1
  O  O108  1  0.40543210  0.84086253  0.19129980  1
  O  O109  1  0.90013488  0.82568238  0.18725539  1
  O  O110  1  0.01049696  0.19605247  0.19714037  1
  O  O111  1  0.51871524  0.20883924  0.19592578  1
  O  O112  1  0.08209973  0.96876886  0.19429082  1
  O  O113  1  0.59001049  0.98014859  0.19763264  1
  O  O114  1  0.43681848  0.34784020  0.64948850  1
  O  O115  1  0.93586568  0.34050481  0.63918048  1
  O  O116  1  0.23291605  0.12285108  0.63990500  1
  O  O117  1  0.73523397  0.12356602  0.63942990  1
  O  O118  1  0.31873758  0.53643403  0.64123196  1
  O  O119  1  0.82927684  0.52603081  0.63872475  1
  O  O120  1  0.44185433  0.52370074  0.13876181  1
  O  O121  1  0.94576128  0.53373903  0.14188036  1
  O  O122  1  0.33170155  0.12718162  0.14341814  1
  O  O123  1  0.82796072  0.12884686  0.13843454  1
  O  O124  1  0.23847097  0.35809669  0.14524632  1
  O  O125  1  0.73971033  0.36833813  0.14786275  1
  O  O126  1  0.23607298  0.31098409  0.02444359  1
  O  O127  1  0.73965100  0.30924622  0.02890070  1
  O  O128  1  0.42320348  0.54144160  0.03009731  1
  O  O129  1  0.92084989  0.52970604  0.03296716  1
  O  O130  1  0.34708229  0.15695519  0.03280093  1
  O  O131  1  0.84488629  0.15693745  0.02856763  1
  O  O132  1  0.23192537  0.14897596  0.52899594  1
  O  O133  1  0.73250457  0.15430772  0.52933618  1
  O  O134  1  0.34035305  0.52855019  0.53178242  1
  O  O135  1  0.84326630  0.53743029  0.52834696  1
  O  O136  1  0.41553723  0.31748693  0.52974265  1
  O  O137  1  0.92721302  0.31817255  0.52832018  1
  O  O138  1  0.28213330  0.71152288  0.98068290  1
  O  O139  1  0.77865609  0.69578233  0.97310069  1
  O  O140  1  0.07856787  0.43920912  0.97227064  1
  O  O141  1  0.57529114  0.44122473  0.97431160  1
  O  O142  1  0.15624227  0.85456973  0.97092518  1
  O  O143  1  0.65954617  0.85564196  0.97108558  1
  O  O144  1  0.27213604  0.85796939  0.47270584  1
  O  O145  1  0.77079404  0.82644431  0.47548931  1
  O  O146  1  0.14009528  0.44455914  0.47289870  1
  O  O147  1  0.64820239  0.43520000  0.48102325  1
  O  O148  1  0.08722149  0.73137771  0.47320752  1
  O  O149  1  0.57165165  0.68863595  0.47135194  1
  O  O150  1  0.06681618  0.62628083  0.35729475  1
  O  O151  1  0.56109802  0.63347778  0.36244342  1
  O  O152  1  0.25835912  0.87770440  0.36300281  1
  O  O153  1  0.74647551  0.86660248  0.36053123  1
  O  O154  1  0.18510521  0.49768099  0.35634181  1
  O  O155  1  0.68178158  0.50113800  0.36066575  1
  O  O156  1  0.05891861  0.48123844  0.85590138  1
  O  O157  1  0.56534704  0.49856989  0.85637881  1
  O  O158  1  0.17541850  0.87251192  0.86065836  1
  O  O159  1  0.67968774  0.88053509  0.86089089  1
  O  O160  1  0.24601558  0.63561994  0.86111033  1
  O  O161  1  0.76077876  0.64417611  0.86309737  1
  O  O162  1  0.00312498  0.82745860  0.40771197  1
  O  O163  1  0.50786212  0.81020287  0.41115550  1
  O  O164  1  0.40139007  0.99230261  0.41224326  1
  O  O165  1  0.91004165  0.99412585  0.40756612  1
  O  O166  1  0.08523069  0.18018301  0.40585458  1
  O  O167  1  0.58566531  0.16497814  0.40790876  1
  O  O168  1  0.00470087  0.16935808  0.90899727  1
  O  O169  1  0.50493173  0.17724576  0.90318765  1
  O  O170  1  0.09072287  0.98530735  0.91232511  1
  O  O171  1  0.59166301  0.98234545  0.91315998  1
  O  O172  1  0.41195505  0.83301404  0.90591364  1
  O  O173  1  0.90324731  0.81704540  0.90975321  1
  O  O174  1  0.48725400  0.15147882  0.58806834  1
  O  O175  1  0.98399574  0.16627608  0.58416877  1
  O  O176  1  0.09871672  0.02837639  0.58446429  1
  O  O177  1  0.60128492  0.03789844  0.58526640  1
  O  O178  1  0.41486940  0.79904896  0.58405527  1
  O  O179  1  0.92048195  0.80121069  0.58497223  1
  O  O180  1  0.47942375  0.79840967  0.08841978  1
  O  O181  1  0.97858794  0.79598167  0.08529976  1
  O  O182  1  0.41643800  0.02609188  0.08742463  1
  O  O183  1  0.91306434  0.02583226  0.08331002  1
  O  O184  1  0.08620402  0.14834619  0.09074160  1
  O  O185  1  0.58859057  0.15277172  0.09210130  1
  O  O186  1  0.34257564  0.14365306  0.74728405  1
  O  O187  1  0.84303170  0.16237947  0.74603985  1
  O  O188  1  0.24033937  0.30857555  0.74408378  1
  O  O189  1  0.73905541  0.31403920  0.74572109  1
  O  O190  1  0.41728339  0.52404298  0.74964346  1
  O  O191  1  0.92147196  0.52715761  0.74762067  1
  O  O192  1  0.34156175  0.51945980  0.24806345  1
  O  O193  1  0.84615413  0.52162295  0.25107006  1
  O  O194  1  0.42589577  0.31195484  0.24000787  1
  O  O195  1  0.92548230  0.31430158  0.24453513  1
  O  O196  1  0.24361888  0.15700628  0.25036401  1
  O  O197  1  0.73438658  0.14120301  0.24285792  1
  O  O198  1  0.31768265  0.48896026  0.92191760  1
  O  O199  1  0.82186948  0.50541041  0.92232221  1
  O  O200  1  0.42028233  0.34986422  0.92548886  1
  O  O201  1  0.91723609  0.34696493  0.92601842  1
  O  O202  1  0.24558725  0.13422999  0.91842752  1
  O  O203  1  0.74738155  0.13603111  0.92124604  1
  O  O204  1  0.31607494  0.13367851  0.42184714  1
  O  O205  1  0.81982538  0.14923948  0.42581742  1
  O  O206  1  0.25467242  0.34631424  0.42597852  1
  O  O207  1  0.75508685  0.35892455  0.42404730  1
  O  O208  1  0.43095404  0.49827398  0.42317700  1
  O  O209  1  0.92756189  0.49406323  0.42555554  1
  O  O210  1  0.17449269  0.50167619  0.08127881  1
  O  O211  1  0.67978965  0.51016164  0.08048123  1
  O  O212  1  0.06864573  0.66301177  0.07493139  1
  O  O213  1  0.56854767  0.66600313  0.07614419  1
  O  O214  1  0.25988585  0.87310300  0.08222305  1
  O  O215  1  0.75742321  0.87309192  0.07690037  1
  O  O216  1  0.17737787  0.86768464  0.57952657  1
  O  O217  1  0.67463373  0.86866101  0.57750000  1
  O  O218  1  0.25779233  0.65641070  0.57496235  1
  O  O219  1  0.76208789  0.65060685  0.58223946  1
  O  O220  1  0.06564141  0.48372280  0.58098732  1
  O  O221  1  0.57836691  0.49729584  0.58207502  1
  O  O222  1  0.14827900  0.81129499  0.25646738  1
  O  O223  1  0.64707219  0.82615668  0.25251421  1
  O  O224  1  0.25961338  0.69951720  0.25599442  1
  O  O225  1  0.75656816  0.68972867  0.25750393  1
  O  O226  1  0.08170746  0.45947912  0.25145789  1
  O  O227  1  0.58364645  0.47061130  0.25218645  1
  O  O228  1  0.15408028  0.48386294  0.75547343  1
  O  O229  1  0.64957640  0.47850474  0.75694523  1
  O  O230  1  0.09477142  0.70703444  0.75749589  1
  O  O231  1  0.59062665  0.70869491  0.75573635  1
  O  O232  1  0.26954569  0.83330133  0.75547886  1
  O  O233  1  0.75956512  0.81791367  0.75911106  1
