# generated using pymatgen
data_Na3ScIn(PO4)3
_symmetry_space_group_name_H-M   'P 1'
_cell_length_a   9.07634780
_cell_length_b   9.07194157
_cell_length_c   22.84302006
_cell_angle_alpha   89.94041017
_cell_angle_beta   90.04879162
_cell_angle_gamma   120.07845904
_symmetry_Int_Tables_number   1
_chemical_formula_structural   Na3ScIn(PO4)3
_chemical_formula_sum   'Na18 Sc6 In6 P18 O72'
_cell_volume   1627.61379235
_cell_formula_units_Z   6
loop_
 _symmetry_equiv_pos_site_id
 _symmetry_equiv_pos_as_xyz
  1  'x, y, z'
loop_
 _atom_site_type_symbol
 _atom_site_label
 _atom_site_symmetry_multiplicity
 _atom_site_fract_x
 _atom_site_fract_y
 _atom_site_fract_z
 _atom_site_occupancy
  Na  Na0  1  0.00009138  -0.00000005  0.49993089  1
  Na  Na1  1  0.00009386  0.99976321  -0.00001784  1
  Na  Na2  1  0.64836861  0.32341071  0.83331433  1
  Na  Na3  1  0.67659054  0.35141449  0.33334390  1
  Na  Na4  1  0.33366973  0.66651676  0.16686465  1
  Na  Na5  1  0.33340025  0.66620045  0.66657754  1
  Na  Na6  1  0.63527120  0.99955708  0.24969562  1
  Na  Na7  1  0.36591829  0.36422582  0.24977833  1
  Na  Na8  1  0.63572627  0.63358914  0.74964563  1
  Na  Na9  1  -0.00003643  0.36472209  0.74937527  1
  Na  Na10  1  0.03089467  0.69885168  0.58339044  1
  Na  Na11  1  0.66561305  0.96775877  0.58314166  1
  Na  Na12  1  0.30099385  0.96998378  0.08357559  1
  Na  Na13  1  0.03182595  0.33350857  0.08348396  1
  Na  Na14  1  0.96720240  0.66537996  0.91735459  1
  Na  Na15  1  0.69804356  0.03029176  0.91663839  1
  Na  Na16  1  0.96995448  0.30153680  0.41666183  1
  Na  Na17  1  0.33438835  0.03246773  0.41722523  1
  Sc  Sc18  1  0.00853933  0.00693674  0.64921498  1
  Sc  Sc19  1  0.99321361  0.99154847  0.14998479  1
  Sc  Sc20  1  0.65887962  0.32706803  0.68319930  1
  Sc  Sc21  1  0.67287793  0.34131245  0.18361614  1
  Sc  Sc22  1  0.66457307  0.33982571  0.48287111  1
  Sc  Sc23  1  0.32790118  0.66539692  0.31596259  1
  In  In24  1  0.99360417  0.99096186  0.34863918  1
  In  In25  1  0.00904446  0.00626686  0.84874445  1
  In  In26  1  0.66023047  0.33565267  0.98463725  1
  In  In27  1  0.34046837  0.66504662  0.01671890  1
  In  In28  1  0.33506004  0.65960497  0.51631803  1
  In  In29  1  0.33413344  0.67129372  0.81645505  1
  P  P30  1  0.29634119  -0.00018811  0.24933564  1
  P  P31  1  0.70318777  0.70287005  0.24991362  1
  P  P32  1  0.99944179  0.29485842  0.24937892  1
  P  P33  1  0.29701180  0.29560886  0.74960327  1
  P  P34  1  0.99940313  0.70378392  0.74896685  1
  P  P35  1  0.70615696  0.00115753  0.74902701  1
  P  P36  1  0.95849771  0.33278167  0.58348224  1
  P  P37  1  0.37226017  0.03984818  0.58185989  1
  P  P38  1  0.66700159  0.62745325  0.58498208  1
  P  P39  1  0.96244143  0.63013236  0.08239422  1
  P  P40  1  0.66782971  0.03953486  0.08410109  1
  P  P41  1  0.36947282  0.33202573  0.08576088  1
  P  P42  1  0.63145448  0.66692699  0.91468688  1
  P  P43  1  0.03543980  0.36858094  0.91718606  1
  P  P44  1  0.33366096  0.96298251  0.91810721  1
  P  P45  1  0.62947514  0.96278137  0.41682914  1
  P  P46  1  0.33371388  0.37071469  0.41460563  1
  P  P47  1  0.03898067  0.66630659  0.41778693  1
  O  O48  1  0.22257919  0.03641260  0.30530574  1
  O  O49  1  0.80972794  0.77590379  0.30558440  1
  O  O50  1  0.96379856  0.18509687  0.30569623  1
  O  O51  1  0.22381564  0.19157322  0.80575291  1
  O  O52  1  0.96540998  0.77766799  0.80543787  1
  O  O53  1  0.81367104  0.03473293  0.80579571  1
  O  O54  1  0.79431313  0.97372616  0.69526643  1
  O  O55  1  0.17810104  0.20791920  0.69691862  1
  O  O56  1  0.02297606  0.81596648  0.69494221  1
  O  O57  1  0.78970667  0.82192048  0.19712102  1
  O  O58  1  0.02882833  0.20853893  0.19551614  1
  O  O59  1  0.18457938  0.97509663  0.19514277  1
  O  O60  1  0.87409677  0.36013184  0.63833463  1
  O  O61  1  0.48903727  0.12739524  0.63490176  1
  O  O62  1  0.64369251  0.52120495  0.64052259  1
  O  O63  1  0.87147801  0.50981800  0.13425555  1
  O  O64  1  0.63985375  0.12678617  0.13791428  1
  O  O65  1  0.47950146  0.35666191  0.14028543  1
  O  O66  1  0.44425804  0.29442853  0.03089316  1
  O  O67  1  0.86231217  0.55816874  0.02471252  1
  O  O68  1  0.70176758  0.14773188  0.02746026  1
  O  O69  1  0.45402423  0.14494558  0.52573129  1
  O  O70  1  0.69529024  0.54057273  0.53136945  1
  O  O71  1  0.84763517  0.30541816  0.52808779  1
  O  O72  1  0.55210844  0.70317995  0.96850014  1
  O  O73  1  0.14107222  0.44844878  0.97319985  1
  O  O74  1  0.30046551  0.85393113  0.97446747  1
  O  O75  1  0.55263551  0.85887037  0.47352058  1
  O  O76  1  0.29489559  0.44639844  0.46899180  1
  O  O77  1  0.14662411  0.70072186  0.47454496  1
  O  O78  1  0.12867100  0.63732837  0.36506298  1
  O  O79  1  0.51537858  0.87605618  0.36259978  1
  O  O80  1  0.35759306  0.47892834  0.35936074  1
  O  O81  1  0.11384905  0.47933389  0.86156618  1
  O  O82  1  0.36856007  0.88253018  0.86419605  1
  O  O83  1  0.52729139  0.63902097  0.85810023  1
  O  O84  1  0.02816647  0.83098857  0.41139235  1
  O  O85  1  0.81332161  0.99254810  0.41186896  1
  O  O86  1  0.17136488  0.18888710  0.41015461  1
  O  O87  1  0.00819969  0.18575410  0.91260306  1
  O  O88  1  0.16771806  0.97163587  0.91228239  1
  O  O89  1  0.81191977  0.83089785  0.91096257  1
  O  O90  1  0.96987329  0.16811157  0.58955728  1
  O  O91  1  0.19025520  0.01335775  0.58863903  1
  O  O92  1  0.83112178  0.80756545  0.58938823  1
  O  O93  1  0.98995274  0.81212304  0.09009365  1
  O  O94  1  0.83089466  0.02648787  0.09110015  1
  O  O95  1  0.18880708  0.17008750  0.09152240  1
  O  O96  1  0.69268333  0.16403256  0.74210760  1
  O  O97  1  0.47919557  0.32406355  0.74243074  1
  O  O98  1  0.83698830  0.52373133  0.74282807  1
  O  O99  1  0.67473508  0.52050131  0.24242635  1
  O  O100  1  0.83662982  0.30829601  0.24206529  1
  O  O101  1  0.47681272  0.16186765  0.24282548  1
  O  O102  1  0.65732888  0.51073962  0.92038646  1
  O  O103  1  0.85572331  0.35326939  0.92134914  1
  O  O104  1  0.49887641  0.13910047  0.92254954  1
  O  O105  1  0.64356921  0.14200330  0.42155843  1
  O  O106  1  0.49109123  0.34733559  0.42137546  1
  O  O107  1  0.86338448  0.50086501  0.42284109  1
  O  O108  1  0.34468265  0.48953867  0.08091338  1
  O  O109  1  0.14223555  0.64453953  0.07985575  1
  O  O110  1  0.50063539  0.86414155  0.07983494  1
  O  O111  1  0.35617392  0.85922137  0.57893227  1
  O  O112  1  0.51125795  0.65474281  0.58006615  1
  O  O113  1  0.13493070  0.49879381  0.57919442  1
  O  O114  1  0.32143107  0.84311192  0.25552704  1
  O  O115  1  0.52396822  0.68834513  0.25515381  1
  O  O116  1  0.16491861  0.47021305  0.25556522  1
  O  O117  1  0.31063875  0.47531889  0.75302073  1
  O  O118  1  0.15639283  0.67817862  0.75306377  1
  O  O119  1  0.53091542  0.83408300  0.75315534  1
