# generated using pymatgen
data_Na3ScSiGe(PO6)2
_symmetry_space_group_name_H-M   'P 1'
_cell_length_a   8.89936573
_cell_length_b   8.89936543
_cell_length_c   21.83949759
_cell_angle_alpha   90.63184952
_cell_angle_beta   89.36815048
_cell_angle_gamma   119.98372614
_symmetry_Int_Tables_number   1
_chemical_formula_structural   Na3ScSiGe(PO6)2
_chemical_formula_sum   'Na18 Sc6 Si6 Ge6 P12 O72'
_cell_volume   1498.05358224
_cell_formula_units_Z   6
loop_
 _symmetry_equiv_pos_site_id
 _symmetry_equiv_pos_as_xyz
  1  'x, y, z'
loop_
 _atom_site_type_symbol
 _atom_site_label
 _atom_site_symmetry_multiplicity
 _atom_site_fract_x
 _atom_site_fract_y
 _atom_site_fract_z
 _atom_site_occupancy
  Na  Na0  1  0.99647468  0.99167965  0.49942876  1
  Na  Na1  1  0.00832035  0.00352532  0.99942876  1
  Na  Na2  1  0.67102972  0.32779761  0.83292626  1
  Na  Na3  1  0.67220239  0.32897028  0.33292626  1
  Na  Na4  1  0.36072373  0.68404912  0.16589668  1
  Na  Na5  1  0.31595088  0.63927627  0.66589668  1
  Na  Na6  1  0.36291614  0.35778502  0.24804603  1
  Na  Na7  1  0.99418254  0.63222165  0.24787662  1
  Na  Na8  1  0.64221498  0.63708386  0.74804603  1
  Na  Na9  1  0.36777835  0.00581746  0.74787662  1
  Na  Na10  1  0.03624624  0.69841213  0.58146678  1
  Na  Na11  1  0.65188505  0.96463044  0.58565760  1
  Na  Na12  1  0.30158787  0.96375376  0.08146678  1
  Na  Na13  1  0.03536956  0.34811495  0.08565760  1
  Na  Na14  1  0.97632537  0.67767903  0.91920599  1
  Na  Na15  1  0.69979790  0.02715567  0.91236941  1
  Na  Na16  1  0.97284433  0.30020210  0.41236941  1
  Na  Na17  1  0.32232097  0.02367463  0.41920599  1
  Sc  Sc18  1  0.99021007  0.99105360  0.35393876  1
  Sc  Sc19  1  0.00894640  0.00978993  0.85393876  1
  Sc  Sc20  1  0.67034333  0.32947162  0.68787154  1
  Sc  Sc21  1  0.67052838  0.32965667  0.18787154  1
  Sc  Sc22  1  0.33400468  0.66855814  0.02034144  1
  Sc  Sc23  1  0.33144186  0.66599532  0.52034144  1
  Si  Si24  1  0.00701316  0.29445308  0.25233838  1
  Si  Si25  1  0.70554692  0.99298684  0.75233838  1
  Si  Si26  1  0.36730255  0.05088769  0.58418542  1
  Si  Si27  1  0.94911231  0.63269745  0.08418542  1
  Si  Si28  1  0.34560268  0.97082913  0.91928904  1
  Si  Si29  1  0.02917087  0.65439732  0.41928904  1
  Ge  Ge30  1  0.00618181  0.01133644  0.64795993  1
  Ge  Ge31  1  0.98866356  0.99381819  0.14795993  1
  Ge  Ge32  1  0.66259602  0.33892519  0.98083588  1
  Ge  Ge33  1  0.66107481  0.33740398  0.48083588  1
  Ge  Ge34  1  0.32477260  0.65765979  0.31443485  1
  Ge  Ge35  1  0.34234021  0.67522740  0.81443485  1
  P  P36  1  0.28575564  0.98613723  0.25084278  1
  P  P37  1  0.69824821  0.71649750  0.24921023  1
  P  P38  1  0.28350250  0.30175179  0.74921023  1
  P  P39  1  0.01386277  0.71424436  0.75084278  1
  P  P40  1  0.95259598  0.31981660  0.58117577  1
  P  P41  1  0.67662344  0.62954073  0.58573414  1
  P  P42  1  0.68018340  0.04740402  0.08117577  1
  P  P43  1  0.37045927  0.32337656  0.08573414  1
  P  P44  1  0.61669890  0.65019201  0.91412793  1
  P  P45  1  0.04191606  0.38608041  0.91717084  1
  P  P46  1  0.61391959  0.95808394  0.41717084  1
  P  P47  1  0.34980799  0.38330110  0.41412793  1
  O  O48  1  0.20195135  0.00862178  0.30873311  1
  O  O49  1  0.81725944  0.79228528  0.30368683  1
  O  O50  1  0.99339393  0.19285749  0.31371636  1
  O  O51  1  0.20771472  0.18274056  0.80368683  1
  O  O52  1  0.99137822  0.79804865  0.80873311  1
  O  O53  1  0.80714251  0.00660607  0.81371636  1
  O  O54  1  0.80408291  0.96125401  0.69102288  1
  O  O55  1  0.17194992  0.21562479  0.69055960  1
  O  O56  1  0.04770842  0.83327257  0.69300386  1
  O  O57  1  0.78437521  0.82805008  0.19055960  1
  O  O58  1  0.03874599  0.19591709  0.19102288  1
  O  O59  1  0.16672743  0.95229158  0.19300386  1
  O  O60  1  0.86975334  0.35562817  0.63626694  1
  O  O61  1  0.48367543  0.13331671  0.64376230  1
  O  O62  1  0.65988546  0.53422091  0.64464134  1
  O  O63  1  0.86668329  0.51632457  0.14376230  1
  O  O64  1  0.64437183  0.13024666  0.13626694  1
  O  O65  1  0.46577909  0.34011454  0.14464134  1
  O  O66  1  0.46353071  0.29121622  0.02931519  1
  O  O67  1  0.83041624  0.53630873  0.02130469  1
  O  O68  1  0.71284000  0.16196063  0.02249303  1
  O  O69  1  0.46369127  0.16958376  0.52130469  1
  O  O70  1  0.70878378  0.53646929  0.52931519  1
  O  O71  1  0.83803937  0.28716000  0.52249303  1
  O  O72  1  0.52546644  0.67686888  0.96790671  1
  O  O73  1  0.13396975  0.45917597  0.97759027  1
  O  O74  1  0.31674656  0.85623369  0.97918191  1
  O  O75  1  0.54082403  0.86603025  0.47759027  1
  O  O76  1  0.32313112  0.47453356  0.46790671  1
  O  O77  1  0.14376631  0.68325344  0.47918191  1
  O  O78  1  0.12235220  0.61493720  0.35751907  1
  O  O79  1  0.48876659  0.85700836  0.36262110  1
  O  O80  1  0.37222578  0.48583684  0.35305164  1
  O  O81  1  0.14299164  0.51123341  0.86262110  1
  O  O82  1  0.38506280  0.87764780  0.85751907  1
  O  O83  1  0.51416316  0.62777422  0.85305164  1
  O  O84  1  0.01329227  0.82653468  0.41397616  1
  O  O85  1  0.80009226  0.99235370  0.41132056  1
  O  O86  1  0.19064095  0.19765556  0.41179908  1
  O  O87  1  0.00764630  0.19990774  0.91132056  1
  O  O88  1  0.17346532  0.98670773  0.91397616  1
  O  O89  1  0.80234444  0.80935905  0.91179908  1
  O  O90  1  0.95455704  0.14575025  0.58810046  1
  O  O91  1  0.17098817  0.02953719  0.58982271  1
  O  O92  1  0.84714562  0.81266456  0.58699294  1
  O  O93  1  0.97046281  0.82901183  0.08982271  1
  O  O94  1  0.85424975  0.04544296  0.08810046  1
  O  O95  1  0.18733544  0.15285438  0.08699294  1
  O  O96  1  0.66735562  0.15248496  0.74855111  1
  O  O97  1  0.47105719  0.33556271  0.74302865  1
  O  O98  1  0.85074905  0.53651634  0.74524294  1
  O  O99  1  0.66443729  0.52894281  0.24302865  1
  O  O100  1  0.84751504  0.33264438  0.24855111  1
  O  O101  1  0.46348366  0.14925095  0.24524294  1
  O  O102  1  0.63388318  0.48442971  0.91939334  1
  O  O103  1  0.86083100  0.37782743  0.91748447  1
  O  O104  1  0.53034892  0.15956193  0.92479898  1
  O  O105  1  0.62217257  0.13916900  0.41748447  1
  O  O106  1  0.51557029  0.36611682  0.41939334  1
  O  O107  1  0.84043807  0.46965108  0.42479898  1
  O  O108  1  0.34062414  0.47776859  0.07917896  1
  O  O109  1  0.14494406  0.65855191  0.08023526  1
  O  O110  1  0.52580336  0.86301549  0.07646580  1
  O  O111  1  0.34144809  0.85505594  0.58023526  1
  O  O112  1  0.52223141  0.65937586  0.57917896  1
  O  O113  1  0.13698451  0.47419664  0.57646580  1
  O  O114  1  0.29947437  0.81794171  0.25534612  1
  O  O115  1  0.52008161  0.70837916  0.25667426  1
  O  O116  1  0.19276832  0.48874450  0.25288030  1
  O  O117  1  0.29162084  0.47991839  0.75667426  1
  O  O118  1  0.18205829  0.70052563  0.75534612  1
  O  O119  1  0.51125550  0.80723168  0.75288030  1
