# generated using pymatgen
data_MgZn2(WO4)2
_symmetry_space_group_name_H-M   'P 1'
_cell_length_a   5.08335979
_cell_length_b   5.14875662
_cell_length_c   6.41097163
_cell_angle_alpha   90.00000000
_cell_angle_beta   90.00000000
_cell_angle_gamma   77.91663337
_symmetry_Int_Tables_number   1
_chemical_formula_structural   MgZn2(WO4)2
_chemical_formula_sum   'Mg1 Zn2 W2 O8'
_cell_volume   164.07660631
_cell_formula_units_Z   1
loop_
 _symmetry_equiv_pos_site_id
 _symmetry_equiv_pos_as_xyz
  1  'x, y, z'
loop_
 _atom_site_type_symbol
 _atom_site_label
 _atom_site_symmetry_multiplicity
 _atom_site_fract_x
 _atom_site_fract_y
 _atom_site_fract_z
 _atom_site_occupancy
  Mg  Mg0  1  0.00000000  0.25000000  0.58986740  1
  Zn  Zn1  1  0.50000000  0.25000000  0.81202438  1
  Zn  Zn2  1  0.50000000  0.75000000  0.41225785  1
  W  W3  1  0.00000000  0.25000000  0.13128398  1
  W  W4  1  0.00000000  0.75000000  0.83685919  1
  O  O5  1  0.78685212  0.98774164  0.06624510  1
  O  O6  1  0.21314788  0.51225836  0.06624510  1
  O  O7  1  0.21028079  0.04396366  0.85970055  1
  O  O8  1  0.78971921  0.45603634  0.85970055  1
  O  O9  1  0.77915656  0.44612657  0.35651732  1
  O  O10  1  0.22084344  0.05387343  0.35651732  1
  O  O11  1  0.24886923  0.53858759  0.63889063  1
  O  O12  1  0.75113077  0.96141241  0.63889063  1
