# generated using pymatgen
data_NaTiAlP2SO12
_symmetry_space_group_name_H-M   'P 1'
_cell_length_a   8.47465786
_cell_length_b   8.47138250
_cell_length_c   22.12316542
_cell_angle_alpha   89.97510542
_cell_angle_beta   90.00000000
_cell_angle_gamma   120.01279072
_symmetry_Int_Tables_number   1
_chemical_formula_structural   NaTiAlP2SO12
_chemical_formula_sum   'Na6 Ti6 Al6 P12 S6 O72'
_cell_volume   1375.30277486
_cell_formula_units_Z   6
loop_
 _symmetry_equiv_pos_site_id
 _symmetry_equiv_pos_as_xyz
  1  'x, y, z'
loop_
 _atom_site_type_symbol
 _atom_site_label
 _atom_site_symmetry_multiplicity
 _atom_site_fract_x
 _atom_site_fract_y
 _atom_site_fract_z
 _atom_site_occupancy
  Na  Na0  1  0.99344759  0.99621344  0.50117132  1
  Na  Na1  1  0.00276586  0.99621344  0.00117132  1
  Na  Na2  1  0.66011459  0.32954644  0.83450432  1
  Na  Na3  1  0.66943286  0.32954644  0.33450432  1
  Na  Na4  1  0.32678059  0.66288044  0.16783832  1
  Na  Na5  1  0.33609886  0.66288044  0.66783832  1
  Ti  Ti6  1  0.00152932  0.00418719  0.35379921  1
  Ti  Ti7  1  0.00265787  0.00418719  0.85379921  1
  Ti  Ti8  1  0.66819632  0.33752019  0.68713221  1
  Ti  Ti9  1  0.66932487  0.33752019  0.18713221  1
  Ti  Ti10  1  0.33486232  0.67085419  0.02046621  1
  Ti  Ti11  1  0.33599087  0.67085419  0.52046621  1
  Al  Al12  1  0.99031381  0.00655066  0.64705779  1
  Al  Al13  1  0.01623685  0.00655066  0.14705779  1
  Al  Al14  1  0.65698081  0.33988366  0.98039079  1
  Al  Al15  1  0.68290385  0.33988366  0.48039079  1
  Al  Al16  1  0.32364681  0.67321766  0.31372479  1
  Al  Al17  1  0.34956985  0.67321766  0.81372479  1
  P  P18  1  0.28642291  0.99584570  0.24912661  1
  P  P19  1  0.00712853  0.29093647  0.24856479  1
  P  P20  1  0.28380794  0.29093647  0.74856479  1
  P  P21  1  0.70942279  0.99584570  0.74912661  1
  P  P22  1  0.95308991  0.32917870  0.58245961  1
  P  P23  1  0.67379553  0.62426947  0.58189779  1
  P  P24  1  0.95047494  0.62426947  0.08189779  1
  P  P25  1  0.37608979  0.32917870  0.08245961  1
  P  P26  1  0.61975591  0.66251270  0.91579361  1
  P  P27  1  0.34046153  0.95760347  0.91523179  1
  P  P28  1  0.61714094  0.95760347  0.41523179  1
  P  P29  1  0.04275579  0.66251270  0.41579361  1
  S  S30  1  0.70969815  0.71599696  0.24930780  1
  S  S31  1  0.00629882  0.71599696  0.74930780  1
  S  S32  1  0.37636515  0.04932996  0.58264080  1
  S  S33  1  0.67296582  0.04932996  0.08264080  1
  S  S34  1  0.04303115  0.38266396  0.91597480  1
  S  S35  1  0.33963182  0.38266396  0.41597480  1
  O  O36  1  0.19964869  0.03004936  0.30621978  1
  O  O37  1  0.82295090  0.79218395  0.30447787  1
  O  O38  1  0.96878278  0.16928822  0.30625649  1
  O  O39  1  0.20050544  0.16928822  0.80625649  1
  O  O40  1  0.96923305  0.79218395  0.80447787  1
  O  O41  1  0.83040067  0.03004936  0.80621978  1
  O  O42  1  0.79525194  0.96353569  0.69351798  1
  O  O43  1  0.16834141  0.19870659  0.69288489  1
  O  O44  1  0.03410232  0.82578025  0.69483348  1
  O  O45  1  0.79167793  0.82578025  0.19483348  1
  O  O46  1  0.03036518  0.19870659  0.19288489  1
  O  O47  1  0.16828375  0.96353569  0.19351798  1
  O  O48  1  0.86631569  0.36338236  0.63955278  1
  O  O49  1  0.48961790  0.12551695  0.63781087  1
  O  O50  1  0.63544978  0.50262122  0.63958949  1
  O  O51  1  0.86717244  0.50262122  0.13958949  1
  O  O52  1  0.63590005  0.12551695  0.13781087  1
  O  O53  1  0.49706767  0.36338236  0.13955278  1
  O  O54  1  0.46191894  0.29686869  0.02685098  1
  O  O55  1  0.83500841  0.53203959  0.02621789  1
  O  O56  1  0.70076932  0.15911325  0.02816648  1
  O  O57  1  0.45834493  0.15911325  0.52816648  1
  O  O58  1  0.69703218  0.53203959  0.52621789  1
  O  O59  1  0.83495075  0.29686869  0.52685098  1
  O  O60  1  0.53298169  0.69671636  0.97288678  1
  O  O61  1  0.15628390  0.45885095  0.97114487  1
  O  O62  1  0.30211578  0.83595522  0.97292349  1
  O  O63  1  0.53383844  0.83595522  0.47292349  1
  O  O64  1  0.30256605  0.45885095  0.47114487  1
  O  O65  1  0.16373367  0.69671636  0.47288678  1
  O  O66  1  0.12858494  0.63020269  0.36018498  1
  O  O67  1  0.50167441  0.86537359  0.35955189  1
  O  O68  1  0.36743532  0.49244725  0.36150048  1
  O  O69  1  0.12501093  0.49244725  0.86150048  1
  O  O70  1  0.36369818  0.86537359  0.85955189  1
  O  O71  1  0.50161675  0.63020269  0.86018498  1
  O  O72  1  0.02522833  0.83558197  0.40908786  1
  O  O73  1  0.80873787  0.97582451  0.40884509  1
  O  O74  1  0.17260512  0.19843885  0.41078362  1
  O  O75  1  0.02583373  0.19843885  0.91078362  1
  O  O76  1  0.16708664  0.97582451  0.90884509  1
  O  O77  1  0.81035364  0.83558197  0.90908786  1
  O  O78  1  0.97688480  0.16286782  0.59099547  1
  O  O79  1  0.19389446  0.02606461  0.59086033  1
  O  O80  1  0.84234753  0.81194776  0.59220961  1
  O  O81  1  0.96960022  0.81194776  0.09220961  1
  O  O82  1  0.83217015  0.02606461  0.09086033  1
  O  O83  1  0.18598302  0.16286782  0.09099547  1
  O  O84  1  0.69189533  0.16891497  0.74242086  1
  O  O85  1  0.47540487  0.30915751  0.74217809  1
  O  O86  1  0.83927212  0.53177185  0.74411662  1
  O  O87  1  0.69250073  0.53177185  0.24411662  1
  O  O88  1  0.83375364  0.30915751  0.24217809  1
  O  O89  1  0.47702064  0.16891497  0.24242086  1
  O  O90  1  0.64355180  0.49620082  0.92432847  1
  O  O91  1  0.86056146  0.35939761  0.92419333  1
  O  O92  1  0.50901453  0.14528076  0.92554261  1
  O  O93  1  0.63626722  0.14528076  0.42554261  1
  O  O94  1  0.49883715  0.35939761  0.42419333  1
  O  O95  1  0.85265002  0.49620082  0.42432847  1
  O  O96  1  0.35856133  0.50224897  0.07575486  1
  O  O97  1  0.14207087  0.64249151  0.07551209  1
  O  O98  1  0.50593812  0.86510585  0.07745062  1
  O  O99  1  0.35916673  0.86510585  0.57745062  1
  O  O100  1  0.50041964  0.64249151  0.57551209  1
  O  O101  1  0.14368664  0.50224897  0.57575486  1
  O  O102  1  0.31021780  0.82953482  0.25766247  1
  O  O103  1  0.52722746  0.69273161  0.25752733  1
  O  O104  1  0.17568053  0.47861476  0.25887661  1
  O  O105  1  0.30293322  0.47861476  0.75887661  1
  O  O106  1  0.16550315  0.69273161  0.75752733  1
  O  O107  1  0.51931602  0.82953482  0.75766247  1
