# generated using pymatgen
data_NaY2Ti2P3(SO8)3
_symmetry_space_group_name_H-M   'P 1'
_cell_length_a   8.88053388
_cell_length_b   8.88062742
_cell_length_c   23.14277048
_cell_angle_alpha   90.34652448
_cell_angle_beta   90.09054769
_cell_angle_gamma   120.12963167
_symmetry_Int_Tables_number   1
_chemical_formula_structural   NaY2Ti2P3(SO8)3
_chemical_formula_sum   'Na3 Y6 Ti6 P9 S9 O72'
_cell_volume   1578.50438803
_cell_formula_units_Z   3
loop_
 _symmetry_equiv_pos_site_id
 _symmetry_equiv_pos_as_xyz
  1  'x, y, z'
loop_
 _atom_site_type_symbol
 _atom_site_label
 _atom_site_symmetry_multiplicity
 _atom_site_fract_x
 _atom_site_fract_y
 _atom_site_fract_z
 _atom_site_occupancy
  Na  Na0  1  0.68253561  0.33535982  0.83517414  1
  Na  Na1  1  0.66233636  0.34360164  0.33194656  1
  Na  Na2  1  0.34954262  0.68074405  0.16540667  1
  Y  Y3  1  0.67314124  0.33500736  0.68665625  1
  Y  Y4  1  0.65467186  0.32873203  0.18551150  1
  Y  Y5  1  0.66439695  0.32252114  0.98652177  1
  Y  Y6  1  0.66325617  0.33479110  0.48419540  1
  Y  Y7  1  0.33697989  0.66883881  0.30743088  1
  Y  Y8  1  0.32997969  0.66913785  0.80351921  1
  Ti  Ti9  1  0.01096911  0.99108920  0.35631910  1
  Ti  Ti10  1  0.99202636  0.00137369  0.85811696  1
  Ti  Ti11  1  0.99271588  0.99033280  0.64974237  1
  Ti  Ti12  1  0.99646611  0.99814386  0.14580081  1
  Ti  Ti13  1  0.33117359  0.65149959  0.01873403  1
  Ti  Ti14  1  0.32065494  0.65619428  0.51140001  1
  P  P15  1  0.27671816  0.00325415  0.24931066  1
  P  P16  1  0.73173273  0.72570079  0.25043533  1
  P  P17  1  0.98927205  0.72491164  0.75272577  1
  P  P18  1  0.73246200  0.00915847  0.75170490  1
  P  P19  1  0.66084136  0.01830953  0.08417386  1
  P  P20  1  0.35547070  0.33003749  0.08389606  1
  P  P21  1  0.04809049  0.37460746  0.91443131  1
  P  P22  1  0.32084545  0.36838272  0.41396519  1
  P  P23  1  0.04410894  0.67057825  0.41462687  1
  S  S24  1  0.99494210  0.27210076  0.24998486  1
  S  S25  1  0.27722551  0.26675864  0.75089660  1
  S  S26  1  0.97966221  0.33425764  0.58332415  1
  S  S27  1  0.35495676  0.01924052  0.58417502  1
  S  S28  1  0.66159355  0.64263621  0.58397846  1
  S  S29  1  0.97911515  0.64170847  0.08394950  1
  S  S30  1  0.62790298  0.67344544  0.91617200  1
  S  S31  1  0.32159800  0.95257631  0.91564401  1
  S  S32  1  0.63046393  0.95191457  0.41770397  1
  O  O33  1  0.18339950  0.00925989  0.30690010  1
  O  O34  1  0.83164150  0.82481853  0.30703466  1
  O  O35  1  0.99004864  0.17906675  0.30319484  1
  O  O36  1  0.19309777  0.16925944  0.80400615  1
  O  O37  1  0.97921410  0.82194526  0.80716159  1
  O  O38  1  0.84067462  0.02761090  0.80751448  1
  O  O39  1  0.83086951  0.00537298  0.69593389  1
  O  O40  1  0.18004684  0.17866614  0.69692607  1
  O  O41  1  0.99611534  0.82573566  0.69579697  1
  O  O42  1  0.82978547  0.82776591  0.19581878  1
  O  O43  1  -0.00073422  0.18329331  0.19616818  1
  O  O44  1  0.17479378  0.00452407  0.19556952  1
  O  O45  1  0.90558780  0.37785011  0.63368555  1
  O  O46  1  0.47274734  0.09817038  0.63457513  1
  O  O47  1  0.62439004  0.52824458  0.63430092  1
  O  O48  1  0.90399682  0.52714279  0.13418412  1
  O  O49  1  0.61277611  0.09324763  0.13618644  1
  O  O50  1  0.47903916  0.38569575  0.13599954  1
  O  O51  1  0.43230856  0.29113967  0.03102091  1
  O  O52  1  0.86809862  0.56648669  0.03225066  1
  O  O53  1  0.70755267  0.13742877  0.03180825  1
  O  O54  1  0.42800088  0.13694082  0.53418763  1
  O  O55  1  0.70833355  0.57100381  0.53403605  1
  O  O56  1  0.86160842  0.28961391  0.53338701  1
  O  O57  1  0.54093515  0.69452894  0.96838729  1
  O  O58  1  0.16694647  0.47300807  0.96860797  1
  O  O59  1  0.30346911  0.84785115  0.96763000  1
  O  O60  1  0.53380253  0.83949060  0.46904763  1
  O  O61  1  0.30179056  0.47167686  0.46828560  1
  O  O62  1  0.16381379  0.69167455  0.46926782  1
  O  O63  1  0.12365436  0.64044736  0.36146692  1
  O  O64  1  0.52413912  0.88173051  0.36510636  1
  O  O65  1  0.36068232  0.48224448  0.36123850  1
  O  O66  1  0.12990964  0.48354441  0.86097841  1
  O  O67  1  0.35364183  0.87760850  0.86348093  1
  O  O68  1  0.52226551  0.64530164  0.86386134  1
  O  O69  1  0.03745489  0.84195632  0.40900430  1
  O  O70  1  0.79878904  0.95989899  0.41258119  1
  O  O71  1  0.14970154  0.19288049  0.40647021  1
  O  O72  1  0.03959811  0.19458141  0.90639541  1
  O  O73  1  0.16008349  0.96311340  0.90819214  1
  O  O74  1  0.79997211  0.83787442  0.91026773  1
  O  O75  1  0.00746885  0.18688799  0.59638913  1
  O  O76  1  0.18031212  0.99626114  0.59720045  1
  O  O77  1  0.81539458  0.81934387  0.59640391  1
  O  O78  1  0.00366473  0.81669015  0.09470684  1
  O  O79  1  0.81491908  0.98993674  0.09928717  1
  O  O80  1  0.17302045  0.17843911  0.09827619  1
  O  O81  1  0.71597758  0.17246337  0.74892526  1
  O  O82  1  0.45098990  0.28321658  0.74806124  1
  O  O83  1  0.82317165  0.54635290  0.75003061  1
  O  O84  1  0.72039237  0.54758859  0.25018689  1
  O  O85  1  0.83817981  0.29053760  0.24889466  1
  O  O86  1  0.45688412  0.16846181  0.25135380  1
  O  O87  1  0.65778034  0.52572376  0.92297272  1
  O  O88  1  0.86440464  0.34392675  0.92302824  1
  O  O89  1  0.47201722  0.13293777  0.92102996  1
  O  O90  1  0.65539277  0.12803252  0.42671503  1
  O  O91  1  0.47289207  0.33831868  0.42620647  1
  O  O92  1  0.86190221  0.51777820  0.42492416  1
  O  O93  1  0.33134896  0.49188992  0.06958136  1
  O  O94  1  0.15646450  0.66484147  0.07312272  1
  O  O95  1  0.50108910  0.83469320  0.06836283  1
  O  O96  1  0.33565061  0.84698502  0.57050065  1
  O  O97  1  0.51085050  0.66467098  0.57036927  1
  O  O98  1  0.15275091  0.49059454  0.57000967  1
  O  O99  1  0.28632666  0.83562435  0.24742021  1
  O  O100  1  0.55250827  0.71281360  0.24868539  1
  O  O101  1  0.15547085  0.44667603  0.24843165  1
  O  O102  1  0.29076142  0.43865452  0.75165379  1
  O  O103  1  0.15571627  0.71676122  0.75221419  1
  O  O104  1  0.56107359  0.83958849  0.75289717  1
