# generated using pymatgen
data_Na3ZrInSi(PO6)2
_symmetry_space_group_name_H-M   'P 1'
_cell_length_a   9.17074196
_cell_length_b   9.17074163
_cell_length_c   22.63703211
_cell_angle_alpha   89.95313582
_cell_angle_beta   90.04686418
_cell_angle_gamma   119.91233797
_symmetry_Int_Tables_number   1
_chemical_formula_structural   Na3ZrInSi(PO6)2
_chemical_formula_sum   'Na18 Zr6 In6 Si6 P12 O72'
_cell_volume   1650.21985966
_cell_formula_units_Z   6
loop_
 _symmetry_equiv_pos_site_id
 _symmetry_equiv_pos_as_xyz
  1  'x, y, z'
loop_
 _atom_site_type_symbol
 _atom_site_label
 _atom_site_symmetry_multiplicity
 _atom_site_fract_x
 _atom_site_fract_y
 _atom_site_fract_z
 _atom_site_occupancy
  Na  Na0  1  0.00362616  0.99192757  0.49469048  1
  Na  Na1  1  0.00807243  0.99637384  0.99469048  1
  Na  Na2  1  0.66581142  0.32097167  0.82879320  1
  Na  Na3  1  0.67902833  0.33418858  0.32879320  1
  Na  Na4  1  0.35230344  0.67650447  0.16123432  1
  Na  Na5  1  0.32349553  0.64769656  0.66123432  1
  Na  Na6  1  0.36120072  0.35959343  0.24576803  1
  Na  Na7  1  0.99077649  0.62778800  0.24490326  1
  Na  Na8  1  0.64040657  0.63879928  0.74576803  1
  Na  Na9  1  0.37221200  0.00922351  0.74490326  1
  Na  Na10  1  0.04275884  0.69999237  0.57716607  1
  Na  Na11  1  0.64929335  0.96362403  0.58479628  1
  Na  Na12  1  0.30000763  0.95724116  0.07716607  1
  Na  Na13  1  0.03637597  0.35070665  0.08479628  1
  Na  Na14  1  0.97716683  0.67786814  0.91927884  1
  Na  Na15  1  0.69743157  0.02624665  0.90875992  1
  Na  Na16  1  0.97375335  0.30256843  0.40875992  1
  Na  Na17  1  0.32213186  0.02283317  0.41927884  1
  Zr  Zr18  1  0.00557216  0.00928409  0.64762032  1
  Zr  Zr19  1  0.99071591  0.99442784  0.14762032  1
  Zr  Zr20  1  0.66223006  0.33812263  0.98122269  1
  Zr  Zr21  1  0.66187737  0.33776994  0.48122269  1
  Zr  Zr22  1  0.33320305  0.66884327  0.31452150  1
  Zr  Zr23  1  0.33115673  0.66679695  0.81452150  1
  In  In24  1  0.98856262  0.99186627  0.34891676  1
  In  In25  1  0.00813373  0.01143738  0.84891676  1
  In  In26  1  0.66904639  0.32673920  0.68274500  1
  In  In27  1  0.67326080  0.33095361  0.18274500  1
  In  In28  1  0.33295131  0.66557072  0.01525548  1
  In  In29  1  0.33442928  0.66704869  0.51525548  1
  Si  Si30  1  0.99961036  0.29840592  0.25241554  1
  Si  Si31  1  0.70159408  0.00038964  0.75241554  1
  Si  Si32  1  0.36550065  0.02975133  0.58363779  1
  Si  Si33  1  0.97024867  0.63449935  0.08363779  1
  Si  Si34  1  0.33148011  0.96773089  0.91740636  1
  Si  Si35  1  0.03226911  0.66851989  0.41740636  1
  P  P36  1  0.29636810  0.00250484  0.25062988  1
  P  P37  1  0.69996378  0.69841837  0.25001520  1
  P  P38  1  0.30158163  0.30003622  0.75001520  1
  P  P39  1  0.99749516  0.70363190  0.75062988  1
  P  P40  1  0.96260391  0.33498934  0.58153449  1
  P  P41  1  0.66721909  0.63085060  0.58739096  1
  P  P42  1  0.66501066  0.03739609  0.08153449  1
  P  P43  1  0.36914940  0.33278091  0.08739096  1
  P  P44  1  0.62878359  0.66662724  0.91533614  1
  P  P45  1  0.03430637  0.36815018  0.92056454  1
  P  P46  1  0.63184982  0.96569363  0.42056454  1
  P  P47  1  0.33337276  0.37121641  0.41533614  1
  O  O48  1  0.21921669  0.02816610  0.30751895  1
  O  O49  1  0.81134727  0.76937655  0.30499373  1
  O  O50  1  0.98578243  0.19900690  0.31339563  1
  O  O51  1  0.23062345  0.18865273  0.80499373  1
  O  O52  1  0.97183390  0.78078331  0.80751895  1
  O  O53  1  0.80099310  0.01421757  0.81339563  1
  O  O54  1  0.80209967  0.98111924  0.69485676  1
  O  O55  1  0.19124755  0.20635798  0.69506275  1
  O  O56  1  0.02597317  0.82308556  0.69711672  1
  O  O57  1  0.79364202  0.80875245  0.19506275  1
  O  O58  1  0.01888076  0.19790033  0.19485676  1
  O  O59  1  0.17691444  0.97402683  0.19711672  1
  O  O60  1  0.88649128  0.37421107  0.63567420  1
  O  O61  1  0.47627019  0.11139011  0.64334787  1
  O  O62  1  0.64987573  0.53865001  0.64588948  1
  O  O63  1  0.88860989  0.52372981  0.14334787  1
  O  O64  1  0.62578893  0.11350872  0.13567420  1
  O  O65  1  0.46134999  0.35012427  0.14588948  1
  O  O66  1  0.46803283  0.31011509  0.03512148  1
  O  O67  1  0.85427413  0.53532752  0.02532961  1
  O  O68  1  0.68763399  0.14806447  0.02595319  1
  O  O69  1  0.46467248  0.14572587  0.52532961  1
  O  O70  1  0.68988491  0.53196717  0.53512148  1
  O  O71  1  0.85193553  0.31236601  0.52595319  1
  O  O72  1  0.54207917  0.68998756  0.96950944  1
  O  O73  1  0.12630394  0.43755349  0.97979475  1
  O  O74  1  0.29961224  0.85704010  0.97758936  1
  O  O75  1  0.56244651  0.87369606  0.47979475  1
  O  O76  1  0.31001244  0.45792083  0.46950944  1
  O  O77  1  0.14295990  0.70038776  0.47758936  1
  O  O78  1  0.13399065  0.64476840  0.36050017  1
  O  O79  1  0.51425105  0.86237315  0.36871825  1
  O  O80  1  0.35267656  0.47504298  0.35849796  1
  O  O81  1  0.13762685  0.48574895  0.86871825  1
  O  O82  1  0.35523160  0.86600935  0.86050017  1
  O  O83  1  0.52495702  0.64732344  0.85849796  1
  O  O84  1  0.02079179  0.83930061  0.41118307  1
  O  O85  1  0.81471196  0.00407236  0.41461010  1
  O  O86  1  0.17766057  0.19284492  0.41306157  1
  O  O87  1  0.99592764  0.18528804  0.91461010  1
  O  O88  1  0.16069939  0.97920821  0.91118307  1
  O  O89  1  0.80715508  0.82233943  0.91306157  1
  O  O90  1  0.96125310  0.16476788  0.58790120  1
  O  O91  1  0.17449146  0.00491380  0.58614465  1
  O  O92  1  0.83246440  0.80675906  0.58783063  1
  O  O93  1  0.99508620  0.82550854  0.08614465  1
  O  O94  1  0.83523212  0.03874690  0.08790120  1
  O  O95  1  0.19324094  0.16753560  0.08783063  1
  O  O96  1  0.66547401  0.15724318  0.74915162  1
  O  O97  1  0.48332055  0.33251124  0.74396870  1
  O  O98  1  0.83818564  0.53059764  0.74343695  1
  O  O99  1  0.66748876  0.51667945  0.24396870  1
  O  O100  1  0.84275682  0.33452599  0.24915162  1
  O  O101  1  0.46940236  0.16181436  0.24343695  1
  O  O102  1  0.64909014  0.50790695  0.92008284  1
  O  O103  1  0.86217018  0.36679402  0.92002243  1
  O  O104  1  0.50947487  0.14869160  0.92040193  1
  O  O105  1  0.63320598  0.13782982  0.42002243  1
  O  O106  1  0.49209305  0.35090986  0.42008284  1
  O  O107  1  0.85130840  0.49052513  0.42040193  1
  O  O108  1  0.33997164  0.48248341  0.07958558  1
  O  O109  1  0.15898912  0.65422184  0.08159511  1
  O  O110  1  0.51676178  0.85809888  0.07588012  1
  O  O111  1  0.34577816  0.84101088  0.58159511  1
  O  O112  1  0.51751659  0.66002836  0.57958558  1
  O  O113  1  0.14190112  0.48323822  0.57588012  1
  O  O114  1  0.31092312  0.84052020  0.25435782  1
  O  O115  1  0.52717292  0.68909050  0.25417604  1
  O  O116  1  0.17780918  0.48551978  0.25313628  1
  O  O117  1  0.31090950  0.47282708  0.75417604  1
  O  O118  1  0.15947980  0.68907688  0.75435782  1
  O  O119  1  0.51448022  0.82219082  0.75313628  1
