# generated using pymatgen
data_Na4Hf3MgSi3(SO8)3
_symmetry_space_group_name_H-M   'P 1'
_cell_length_a   9.00405382
_cell_length_b   9.01304415
_cell_length_c   23.06527662
_cell_angle_alpha   89.76655824
_cell_angle_beta   90.11826501
_cell_angle_gamma   120.10179773
_symmetry_Int_Tables_number   1
_chemical_formula_structural   Na4Hf3MgSi3(SO8)3
_chemical_formula_sum   'Na12 Hf9 Mg3 Si9 S9 O72'
_cell_volume   1619.38036509
_cell_formula_units_Z   3
loop_
 _symmetry_equiv_pos_site_id
 _symmetry_equiv_pos_as_xyz
  1  'x, y, z'
loop_
 _atom_site_type_symbol
 _atom_site_label
 _atom_site_symmetry_multiplicity
 _atom_site_fract_x
 _atom_site_fract_y
 _atom_site_fract_z
 _atom_site_occupancy
  Na  Na0  1  0.63055847  0.00650518  0.24155894  1
  Na  Na1  1  0.37707368  0.35561934  0.25118312  1
  Na  Na2  1  0.99307862  0.64585415  0.24727487  1
  Na  Na3  1  0.99288508  0.35245788  0.75502269  1
  Na  Na4  1  0.38086050  0.01547023  0.75533986  1
  Na  Na5  1  0.69943383  0.67778412  0.40608333  1
  Na  Na6  1  0.00644820  0.01836239  0.48888562  1
  Na  Na7  1  0.00201818  0.01088315  0.00024856  1
  Na  Na8  1  0.65893977  0.32525280  0.83469217  1
  Na  Na9  1  0.64698855  0.31989936  0.32520129  1
  Na  Na10  1  0.34920167  0.68603566  0.16299060  1
  Na  Na11  1  0.35061323  0.66499689  0.67154981  1
  Hf  Hf12  1  0.01127935  0.02343030  0.85614393  1
  Hf  Hf13  1  0.99421011  0.00758446  0.65035363  1
  Hf  Hf14  1  0.98950430  0.98784806  0.14795167  1
  Hf  Hf15  1  0.66727100  0.31200274  0.97922421  1
  Hf  Hf16  1  0.65632829  0.32179678  0.47668482  1
  Hf  Hf17  1  0.33063416  0.67520812  0.01946126  1
  Hf  Hf18  1  0.34148203  0.66199187  0.51574448  1
  Hf  Hf19  1  0.35203225  0.67911017  0.31384328  1
  Hf  Hf20  1  0.34110818  0.66797030  0.81727400  1
  Mg  Mg21  1  0.00795812  0.00642741  0.35157415  1
  Mg  Mg22  1  0.65941194  0.33045818  0.68875388  1
  Mg  Mg23  1  0.64927301  0.31865861  0.18352162  1
  Si  Si24  1  0.28960686  0.00224192  0.25172514  1
  Si  Si25  1  0.71239274  0.70323306  0.25337236  1
  Si  Si26  1  0.29902421  0.29854008  0.74917972  1
  Si  Si27  1  0.70378325  0.99856305  0.75010723  1
  Si  Si28  1  0.66892586  0.03819829  0.08747594  1
  Si  Si29  1  0.04349721  0.38254036  0.91740362  1
  Si  Si30  1  0.32837346  0.95769408  0.91517771  1
  Si  Si31  1  0.63574759  0.96185837  0.41646597  1
  Si  Si32  1  0.32209779  0.36383256  0.41563023  1
  S  S33  1  0.99921262  0.29005629  0.25066256  1
  S  S34  1  0.99656897  0.70955159  0.74950681  1
  S  S35  1  0.95674748  0.33600939  0.58467688  1
  S  S36  1  0.37367175  0.03965353  0.58452087  1
  S  S37  1  0.66905329  0.62334368  0.58374103  1
  S  S38  1  0.95423446  0.62068036  0.08440580  1
  S  S39  1  0.37646552  0.33487629  0.08395129  1
  S  S40  1  0.62595720  0.66629408  0.91837123  1
  S  S41  1  0.04308654  0.66571971  0.41824537  1
  O  O42  1  0.20360952  0.03860350  0.30608762  1
  O  O43  1  0.81996577  0.78496598  0.31184569  1
  O  O44  1  0.96704252  0.18294508  0.30217948  1
  O  O45  1  0.20333348  0.16849335  0.80390548  1
  O  O46  1  0.97120676  0.78611460  0.80096653  1
  O  O47  1  0.82949685  0.02389436  0.80433047  1
  O  O48  1  0.79531172  0.96659702  0.69237810  1
  O  O49  1  0.16731206  0.19940871  0.69318187  1
  O  O50  1  0.02748590  0.82160680  0.69671475  1
  O  O51  1  0.79695757  0.83479823  0.19697542  1
  O  O52  1  0.03406684  0.21452854  0.19838029  1
  O  O53  1  0.16809130  0.96820122  0.19333831  1
  O  O54  1  0.87849093  0.35654044  0.63741552  1
  O  O55  1  0.47713973  0.11828131  0.63638858  1
  O  O56  1  0.64559774  0.51786024  0.63504976  1
  O  O57  1  0.87962996  0.52386713  0.13756468  1
  O  O58  1  0.64300896  0.12091595  0.14507340  1
  O  O59  1  0.47681291  0.36154179  0.13706024  1
  O  O60  1  0.46282208  0.31510174  0.03202005  1
  O  O61  1  0.84857755  0.54064623  0.03210637  1
  O  O62  1  0.69143773  0.15706809  0.02920192  1
  O  O63  1  0.45987474  0.14885507  0.53237072  1
  O  O64  1  0.68892340  0.54391868  0.53033368  1
  O  O65  1  0.85110770  0.31432628  0.53272506  1
  O  O66  1  0.54397034  0.69345137  0.96901723  1
  O  O67  1  0.16699994  0.47214988  0.97255633  1
  O  O68  1  0.31057385  0.83945945  0.97105720  1
  O  O69  1  0.52673313  0.83860919  0.47237078  1
  O  O70  1  0.30980063  0.46980384  0.47277030  1
  O  O71  1  0.15107703  0.68434252  0.47009698  1
  O  O72  1  0.11464183  0.63336424  0.36555099  1
  O  O73  1  0.51144322  0.87893855  0.35942845  1
  O  O74  1  0.36559039  0.49372859  0.35993615  1
  O  O75  1  0.12977895  0.48876975  0.85657495  1
  O  O76  1  0.36249579  0.87430032  0.85640523  1
  O  O77  1  0.51842295  0.63892881  0.86483379  1
  O  O78  1  0.02122387  0.81458688  0.41467662  1
  O  O79  1  0.81309277  0.96406596  0.41366629  1
  O  O80  1  0.16144964  0.17775471  0.41410211  1
  O  O81  1  0.01757822  0.18917027  0.91208849  1
  O  O82  1  0.15281585  0.96565365  0.90953691  1
  O  O83  1  0.79569948  0.81927789  0.90956240  1
  O  O84  1  0.97561748  0.17900822  0.58838829  1
  O  O85  1  0.19985146  0.02131875  0.58863078  1
  O  O86  1  0.82386312  0.79793232  0.58846343  1
  O  O87  1  0.97798702  0.79782692  0.08791220  1
  O  O88  1  0.84449291  0.02251326  0.08851387  1
  O  O89  1  0.20316293  0.17872752  0.08891552  1
  O  O90  1  0.69671914  0.17405599  0.74193086  1
  O  O91  1  0.48058464  0.30879935  0.74197748  1
  O  O92  1  0.85037625  0.53549043  0.73997525  1
  O  O93  1  0.69130083  0.51577354  0.24179803  1
  O  O94  1  0.85193450  0.31720586  0.24234519  1
  O  O95  1  0.48503075  0.16278082  0.24546815  1
  O  O96  1  0.64060872  0.51191841  0.92493315  1
  O  O97  1  0.85527774  0.36819844  0.92284936  1
  O  O98  1  0.49569114  0.15067113  0.92264160  1
  O  O99  1  0.64972102  0.14939748  0.42640676  1
  O  O100  1  0.51137568  0.37229691  0.42737975  1
  O  O101  1  0.86772964  0.50991295  0.42782499  1
  O  O102  1  0.35528774  0.48778913  0.07637178  1
  O  O103  1  0.12950568  0.64045090  0.07754223  1
  O  O104  1  0.50016695  0.84477999  0.07666777  1
  O  O105  1  0.35275773  0.86598869  0.57636885  1
  O  O106  1  0.51276807  0.64387604  0.57805563  1
  O  O107  1  0.13176222  0.48958919  0.57768574  1
  O  O108  1  0.29659555  0.81848284  0.25658981  1
  O  O109  1  0.51599279  0.68353327  0.25508450  1
  O  O110  1  0.15740438  0.46449744  0.25724821  1
  O  O111  1  0.29740665  0.47924883  0.75448582  1
  O  O112  1  0.15704283  0.69683687  0.75349641  1
  O  O113  1  0.50818657  0.83313447  0.75370884  1
