# generated using pymatgen
data_AlSeBr7
_symmetry_space_group_name_H-M   'P 1'
_cell_length_a   6.61711591
_cell_length_b   6.81493059
_cell_length_c   14.70417120
_cell_angle_alpha   103.30103514
_cell_angle_beta   90.00000000
_cell_angle_gamma   90.00000000
_symmetry_Int_Tables_number   1
_chemical_formula_structural   AlSeBr7
_chemical_formula_sum   'Al2 Se2 Br14'
_cell_volume   645.29982452
_cell_formula_units_Z   2
loop_
 _symmetry_equiv_pos_site_id
 _symmetry_equiv_pos_as_xyz
  1  'x, y, z'
loop_
 _atom_site_type_symbol
 _atom_site_label
 _atom_site_symmetry_multiplicity
 _atom_site_fract_x
 _atom_site_fract_y
 _atom_site_fract_z
 _atom_site_occupancy
  Al  Al0  1  0.99389335  0.30353955  0.66381596  1
  Al  Al1  1  0.00610665  0.30353955  0.16381596  1
  Se  Se2  1  0.58762470  0.00031422  0.50267358  1
  Se  Se3  1  0.41237530  0.00031422  0.00267358  1
  Br  Br4  1  0.38619607  0.10749263  0.39308208  1
  Br  Br5  1  0.38848947  0.74431522  0.53776269  1
  Br  Br6  1  0.17980288  0.80065846  0.90024016  1
  Br  Br7  1  0.82019712  0.80065846  0.40024016  1
  Br  Br8  1  0.11548252  0.98185177  0.16744287  1
  Br  Br9  1  0.61151053  0.74431522  0.03776269  1
  Br  Br10  1  0.12311500  0.36907814  0.02485612  1
  Br  Br11  1  0.87688500  0.36907814  0.52485612  1
  Br  Br12  1  0.66005694  0.33137573  0.17050210  1
  Br  Br13  1  0.33994306  0.33137573  0.67050210  1
  Br  Br14  1  0.15026894  0.52607730  0.28952045  1
  Br  Br15  1  0.84973106  0.52607730  0.78952045  1
  Br  Br16  1  0.61380393  0.10749263  0.89308208  1
  Br  Br17  1  0.88451748  0.98185177  0.66744287  1
