# generated using pymatgen
data_Na12Nb4Zn2(SiO4)9
_symmetry_space_group_name_H-M   'P 1'
_cell_length_a   9.17349849
_cell_length_b   9.17349816
_cell_length_c   22.42814234
_cell_angle_alpha   90.00000000
_cell_angle_beta   90.00000000
_cell_angle_gamma   120.00000114
_symmetry_Int_Tables_number   1
_chemical_formula_structural   Na12Nb4Zn2(SiO4)9
_chemical_formula_sum   'Na24 Nb8 Zn4 Si18 O72'
_cell_volume   1634.53378837
_cell_formula_units_Z   2
loop_
 _symmetry_equiv_pos_site_id
 _symmetry_equiv_pos_as_xyz
  1  'x, y, z'
loop_
 _atom_site_type_symbol
 _atom_site_label
 _atom_site_symmetry_multiplicity
 _atom_site_fract_x
 _atom_site_fract_y
 _atom_site_fract_z
 _atom_site_occupancy
  Na  Na0  1  0.64125299  0.02382399  0.24601069  1
  Na  Na1  1  0.38257100  0.35874701  0.24601069  1
  Na  Na2  1  0.97617601  0.61742900  0.24601069  1
  Na  Na3  1  0.64125299  0.61742900  0.74601069  1
  Na  Na4  1  0.97617601  0.35874701  0.74601069  1
  Na  Na5  1  0.38257100  0.02382399  0.74601069  1
  Na  Na6  1  0.30866258  0.33424009  0.58715390  1
  Na  Na7  1  0.02557851  0.69133742  0.58715390  1
  Na  Na8  1  0.66575991  0.97442149  0.58715390  1
  Na  Na9  1  0.30866258  0.97442149  0.08715390  1
  Na  Na10  1  0.66575991  0.69133742  0.08715390  1
  Na  Na11  1  0.02557851  0.33424009  0.08715390  1
  Na  Na12  1  0.96436177  0.68708540  0.90812205  1
  Na  Na13  1  0.72272262  0.03563823  0.90812205  1
  Na  Na14  1  0.31291460  0.27727738  0.90812205  1
  Na  Na15  1  0.96436177  0.27727738  0.40812205  1
  Na  Na16  1  0.31291460  0.03563823  0.40812205  1
  Na  Na17  1  0.72272262  0.68708540  0.40812205  1
  Na  Na18  1  0.00000000  0.00000000  0.49251646  1
  Na  Na19  1  0.00000000  0.00000000  0.99251646  1
  Na  Na20  1  0.66666700  0.33333300  0.82197343  1
  Na  Na21  1  0.66666700  0.33333300  0.32197343  1
  Na  Na22  1  0.33333300  0.66666700  0.16776303  1
  Na  Na23  1  0.33333300  0.66666700  0.66776303  1
  Nb  Nb24  1  0.00000000  0.00000000  0.64928326  1
  Nb  Nb25  1  -0.00000000  0.00000000  0.14928326  1
  Nb  Nb26  1  0.66666700  0.33333300  0.97982638  1
  Nb  Nb27  1  0.66666700  0.33333300  0.47982638  1
  Nb  Nb28  1  0.33333300  0.66666700  0.01901295  1
  Nb  Nb29  1  0.33333300  0.66666700  0.51901295  1
  Nb  Nb30  1  0.33333300  0.66666700  0.31124519  1
  Nb  Nb31  1  0.33333300  0.66666700  0.81124519  1
  Zn  Zn32  1  0.00000000  0.00000000  0.34804434  1
  Zn  Zn33  1  0.00000000  0.00000000  0.84804434  1
  Zn  Zn34  1  0.66666700  0.33333300  0.68237681  1
  Zn  Zn35  1  0.66666700  0.33333300  0.18237681  1
  Si  Si36  1  0.29341294  0.00141911  0.25386951  1
  Si  Si37  1  0.70800616  0.70658706  0.25386951  1
  Si  Si38  1  0.99858089  0.29199384  0.25386951  1
  Si  Si39  1  0.29341294  0.29199384  0.75386951  1
  Si  Si40  1  0.99858089  0.70658706  0.75386951  1
  Si  Si41  1  0.70800616  0.00141911  0.75386951  1
  Si  Si42  1  0.95880363  0.33325980  0.58519409  1
  Si  Si43  1  0.37445718  0.04119637  0.58519409  1
  Si  Si44  1  0.66674020  0.62554282  0.58519409  1
  Si  Si45  1  0.95880363  0.62554282  0.08519409  1
  Si  Si46  1  0.66674020  0.04119637  0.08519409  1
  Si  Si47  1  0.37445718  0.33325980  0.08519409  1
  Si  Si48  1  0.62330740  0.66322049  0.91659385  1
  Si  Si49  1  0.03991210  0.37669260  0.91659385  1
  Si  Si50  1  0.33677951  0.96008790  0.91659385  1
  Si  Si51  1  0.62330740  0.96008790  0.41659385  1
  Si  Si52  1  0.33677951  0.37669260  0.41659385  1
  Si  Si53  1  0.03991210  0.66322049  0.41659385  1
  O  O54  1  0.21203176  0.03074167  0.31248255  1
  O  O55  1  0.81870991  0.78796824  0.31248255  1
  O  O56  1  0.96925833  0.18129009  0.31248255  1
  O  O57  1  0.21203176  0.18129009  0.81248255  1
  O  O58  1  0.96925833  0.78796824  0.81248255  1
  O  O59  1  0.81870991  0.03074167  0.81248255  1
  O  O60  1  0.80376720  0.97001415  0.69350265  1
  O  O61  1  0.16624695  0.19623280  0.69350265  1
  O  O62  1  0.02998585  0.83375305  0.69350265  1
  O  O63  1  0.80376720  0.83375305  0.19350265  1
  O  O64  1  0.02998585  0.19623280  0.19350265  1
  O  O65  1  0.16624695  0.97001415  0.19350265  1
  O  O66  1  0.89002046  0.38096502  0.64295708  1
  O  O67  1  0.49094556  0.10997954  0.64295708  1
  O  O68  1  0.61903498  0.50905444  0.64295708  1
  O  O69  1  0.89002046  0.50905444  0.14295708  1
  O  O70  1  0.61903498  0.10997954  0.14295708  1
  O  O71  1  0.49094556  0.38096502  0.14295708  1
  O  O72  1  0.46956593  0.30363513  0.02642026  1
  O  O73  1  0.83407019  0.53043407  0.02642026  1
  O  O74  1  0.69636487  0.16592981  0.02642026  1
  O  O75  1  0.46956593  0.16592981  0.52642026  1
  O  O76  1  0.69636487  0.53043407  0.52642026  1
  O  O77  1  0.83407019  0.30363513  0.52642026  1
  O  O78  1  0.51919629  0.67751325  0.97454160  1
  O  O79  1  0.15831596  0.48080371  0.97454160  1
  O  O80  1  0.32248675  0.84168404  0.97454160  1
  O  O81  1  0.51919629  0.84168404  0.47454160  1
  O  O82  1  0.32248675  0.48080371  0.47454160  1
  O  O83  1  0.15831596  0.67751325  0.47454160  1
  O  O84  1  0.13487583  0.63260672  0.35861817  1
  O  O85  1  0.49772989  0.86512417  0.35861817  1
  O  O86  1  0.36739328  0.50227011  0.35861817  1
  O  O87  1  0.13487583  0.50227011  0.85861817  1
  O  O88  1  0.36739328  0.86512417  0.85861817  1
  O  O89  1  0.49772989  0.63260672  0.85861817  1
  O  O90  1  0.02321999  0.82845100  0.41788954  1
  O  O91  1  0.80523101  0.97678001  0.41788954  1
  O  O92  1  0.17154900  0.19476899  0.41788954  1
  O  O93  1  0.02321999  0.19476899  0.91788954  1
  O  O94  1  0.17154900  0.97678001  0.91788954  1
  O  O95  1  0.80523101  0.82845100  0.91788954  1
  O  O96  1  0.97494719  0.16125177  0.58817320  1
  O  O97  1  0.18630458  0.02505281  0.58817320  1
  O  O98  1  0.83874823  0.81369542  0.58817320  1
  O  O99  1  0.97494719  0.81369542  0.08817320  1
  O  O100  1  0.83874823  0.02505281  0.08817320  1
  O  O101  1  0.18630458  0.16125177  0.08817320  1
  O  O102  1  0.67912934  0.15888034  0.74563409  1
  O  O103  1  0.47975200  0.32087066  0.74563409  1
  O  O104  1  0.84111966  0.52024800  0.74563409  1
  O  O105  1  0.67912934  0.52024800  0.24563409  1
  O  O106  1  0.84111966  0.32087066  0.24563409  1
  O  O107  1  0.47975200  0.15888034  0.24563409  1
  O  O108  1  0.63014160  0.48660147  0.92253517  1
  O  O109  1  0.85646087  0.36985840  0.92253517  1
  O  O110  1  0.51339853  0.14353913  0.92253517  1
  O  O111  1  0.63014160  0.14353913  0.42253517  1
  O  O112  1  0.51339853  0.36985840  0.42253517  1
  O  O113  1  0.85646087  0.48660147  0.42253517  1
  O  O114  1  0.34266506  0.49502148  0.07494677  1
  O  O115  1  0.15235542  0.65733494  0.07494677  1
  O  O116  1  0.50497852  0.84764458  0.07494677  1
  O  O117  1  0.34266506  0.84764458  0.57494677  1
  O  O118  1  0.50497852  0.65733494  0.57494677  1
  O  O119  1  0.15235542  0.49502148  0.57494677  1
  O  O120  1  0.29697764  0.81950886  0.25467421  1
  O  O121  1  0.52253022  0.70302236  0.25467421  1
  O  O122  1  0.18049114  0.47746978  0.25467421  1
  O  O123  1  0.29697764  0.47746978  0.75467421  1
  O  O124  1  0.18049114  0.70302236  0.75467421  1
  O  O125  1  0.52253022  0.81950886  0.75467421  1
