# generated using pymatgen
data_Na7Hf2Si5Ge2PO24
_symmetry_space_group_name_H-M   'P 1'
_cell_length_a   8.93605408
_cell_length_b   8.96844988
_cell_length_c   22.07901435
_cell_angle_alpha   90.00332631
_cell_angle_beta   89.72448415
_cell_angle_gamma   120.03171753
_symmetry_Int_Tables_number   1
_chemical_formula_structural   Na7Hf2Si5Ge2PO24
_chemical_formula_sum   'Na21 Hf6 Si15 Ge6 P3 O72'
_cell_volume   1531.89139228
_cell_formula_units_Z   3
loop_
 _symmetry_equiv_pos_site_id
 _symmetry_equiv_pos_as_xyz
  1  'x, y, z'
loop_
 _atom_site_type_symbol
 _atom_site_label
 _atom_site_symmetry_multiplicity
 _atom_site_fract_x
 _atom_site_fract_y
 _atom_site_fract_z
 _atom_site_occupancy
  Na  Na0  1  0.63953222  0.00071033  0.25008401  1
  Na  Na1  1  0.36117299  0.36102442  0.24837384  1
  Na  Na2  1  0.00138586  0.63763205  0.25041168  1
  Na  Na3  1  0.63605634  0.63669888  0.75197404  1
  Na  Na4  1  0.00010732  0.36369169  0.75239786  1
  Na  Na5  1  0.36263538  0.00014864  0.75286837  1
  Na  Na6  1  0.30540467  0.33350694  0.58155899  1
  Na  Na7  1  0.03060024  0.69738765  0.58120464  1
  Na  Na8  1  0.66675170  0.96959392  0.58163356  1
  Na  Na9  1  0.29394233  0.96334983  0.08001504  1
  Na  Na10  1  0.04179334  0.33724936  0.08358967  1
  Na  Na11  1  0.96459562  0.66783805  0.91869247  1
  Na  Na12  1  0.33413539  0.29324443  0.92038468  1
  Na  Na13  1  0.33026463  0.03413929  0.41659464  1
  Na  Na14  1  0.70651717  0.66635069  0.41815264  1
  Na  Na15  1  0.99650862  0.00613498  0.49966346  1
  Na  Na16  1  0.98391536  0.99294194  0.00095090  1
  Na  Na17  1  0.66806649  0.32139177  0.83657932  1
  Na  Na18  1  0.68055128  0.33123646  0.33107690  1
  Na  Na19  1  0.34410340  0.66635548  0.16468149  1
  Na  Na20  1  0.33412923  0.66709172  0.66719175  1
  Hf  Hf21  1  0.99680432  0.00260816  0.35283274  1
  Hf  Hf22  1  0.99815879  0.00260158  0.85751432  1
  Hf  Hf23  1  0.99944316  -0.00001179  0.64973912  1
  Hf  Hf24  1  0.99795866  0.99559058  0.14555305  1
  Hf  Hf25  1  0.66733770  0.33423558  0.68453626  1
  Hf  Hf26  1  0.67516342  0.33118824  0.47651735  1
  Si  Si27  1  0.30218739  0.00206625  0.24915212  1
  Si  Si28  1  0.70005034  0.70063184  0.25113501  1
  Si  Si29  1  0.99923896  0.29933382  0.24763074  1
  Si  Si30  1  0.29531762  0.30284461  0.75383948  1
  Si  Si31  1  0.00516433  0.70464703  0.75382351  1
  Si  Si32  1  0.69746270  0.99277989  0.75272547  1
  Si  Si33  1  0.97010740  0.33960163  0.58176310  1
  Si  Si34  1  0.37158371  0.03330084  0.58020522  1
  Si  Si35  1  0.66026177  0.62822488  0.57982817  1
  Si  Si36  1  0.94890586  0.61395244  0.07992870  1
  Si  Si37  1  0.39186007  0.34567511  0.08069565  1
  Si  Si38  1  0.04306975  0.38352651  0.91972856  1
  Si  Si39  1  0.34533607  0.95323504  0.92049040  1
  Si  Si40  1  0.61170574  0.94421260  0.41551153  1
  Si  Si41  1  0.05399393  0.66632549  0.41511858  1
  Ge  Ge42  1  0.66790282  0.34140090  0.18483502  1
  Ge  Ge43  1  0.66838015  0.32531100  0.98058754  1
  Ge  Ge44  1  0.32745811  0.65781407  0.02019399  1
  Ge  Ge45  1  0.33375748  0.67039984  0.51943339  1
  Ge  Ge46  1  0.33007907  0.66856013  0.31190356  1
  Ge  Ge47  1  0.32919567  0.67069859  0.81632884  1
  P  P48  1  0.66156824  0.04682982  0.08213840  1
  P  P49  1  0.60994772  0.66295196  0.91914533  1
  P  P50  1  0.32965171  0.38730107  0.41637843  1
  O  O51  1  0.21913985  0.04474342  0.30820690  1
  O  O52  1  0.82490841  0.78189673  0.31030551  1
  O  O53  1  0.95527485  0.16651746  0.30410358  1
  O  O54  1  0.20906129  0.17479234  0.81166943  1
  O  O55  1  0.96744469  0.79153445  0.81216064  1
  O  O56  1  0.83281393  0.03406820  0.80734893  1
  O  O57  1  0.77727398  0.95548165  0.69129221  1
  O  O58  1  0.17396802  0.21918008  0.69400178  1
  O  O59  1  0.04081804  0.82548407  0.69384347  1
  O  O60  1  0.78942474  0.83560659  0.19522915  1
  O  O61  1  0.04189722  0.21792951  0.18819552  1
  O  O62  1  0.17305312  0.96138550  0.19140315  1
  O  O63  1  0.89003843  0.37920597  0.64237779  1
  O  O64  1  0.49308498  0.11969319  0.63963521  1
  O  O65  1  0.62492801  0.50786823  0.63998287  1
  O  O66  1  0.86614312  0.49262357  0.14091639  1
  O  O67  1  0.62834584  0.12576719  0.14020316  1
  O  O68  1  0.50164441  0.36746552  0.14294391  1
  O  O69  1  0.47525634  0.30061363  0.02157845  1
  O  O70  1  0.83158010  0.52349692  0.02008315  1
  O  O71  1  0.70098849  0.16666457  0.02644760  1
  O  O72  1  0.45631968  0.15772496  0.52167314  1
  O  O73  1  0.69765623  0.54033867  0.52169685  1
  O  O74  1  0.83609556  0.29685769  0.52647083  1
  O  O75  1  0.52406015  0.69160031  0.97495540  1
  O  O76  1  0.16787818  0.46683421  0.97882333  1
  O  O77  1  0.30658915  0.82723428  0.97961030  1
  O  O78  1  0.52859306  0.82669251  0.47672502  1
  O  O79  1  0.30756123  0.46795084  0.47521546  1
  O  O80  1  0.17040523  0.69607487  0.47600771  1
  O  O81  1  0.13947021  0.64006024  0.35341845  1
  O  O82  1  0.49521988  0.85534820  0.35509607  1
  O  O83  1  0.35793874  0.49707967  0.35881060  1
  O  O84  1  0.12937108  0.50642344  0.85916358  1
  O  O85  1  0.37021710  0.86871344  0.85790091  1
  O  O86  1  0.50114598  0.63376810  0.86060245  1
  O  O87  1  0.03896103  0.84302787  0.41337903  1
  O  O88  1  0.80302829  0.96169208  0.41328388  1
  O  O89  1  0.17118237  0.20316954  0.41286778  1
  O  O90  1  0.02899941  0.19494414  0.91621953  1
  O  O91  1  0.16905338  0.97112266  0.91728793  1
  O  O92  1  0.79507707  0.82053113  0.91580967  1
  O  O93  1  0.99044923  0.17012342  0.58705391  1
  O  O94  1  0.18058323  0.01226033  0.58695427  1
  O  O95  1  0.83080670  0.81854968  0.58634985  1
  O  O96  1  0.97854632  0.80954359  0.08458546  1
  O  O97  1  0.82765863  0.03392310  0.08711222  1
  O  O98  1  0.19554178  0.17282178  0.08540829  1
  O  O99  1  0.67635969  0.16208360  0.74673571  1
  O  O100  1  0.48535895  0.32197360  0.74690705  1
  O  O101  1  0.83500048  0.51490558  0.74739285  1
  O  O102  1  0.68519763  0.51154922  0.24221356  1
  O  O103  1  0.82527714  0.31700511  0.24038782  1
  O  O104  1  0.49360049  0.17467456  0.24000668  1
  O  O105  1  0.62777192  0.49785077  0.92173627  1
  O  O106  1  0.85065419  0.36953783  0.92395122  1
  O  O107  1  0.51394940  0.15227796  0.92499324  1
  O  O108  1  0.62291611  0.13190148  0.41721310  1
  O  O109  1  0.49452292  0.36891259  0.41876157  1
  O  O110  1  0.85643704  0.50262197  0.41637423  1
  O  O111  1  0.36653546  0.51721672  0.07589633  1
  O  O112  1  0.14795975  0.63571055  0.07700540  1
  O  O113  1  0.49691450  0.86706527  0.07640134  1
  O  O114  1  0.35560407  0.84301655  0.57581794  1
  O  O115  1  0.48445770  0.64195034  0.57486604  1
  O  O116  1  0.15899558  0.51204110  0.57357797  1
  O  O117  1  0.31978474  0.82823424  0.25472280  1
  O  O118  1  0.50644747  0.67678293  0.25863121  1
  O  O119  1  0.17406375  0.48932720  0.25661384  1
  O  O120  1  0.31154544  0.49154342  0.76205461  1
  O  O121  1  0.18074063  0.69057125  0.75877606  1
  O  O122  1  0.50985297  0.81729336  0.76059185  1
