# generated using pymatgen
data_Na4Hf2Sc2Si3(SO8)3
_symmetry_space_group_name_H-M   'P 1'
_cell_length_a   9.04063685
_cell_length_b   8.99259744
_cell_length_c   23.01574010
_cell_angle_alpha   90.11620575
_cell_angle_beta   89.76986673
_cell_angle_gamma   119.75652043
_symmetry_Int_Tables_number   1
_chemical_formula_structural   Na4Hf2Sc2Si3(SO8)3
_chemical_formula_sum   'Na12 Hf6 Sc6 Si9 S9 O72'
_cell_volume   1624.41336769
_cell_formula_units_Z   3
loop_
 _symmetry_equiv_pos_site_id
 _symmetry_equiv_pos_as_xyz
  1  'x, y, z'
loop_
 _atom_site_type_symbol
 _atom_site_label
 _atom_site_symmetry_multiplicity
 _atom_site_fract_x
 _atom_site_fract_y
 _atom_site_fract_z
 _atom_site_occupancy
  Na  Na0  1  0.99522584  0.64446623  0.25233121  1
  Na  Na1  1  0.99483550  0.35436876  0.74081252  1
  Na  Na2  1  0.66296596  0.97749923  0.58871523  1
  Na  Na3  1  0.67005718  0.69631079  0.08121401  1
  Na  Na4  1  0.33554824  0.30704847  0.90430577  1
  Na  Na5  1  0.32122997  0.02165025  0.42088440  1
  Na  Na6  1  0.01023167  0.99903243  0.50287381  1
  Na  Na7  1  0.98647078  0.97900377  0.99510985  1
  Na  Na8  1  0.65451760  0.32748074  0.82112389  1
  Na  Na9  1  0.66330231  0.34348160  0.33240032  1
  Na  Na10  1  0.33084331  0.67583537  0.16923687  1
  Na  Na11  1  0.32840421  0.66635096  0.66061915  1
  Hf  Hf12  1  0.01228152  0.01611618  0.64673863  1
  Hf  Hf13  1  -0.00008154  0.98557839  0.15094051  1
  Hf  Hf14  1  0.67828467  0.34946765  0.98042258  1
  Hf  Hf15  1  0.67725857  0.33754774  0.48454409  1
  Hf  Hf16  1  0.33351983  0.67016358  0.31349799  1
  Hf  Hf17  1  0.35415691  0.67172066  0.80935747  1
  Sc  Sc18  1  0.00080845  0.98330253  0.35074685  1
  Sc  Sc19  1  0.98624549  0.99473324  0.84778433  1
  Sc  Sc20  1  0.65269658  0.31500213  0.68501480  1
  Sc  Sc21  1  0.66756960  0.33793800  0.18959086  1
  Sc  Sc22  1  0.33195887  0.67250823  0.01830831  1
  Sc  Sc23  1  0.30807476  0.66101728  0.52201669  1
  Si  Si24  1  0.29997849  0.00501780  0.25247652  1
  Si  Si25  1  0.70186177  0.70563475  0.24986181  1
  Si  Si26  1  0.29617337  0.28900984  0.75452080  1
  Si  Si27  1  0.71055966  0.00309605  0.74770860  1
  Si  Si28  1  0.96142315  0.33623068  0.58741158  1
  Si  Si29  1  0.37174290  0.03945869  0.58049843  1
  Si  Si30  1  0.96733194  0.62675177  0.08619899  1
  Si  Si31  1  0.63080467  0.67522473  0.92001318  1
  Si  Si32  1  0.03368855  0.66195186  0.41567066  1
  S  S33  1  0.00183706  0.28883596  0.25047626  1
  S  S34  1  0.00108103  0.70813682  0.75096004  1
  S  S35  1  0.66766504  0.62546555  0.58415537  1
  S  S36  1  0.66853777  0.04441962  0.08349627  1
  S  S37  1  0.37354644  0.33102259  0.08290082  1
  S  S38  1  0.04213633  0.37658844  0.91736286  1
  S  S39  1  0.33420033  0.95995558  0.91766848  1
  S  S40  1  0.62672034  0.95802433  0.41757165  1
  S  S41  1  0.33304752  0.37597711  0.41692992  1
  O  O42  1  0.21523293  0.03204600  0.31032910  1
  O  O43  1  0.83076924  0.80034812  0.30282399  1
  O  O44  1  0.98004309  0.18818050  0.30199982  1
  O  O45  1  0.21096127  0.18353007  0.81451099  1
  O  O46  1  0.97951324  0.78992686  0.80359531  1
  O  O47  1  0.82809032  0.02821132  0.80452772  1
  O  O48  1  0.79280626  0.96688973  0.68974766  1
  O  O49  1  0.16666588  0.19755974  0.69898718  1
  O  O50  1  0.02861675  0.81352266  0.69866872  1
  O  O51  1  0.78812199  0.82152791  0.18940925  1
  O  O52  1  0.02457495  0.20863165  0.19682171  1
  O  O53  1  0.16791208  0.96789577  0.19630999  1
  O  O54  1  0.87738106  0.36306892  0.64534944  1
  O  O55  1  0.49626955  0.13195533  0.63519285  1
  O  O56  1  0.64330416  0.52311982  0.63534907  1
  O  O57  1  0.87339392  0.51466194  0.14262800  1
  O  O58  1  0.64450416  0.12316945  0.13467287  1
  O  O59  1  0.48223591  0.35651421  0.13304596  1
  O  O60  1  0.45177616  0.30318742  0.02887586  1
  O  O61  1  0.83545746  0.53122538  0.02961223  1
  O  O62  1  0.68371245  0.14573778  0.02993366  1
  O  O63  1  0.45692653  0.15437418  0.52038770  1
  O  O64  1  0.69109203  0.54197797  0.53065518  1
  O  O65  1  0.83444461  0.30384988  0.53042010  1
  O  O66  1  0.53739736  0.68765244  0.97909067  1
  O  O67  1  0.14835319  0.46342234  0.96841948  1
  O  O68  1  0.31144178  0.85528370  0.96986783  1
  O  O69  1  0.55265843  0.85808308  0.46972987  1
  O  O70  1  0.32007019  0.46149737  0.46849673  1
  O  O71  1  0.16357120  0.69823702  0.46884025  1
  O  O72  1  0.12596565  0.63787607  0.35636335  1
  O  O73  1  0.51341425  0.87052824  0.36573305  1
  O  O74  1  0.35633604  0.48171375  0.36380592  1
  O  O75  1  0.11199749  0.47906725  0.86440483  1
  O  O76  1  0.35434348  0.87748314  0.86552698  1
  O  O77  1  0.49780657  0.63418554  0.86541894  1
  O  O78  1  0.02442621  0.83988992  0.41218731  1
  O  O79  1  0.79842930  0.98758026  0.40802875  1
  O  O80  1  0.17949266  0.20540414  0.41145116  1
  O  O81  1  0.03036178  0.20739638  0.91406718  1
  O  O82  1  0.18641849  0.98742136  0.91435129  1
  O  O83  1  0.82072210  0.83483208  0.91332184  1
  O  O84  1  0.96317445  0.15196232  0.58843724  1
  O  O85  1  0.18052263  0.01193895  0.58877837  1
  O  O86  1  0.82377875  0.79690577  0.58751524  1
  O  O87  1  0.97121774  0.81567396  0.08765206  1
  O  O88  1  0.82549259  0.02887110  0.08629782  1
  O  O89  1  0.20033916  0.18090756  0.08860548  1
  O  O90  1  0.70079747  0.17830342  0.74618835  1
  O  O91  1  0.48688096  0.32520211  0.74597750  1
  O  O92  1  0.85114425  0.53667942  0.74601686  1
  O  O93  1  0.69637323  0.52217827  0.24360246  1
  O  O94  1  0.85321682  0.31469043  0.24437760  1
  O  O95  1  0.48768797  0.16328073  0.24112686  1
  O  O96  1  0.63283618  0.48758931  0.92498950  1
  O  O97  1  0.86567948  0.35103005  0.92567061  1
  O  O98  1  0.49073991  0.13241637  0.92441778  1
  O  O99  1  0.62947672  0.12751115  0.42013911  1
  O  O100  1  0.48565146  0.35166440  0.41924187  1
  O  O101  1  0.84315325  0.49223639  0.42184788  1
  O  O102  1  0.36242935  0.48988084  0.07666995  1
  O  O103  1  0.15482459  0.65119542  0.07602281  1
  O  O104  1  0.52003509  0.86755636  0.07795917  1
  O  O105  1  0.37207682  0.85795417  0.57570943  1
  O  O106  1  0.52061423  0.65146052  0.57544105  1
  O  O107  1  0.15191170  0.49393802  0.57859821  1
  O  O108  1  0.30033689  0.82027726  0.25611184  1
  O  O109  1  0.51206535  0.68141286  0.25680014  1
  O  O110  1  0.15704217  0.46355603  0.25424774  1
  O  O111  1  0.29217033  0.47389031  0.75903560  1
  O  O112  1  0.15411949  0.68739304  0.75864665  1
  O  O113  1  0.51845619  0.83535041  0.75644264  1
