# generated using pymatgen
data_Li4Ge9O20
_symmetry_space_group_name_H-M   'P 1'
_cell_length_a   7.35068750
_cell_length_b   7.35068750
_cell_length_c   7.51517910
_cell_angle_alpha   89.58955867
_cell_angle_beta   89.58955867
_cell_angle_gamma   65.28496206
_symmetry_Int_Tables_number   1
_chemical_formula_structural   Li4Ge9O20
_chemical_formula_sum   'Li4 Ge9 O20'
_cell_volume   368.85521996
_cell_formula_units_Z   1
loop_
 _symmetry_equiv_pos_site_id
 _symmetry_equiv_pos_as_xyz
  1  'x, y, z'
loop_
 _atom_site_type_symbol
 _atom_site_label
 _atom_site_symmetry_multiplicity
 _atom_site_fract_x
 _atom_site_fract_y
 _atom_site_fract_z
 _atom_site_occupancy
  Li  Li0  1  0.32610066  0.06631073  0.37823773  1
  Li  Li1  1  0.93368927  0.67389934  0.62176227  1
  Li  Li2  1  0.33361309  0.66638691  -0.00000000  1
  Li  Li3  1  0.71976161  0.28023839  -0.00000000  1
  Ge  Ge4  1  0.34271207  0.35167723  0.70731971  1
  Ge  Ge5  1  0.64832277  0.65728793  0.29268029  1
  Ge  Ge6  1  0.60530634  0.92051271  0.95168061  1
  Ge  Ge7  1  0.07948729  0.39469366  0.04831939  1
  Ge  Ge8  1  0.11702462  0.07961994  0.75982586  1
  Ge  Ge9  1  0.92038006  0.88297538  0.24017414  1
  Ge  Ge10  1  0.51617933  0.67487942  0.66833194  1
  Ge  Ge11  1  0.32512058  0.48382067  0.33166806  1
  Ge  Ge12  1  0.76773280  0.23226720  0.50000000  1
  O  O13  1  0.21624681  0.56096235  0.54359451  1
  O  O14  1  0.43903765  0.78375319  0.45640549  1
  O  O15  1  0.14665686  0.50872514  0.86975207  1
  O  O16  1  0.49127486  0.85334314  0.13024793  1
  O  O17  1  0.44566664  0.15758287  0.87872773  1
  O  O18  1  0.92418393  0.10709934  0.32043795  1
  O  O19  1  0.89290066  0.07581607  0.67956205  1
  O  O20  1  0.52499603  0.45868770  0.78400677  1
  O  O21  1  0.54131230  0.47500397  0.21599323  1
  O  O22  1  0.16145521  0.70325079  0.19972402  1
  O  O23  1  0.29674921  0.83854479  0.80027598  1
  O  O24  1  0.80424244  0.97144063  0.03345064  1
  O  O25  1  0.02855937  0.19575756  0.96654936  1
  O  O26  1  0.52142059  0.24414008  0.49429483  1
  O  O27  1  0.75585992  0.47857941  0.50570517  1
  O  O28  1  0.78760189  0.80094315  0.38939706  1
  O  O29  1  0.19905685  0.21239811  0.61060294  1
  O  O30  1  0.24987688  0.30764671  0.22794121  1
  O  O31  1  0.69235329  0.75012312  0.77205879  1
  O  O32  1  0.84241713  0.55433336  0.12127227  1
