# generated using pymatgen
data_Na21Mg4Nb8Si15(PO24)3
_symmetry_space_group_name_H-M   'P 1'
_cell_length_a   9.11742126
_cell_length_b   9.13786996
_cell_length_c   22.30598983
_cell_angle_alpha   89.96460352
_cell_angle_beta   90.02279658
_cell_angle_gamma   120.04277951
_symmetry_Int_Tables_number   1
_chemical_formula_structural   Na21Mg4Nb8Si15(PO24)3
_chemical_formula_sum   'Na21 Mg4 Nb8 Si15 P3 O72'
_cell_volume   1608.72446387
_cell_formula_units_Z   1
loop_
 _symmetry_equiv_pos_site_id
 _symmetry_equiv_pos_as_xyz
  1  'x, y, z'
loop_
 _atom_site_type_symbol
 _atom_site_label
 _atom_site_symmetry_multiplicity
 _atom_site_fract_x
 _atom_site_fract_y
 _atom_site_fract_z
 _atom_site_occupancy
  Na  Na0  1  0.63912542  0.01971082  0.23970577  1
  Na  Na1  1  0.37748300  0.35528453  0.24240853  1
  Na  Na2  1  0.98513181  0.62632749  0.23935646  1
  Na  Na3  1  0.63813495  0.62083129  0.74279346  1
  Na  Na4  1  0.97926451  0.35557450  0.74534000  1
  Na  Na5  1  0.38284637  0.02559798  0.74618497  1
  Na  Na6  1  0.31347072  0.33809500  0.58905417  1
  Na  Na7  1  0.66406559  0.97535198  0.58880205  1
  Na  Na8  1  0.31529397  0.97467702  0.08610704  1
  Na  Na9  1  0.96657089  0.68370694  0.91239223  1
  Na  Na10  1  0.71945145  0.03432159  0.90877665  1
  Na  Na11  1  0.31484632  0.27717968  0.90910612  1
  Na  Na12  1  0.96400786  0.28024943  0.41147281  1
  Na  Na13  1  0.31488714  0.03708065  0.40805202  1
  Na  Na14  1  0.71675805  0.68361672  0.41128321  1
  Na  Na15  1  0.00142279  0.99111282  0.49530359  1
  Na  Na16  1  0.99126138  0.00134409  0.99290309  1
  Na  Na17  1  0.66035658  0.32674799  0.82566705  1
  Na  Na18  1  0.66058878  0.32801789  0.32570348  1
  Na  Na19  1  0.33426276  0.65467754  0.16045190  1
  Na  Na20  1  0.32110889  0.66754817  0.66674114  1
  Mg  Mg21  1  0.00245785  0.00183439  0.35336042  1
  Mg  Mg22  1  0.00164942  0.00256797  0.85337391  1
  Mg  Mg23  1  0.66453840  0.33109264  0.68407134  1
  Mg  Mg24  1  0.66376721  0.33104565  0.18185024  1
  Nb  Nb25  1  0.99826834  0.00061088  0.64659322  1
  Nb  Nb26  1  0.00145697  0.99770260  0.14255789  1
  Nb  Nb27  1  0.66748875  0.33214458  0.98201707  1
  Nb  Nb28  1  0.66601993  0.33380762  0.48098276  1
  Nb  Nb29  1  0.33321921  0.66386010  0.02158706  1
  Nb  Nb30  1  0.33084187  0.66613852  0.52107874  1
  Nb  Nb31  1  0.33245989  0.66946871  0.31222624  1
  Nb  Nb32  1  0.33699272  0.66577814  0.81259533  1
  Si  Si33  1  0.29424977  0.00274199  0.25361519  1
  Si  Si34  1  0.29368747  0.29285604  0.75383763  1
  Si  Si35  1  0.70705488  0.00185041  0.75415457  1
  Si  Si36  1  0.95896003  0.33640293  0.58713458  1
  Si  Si37  1  0.37267767  0.03925653  0.58587872  1
  Si  Si38  1  0.66985565  0.62665784  0.58550831  1
  Si  Si39  1  0.95711830  0.62109980  0.08750369  1
  Si  Si40  1  0.66782517  0.04128715  0.08654412  1
  Si  Si41  1  0.37733640  0.33774662  0.08744830  1
  Si  Si42  1  0.62476714  0.66324500  0.91752663  1
  Si  Si43  1  0.03947860  0.37685704  0.91634454  1
  Si  Si44  1  0.33518230  0.95895099  0.91739334  1
  Si  Si45  1  0.62462553  0.96005830  0.41712728  1
  Si  Si46  1  0.33558488  0.37610888  0.41624935  1
  Si  Si47  1  0.03848151  0.66283794  0.41626218  1
  P  P48  1  0.71101302  0.71266439  0.25333898  1
  P  P49  1  0.00210005  0.28862954  0.25301712  1
  P  P50  1  0.00127733  0.71186901  0.75279246  1
  O  O51  1  0.20681570  0.02279182  0.31280473  1
  O  O52  1  0.80739840  0.79330858  0.31088052  1
  O  O53  1  0.97898273  0.19036810  0.31079497  1
  O  O54  1  0.20956854  0.18047560  0.81219495  1
  O  O55  1  0.98063525  0.79042737  0.81027254  1
  O  O56  1  0.81566848  0.01950487  0.81254951  1
  O  O57  1  0.80248497  0.97198352  0.69294089  1
  O  O58  1  0.16845395  0.19371723  0.69297943  1
  O  O59  1  0.02434785  0.83165113  0.69726715  1
  O  O60  1  0.80250247  0.82988364  0.19808064  1
  O  O61  1  0.02494912  0.19422953  0.19823846  1
  O  O62  1  0.16922720  0.97311661  0.19384242  1
  O  O63  1  0.88193522  0.36203150  0.64689828  1
  O  O64  1  0.48798845  0.11181414  0.64404492  1
  O  O65  1  0.62386583  0.50917583  0.64304372  1
  O  O66  1  0.88112993  0.51886071  0.14770148  1
  O  O67  1  0.62404058  0.11302072  0.14483845  1
  O  O68  1  0.47731319  0.36193293  0.14820166  1
  O  O69  1  0.47037343  0.30300482  0.02849959  1
  O  O70  1  0.83649021  0.52573955  0.02750370  1
  O  O71  1  0.69286080  0.16261689  0.02654922  1
  O  O72  1  0.46925237  0.16501150  0.52604476  1
  O  O73  1  0.69139909  0.52890698  0.52495663  1
  O  O74  1  0.83404264  0.30577677  0.52709706  1
  O  O75  1  0.51918800  0.68583261  0.97230900  1
  O  O76  1  0.16379068  0.48616211  0.97185089  1
  O  O77  1  0.31749333  0.84185864  0.97535313  1
  O  O78  1  0.52631327  0.84046316  0.47491371  1
  O  O79  1  0.32134004  0.47894364  0.47422686  1
  O  O80  1  0.16505450  0.68161098  0.47164315  1
  O  O81  1  0.13375297  0.63417369  0.35658339  1
  O  O82  1  0.49727186  0.86210035  0.35822944  1
  O  O83  1  0.36451606  0.50072786  0.35732539  1
  O  O84  1  0.13212090  0.49865697  0.85610051  1
  O  O85  1  0.36428554  0.86279699  0.85797776  1
  O  O86  1  0.50063883  0.63342794  0.85698559  1
  O  O87  1  0.01732501  0.82612375  0.41526356  1
  O  O88  1  0.80913519  0.97991759  0.41377626  1
  O  O89  1  0.16881970  0.19273422  0.41593054  1
  O  O90  1  0.02128374  0.19328405  0.91666755  1
  O  O91  1  0.16862059  0.97645088  0.91566343  1
  O  O92  1  0.80980099  0.82654451  0.91519731  1
  O  O93  1  0.97362749  0.16078791  0.58800497  1
  O  O94  1  0.18786683  0.03011139  0.58818597  1
  O  O95  1  0.83579700  0.81871676  0.58750735  1
  O  O96  1  0.97796005  0.81509757  0.08991859  1
  O  O97  1  0.83838138  0.02290556  0.09138159  1
  O  O98  1  0.18829378  0.15851760  0.09010021  1
  O  O99  1  0.68097960  0.16327603  0.74791667  1
  O  O100  1  0.48455848  0.32741708  0.74642238  1
  O  O101  1  0.84999754  0.53526420  0.74473008  1
  O  O102  1  0.68598245  0.53375047  0.24761460  1
  O  O103  1  0.85224197  0.32044134  0.24639753  1
  O  O104  1  0.48565134  0.16161654  0.24863736  1
  O  O105  1  0.62884742  0.48550056  0.92214109  1
  O  O106  1  0.85474498  0.36909557  0.92096336  1
  O  O107  1  0.51216625  0.14413975  0.92095149  1
  O  O108  1  0.63062911  0.14325962  0.42079267  1
  O  O109  1  0.51236074  0.36737574  0.41998985  1
  O  O110  1  0.85611685  0.48493132  0.42061846  1
  O  O111  1  0.34543491  0.49620299  0.07558557  1
  O  O112  1  0.15361032  0.66262833  0.07709742  1
  O  O113  1  0.50053981  0.85352925  0.07487798  1
  O  O114  1  0.35132774  0.85136989  0.57424017  1
  O  O115  1  0.50452741  0.65498390  0.57510861  1
  O  O116  1  0.15542342  0.49158659  0.57640266  1
  O  O117  1  0.30319001  0.81970897  0.25345123  1
  O  O118  1  0.52878708  0.69845516  0.25360926  1
  O  O119  1  0.17387643  0.46759092  0.25366539  1
  O  O120  1  0.29492501  0.47867510  0.75289157  1
  O  O121  1  0.17171223  0.70556253  0.75224785  1
  O  O122  1  0.51658827  0.82151580  0.75274894  1
