# generated using pymatgen
data_Na6HfZn3Si2(SO6)4
_symmetry_space_group_name_H-M   'P 1'
_cell_length_a   9.09246569
_cell_length_b   9.07318472
_cell_length_c   22.51243023
_cell_angle_alpha   88.95843887
_cell_angle_beta   90.70555916
_cell_angle_gamma   119.79053029
_symmetry_Int_Tables_number   1
_chemical_formula_structural   Na6HfZn3Si2(SO6)4
_chemical_formula_sum   'Na18 Hf3 Zn9 Si6 S12 O72'
_cell_volume   1611.50771437
_cell_formula_units_Z   3
loop_
 _symmetry_equiv_pos_site_id
 _symmetry_equiv_pos_as_xyz
  1  'x, y, z'
loop_
 _atom_site_type_symbol
 _atom_site_label
 _atom_site_symmetry_multiplicity
 _atom_site_fract_x
 _atom_site_fract_y
 _atom_site_fract_z
 _atom_site_occupancy
  Na  Na0  1  0.62992228  0.99501848  0.25679701  1
  Na  Na1  1  0.37006109  0.36681538  0.24400405  1
  Na  Na2  1  0.64288777  0.64588465  0.73954902  1
  Na  Na3  1  0.31025567  0.34305392  0.58926645  1
  Na  Na4  1  0.02599811  0.70222172  0.58397232  1
  Na  Na5  1  0.66793400  0.94838947  0.58562060  1
  Na  Na6  1  0.29581335  0.97035337  0.07757877  1
  Na  Na7  1  0.05094336  0.33822990  0.07753394  1
  Na  Na8  1  0.98659196  0.67627205  0.91365264  1
  Na  Na9  1  0.70957649  0.03590827  0.90429828  1
  Na  Na10  1  0.30606954  0.28316750  0.91757675  1
  Na  Na11  1  0.69812870  0.68472573  0.41917477  1
  Na  Na12  1  0.98576801  0.99739201  0.49654600  1
  Na  Na13  1  0.01209540  0.01119435  0.99734245  1
  Na  Na14  1  0.67174173  0.30681611  0.82356387  1
  Na  Na15  1  0.67631520  0.32257031  0.33171433  1
  Na  Na16  1  0.33721045  0.65650932  0.16250249  1
  Na  Na17  1  0.34871570  0.67561167  0.66660476  1
  Hf  Hf18  1  0.65595208  0.32434729  0.98193001  1
  Hf  Hf19  1  0.66751182  0.32944811  0.47979152  1
  Hf  Hf20  1  0.32975716  0.67826761  0.81510493  1
  Zn  Zn21  1  0.98898842  0.00414289  0.35100459  1
  Zn  Zn22  1  0.00407960  0.02649008  0.84797179  1
  Zn  Zn23  1  0.96784356  0.97574066  0.65560996  1
  Zn  Zn24  1  0.01297504  0.00841269  0.14976137  1
  Zn  Zn25  1  0.66245366  0.32397150  0.68551262  1
  Zn  Zn26  1  0.66421226  0.34962927  0.17768035  1
  Zn  Zn27  1  0.32285491  0.65004591  0.01314342  1
  Zn  Zn28  1  0.36434609  0.67350513  0.51190669  1
  Zn  Zn29  1  0.33329455  0.68674114  0.32616076  1
  Si  Si30  1  0.70221641  0.00530839  0.74963595  1
  Si  Si31  1  0.66664305  0.62391434  0.58547615  1
  Si  Si32  1  0.36697474  0.33925799  0.08699830  1
  Si  Si33  1  0.03625817  0.36981792  0.91936080  1
  Si  Si34  1  0.32719085  0.95668673  0.92094162  1
  Si  Si35  1  0.63648119  0.96733913  0.41426369  1
  S  S36  1  0.29007443  0.99530350  0.25097165  1
  S  S37  1  0.71025934  0.70604507  0.24969158  1
  S  S38  1  0.00009792  0.29898068  0.24883660  1
  S  S39  1  0.29671557  0.29731607  0.74961835  1
  S  S40  1  0.00116077  0.70742521  0.75046593  1
  S  S41  1  0.96493901  0.33831867  0.58338160  1
  S  S42  1  0.37127673  0.03925094  0.58389188  1
  S  S43  1  0.95706155  0.62780932  0.08514710  1
  S  S44  1  0.66762151  0.03786534  0.08724724  1
  S  S45  1  0.62519550  0.66556896  0.91785762  1
  S  S46  1  0.32903117  0.36761464  0.41586845  1
  S  S47  1  0.04105692  0.66643408  0.41808095  1
  O  O48  1  0.20359211  0.01980547  0.30187802  1
  O  O49  1  0.80487249  0.78190321  0.30552312  1
  O  O50  1  0.97133228  0.18654348  0.30141118  1
  O  O51  1  0.21913143  0.19598528  0.80411893  1
  O  O52  1  0.98500513  0.79062296  0.80348679  1
  O  O53  1  0.80500155  0.01685709  0.81081790  1
  O  O54  1  0.77093376  0.95852508  0.68944796  1
  O  O55  1  0.19778566  0.21920173  0.69487630  1
  O  O56  1  0.03218073  0.80968292  0.69453773  1
  O  O57  1  0.79589476  0.81758531  0.19742476  1
  O  O58  1  0.02765648  0.22388567  0.19408855  1
  O  O59  1  0.19710860  0.97899134  0.19420480  1
  O  O60  1  0.88677490  0.36252834  0.63568513  1
  O  O61  1  0.47942148  0.11229751  0.63590020  1
  O  O62  1  0.63854305  0.50364909  0.64363968  1
  O  O63  1  0.87737185  0.51511492  0.13707268  1
  O  O64  1  0.64708192  0.12123960  0.14006556  1
  O  O65  1  0.47111597  0.35431526  0.14784511  1
  O  O66  1  0.46667004  0.31024214  0.02920090  1
  O  O67  1  0.85620194  0.54251786  0.02962243  1
  O  O68  1  0.69369480  0.15207235  0.03237177  1
  O  O69  1  0.46123955  0.14837584  0.52961751  1
  O  O70  1  0.68804371  0.52767864  0.52589673  1
  O  O71  1  0.84886359  0.30775567  0.52996863  1
  O  O72  1  0.54851269  0.69487902  0.96939031  1
  O  O73  1  0.14680231  0.44090349  0.97921131  1
  O  O74  1  0.30420798  0.84806331  0.98147245  1
  O  O75  1  0.55697938  0.85317029  0.47466845  1
  O  O76  1  0.30422923  0.44237678  0.47033171  1
  O  O77  1  0.13587575  0.67976392  0.47329335  1
  O  O78  1  0.11281179  0.63265914  0.36511371  1
  O  O79  1  0.52655667  0.89018738  0.35341238  1
  O  O80  1  0.36069510  0.47711543  0.36202099  1
  O  O81  1  0.13495252  0.49883807  0.86282646  1
  O  O82  1  0.37140896  0.86970881  0.86458713  1
  O  O83  1  0.51755737  0.63246921  0.86305974  1
  O  O84  1  0.01810411  0.81617195  0.41143842  1
  O  O85  1  0.82238210  0.97681528  0.41100820  1
  O  O86  1  0.18820077  0.19450950  0.40978607  1
  O  O87  1  0.00640001  0.17773420  0.91398485  1
  O  O88  1  0.16020433  0.97644087  0.90992588  1
  O  O89  1  0.79875783  0.80789687  0.91046451  1
  O  O90  1  0.98739847  0.18660190  0.58573953  1
  O  O91  1  0.20635005  0.03650378  0.58645507  1
  O  O92  1  0.84190405  0.81299889  0.58467036  1
  O  O93  1  0.96804082  0.79583441  0.08822687  1
  O  O94  1  0.82470332  0.02707505  0.08918114  1
  O  O95  1  0.17917493  0.15880257  0.08648064  1
  O  O96  1  0.67994505  0.17170427  0.74310664  1
  O  O97  1  0.47258968  0.32714847  0.74754405  1
  O  O98  1  0.84636120  0.53950918  0.74610514  1
  O  O99  1  0.68920909  0.53140515  0.24649096  1
  O  O100  1  0.84178665  0.31125288  0.24302253  1
  O  O101  1  0.46637311  0.14977478  0.24863832  1
  O  O102  1  0.63784837  0.50540985  0.92409952  1
  O  O103  1  0.84912727  0.36314350  0.92377940  1
  O  O104  1  0.50140050  0.15010459  0.92351507  1
  O  O105  1  0.65439689  0.15823181  0.42256854  1
  O  O106  1  0.49522469  0.36248234  0.42275353  1
  O  O107  1  0.86020208  0.51204594  0.42260968  1
  O  O108  1  0.34289070  0.50546494  0.08117499  1
  O  O109  1  0.12986101  0.65021128  0.08194659  1
  O  O110  1  0.51294648  0.87406331  0.07970775  1
  O  O111  1  0.34097607  0.86348848  0.57675433  1
  O  O112  1  0.49245485  0.64052843  0.58138907  1
  O  O113  1  0.13172370  0.49461993  0.57372244  1
  O  O114  1  0.31028632  0.84111774  0.25510613  1
  O  O115  1  0.53443445  0.68528151  0.25164222  1
  O  O116  1  0.15668081  0.46750624  0.25630680  1
  O  O117  1  0.31287077  0.47233155  0.75463368  1
  O  O118  1  0.15534522  0.68479587  0.75464628  1
  O  O119  1  0.51345093  0.82038060  0.75600542  1
