# generated using pymatgen
data_K3BiSe3
_symmetry_space_group_name_H-M   'P 1'
_cell_length_a   9.82386422
_cell_length_b   9.82386422
_cell_length_c   9.82386422
_cell_angle_alpha   90.00000000
_cell_angle_beta   90.00000000
_cell_angle_gamma   90.00000000
_symmetry_Int_Tables_number   1
_chemical_formula_structural   K3BiSe3
_chemical_formula_sum   'K12 Bi4 Se12'
_cell_volume   948.08451599
_cell_formula_units_Z   4
loop_
 _symmetry_equiv_pos_site_id
 _symmetry_equiv_pos_as_xyz
  1  'x, y, z'
loop_
 _atom_site_type_symbol
 _atom_site_label
 _atom_site_symmetry_multiplicity
 _atom_site_fract_x
 _atom_site_fract_y
 _atom_site_fract_z
 _atom_site_occupancy
  K  K0  1  0.32197280  0.32197280  0.32197280  1
  K  K1  1  0.17802720  0.67802720  0.82197280  1
  K  K2  1  0.82197280  0.17802720  0.67802720  1
  K  K3  1  0.67802720  0.82197280  0.17802720  1
  K  K4  1  0.57261061  0.57261061  0.57261061  1
  K  K5  1  0.92738939  0.42738939  0.07261061  1
  K  K6  1  0.07261061  0.92738939  0.42738939  1
  K  K7  1  0.42738939  0.07261061  0.92738939  1
  K  K8  1  0.81434190  0.81434190  0.81434190  1
  K  K9  1  0.68565810  0.18565810  0.31434190  1
  K  K10  1  0.31434190  0.68565810  0.18565810  1
  K  K11  1  0.18565810  0.31434190  0.68565810  1
  Bi  Bi12  1  0.96504623  0.53495377  0.46504623  1
  Bi  Bi13  1  0.46504623  0.96504623  0.53495377  1
  Bi  Bi14  1  0.03495377  0.03495377  0.03495377  1
  Bi  Bi15  1  0.53495377  0.46504623  0.96504623  1
  Se  Se16  1  0.77508496  0.11137825  0.00139927  1
  Se  Se17  1  0.72491504  0.88862175  0.50139927  1
  Se  Se18  1  0.27508496  0.38862175  0.99860073  1
  Se  Se19  1  0.11137825  0.00139927  0.77508496  1
  Se  Se20  1  0.22491504  0.61137825  0.49860073  1
  Se  Se21  1  0.49860073  0.22491504  0.61137825  1
  Se  Se22  1  0.61137825  0.49860073  0.22491504  1
  Se  Se23  1  0.88862175  0.50139927  0.72491504  1
  Se  Se24  1  0.99860073  0.27508496  0.38862175  1
  Se  Se25  1  0.38862175  0.99860073  0.27508496  1
  Se  Se26  1  0.00139927  0.77508496  0.11137825  1
  Se  Se27  1  0.50139927  0.72491504  0.88862175  1
