# generated using pymatgen
data_Na3HfAlSi(PO6)2
_symmetry_space_group_name_H-M   'P 1'
_cell_length_a   15.48019067
_cell_length_b   8.83965036
_cell_length_c   8.90411310
_cell_angle_alpha   90.00000000
_cell_angle_beta   124.45412423
_cell_angle_gamma   90.00000000
_symmetry_Int_Tables_number   1
_chemical_formula_structural   Na3HfAlSi(PO6)2
_chemical_formula_sum   'Na12 Hf4 Al4 Si4 P8 O48'
_cell_volume   1004.69573999
_cell_formula_units_Z   4
loop_
 _symmetry_equiv_pos_site_id
 _symmetry_equiv_pos_as_xyz
  1  'x, y, z'
loop_
 _atom_site_type_symbol
 _atom_site_label
 _atom_site_symmetry_multiplicity
 _atom_site_fract_x
 _atom_site_fract_y
 _atom_site_fract_z
 _atom_site_occupancy
  Na  Na0  1  0.24961799  0.72119677  0.99252619  1
  Na  Na1  1  0.74961799  0.77880323  0.49252619  1
  Na  Na2  1  0.74961799  0.22119677  0.99252619  1
  Na  Na3  1  0.24961799  0.27880323  0.49252619  1
  Na  Na4  1  0.50343952  0.10595605  0.76014911  1
  Na  Na5  1  0.50343952  0.89404395  0.26014911  1
  Na  Na6  1  0.00343952  0.60595605  0.76014911  1
  Na  Na7  1  0.00343952  0.39404395  0.26014911  1
  Na  Na8  1  0.18726158  0.92919701  0.28020356  1
  Na  Na9  1  0.18726158  0.07080299  0.78020356  1
  Na  Na10  1  0.68726158  0.42919701  0.28020356  1
  Na  Na11  1  0.68726158  0.57080299  0.78020356  1
  Hf  Hf12  1  0.89487364  0.75702743  0.93711832  1
  Hf  Hf13  1  0.89487364  0.24297257  0.43711832  1
  Hf  Hf14  1  0.39487364  0.25702743  0.93711832  1
  Hf  Hf15  1  0.39487364  0.74297257  0.43711832  1
  Al  Al16  1  0.10575733  0.74061700  0.56234489  1
  Al  Al17  1  0.10575733  0.25938300  0.06234489  1
  Al  Al18  1  0.60575733  0.24061700  0.56234489  1
  Al  Al19  1  0.60575733  0.75938300  0.06234489  1
  Si  Si20  1  0.64151263  0.90196493  0.74483903  1
  Si  Si21  1  0.64151263  0.09803507  0.24483903  1
  Si  Si22  1  0.14151263  0.40196493  0.74483903  1
  Si  Si23  1  0.14151263  0.59803507  0.24483903  1
  P  P24  1  0.00808641  0.95800989  0.76104414  1
  P  P25  1  0.00808641  0.04199011  0.26104414  1
  P  P26  1  0.50808641  0.45800989  0.76104414  1
  P  P27  1  0.50808641  0.54199011  0.26104414  1
  P  P28  1  0.35136646  0.88232978  0.76027944  1
  P  P29  1  0.35136646  0.11767022  0.26027944  1
  P  P30  1  0.85136646  0.38232978  0.76027944  1
  P  P31  1  0.85136646  0.61767022  0.26027944  1
  O  O32  1  0.14185350  0.58588187  0.73126317  1
  O  O33  1  0.84493899  0.56032149  0.76520673  1
  O  O34  1  0.84493899  0.43967851  0.26520673  1
  O  O35  1  0.14185350  0.41411813  0.23126317  1
  O  O36  1  0.64185350  0.08588187  0.73126317  1
  O  O37  1  0.34493899  0.06032149  0.76520673  1
  O  O38  1  0.34493899  0.93967851  0.26520673  1
  O  O39  1  0.64185350  0.91411813  0.23126317  1
  O  O40  1  0.44280350  0.55846743  0.59014086  1
  O  O41  1  0.57147300  0.55613202  0.93334205  1
  O  O42  1  0.57147300  0.44386798  0.43334205  1
  O  O43  1  0.44280350  0.44153257  0.09014086  1
  O  O44  1  0.94280350  0.05846743  0.59014086  1
  O  O45  1  0.07147300  0.05613202  0.93334205  1
  O  O46  1  0.07147300  0.94386798  0.43334205  1
  O  O47  1  0.94280350  0.94153257  0.09014086  1
  O  O48  1  0.25276331  0.82050188  0.74128034  1
  O  O49  1  0.74126581  0.82065369  0.75726025  1
  O  O50  1  0.74126581  0.17934631  0.25726025  1
  O  O51  1  0.25276331  0.17949812  0.24128034  1
  O  O52  1  0.75276331  0.32050188  0.74128034  1
  O  O53  1  0.24126581  0.32065369  0.75726025  1
  O  O54  1  0.24126581  0.67934631  0.25726025  1
  O  O55  1  0.75276331  0.67949812  0.24128034  1
  O  O56  1  0.34926487  0.85325678  0.58564872  1
  O  O57  1  0.63221103  0.85195047  0.91118206  1
  O  O58  1  0.63221103  0.14804953  0.41118206  1
  O  O59  1  0.34926487  0.14674322  0.08564872  1
  O  O60  1  0.84926487  0.35325678  0.58564872  1
  O  O61  1  0.13221103  0.35195047  0.91118206  1
  O  O62  1  0.13221103  0.64804953  0.41118206  1
  O  O63  1  0.84926487  0.64674322  0.08564872  1
  O  O64  1  0.45310480  0.82132385  0.93052221  1
  O  O65  1  0.53695770  0.83616255  0.55625098  1
  O  O66  1  0.53695770  0.16383745  0.05625098  1
  O  O67  1  0.45310480  0.17867615  0.43052221  1
  O  O68  1  0.95310480  0.32132385  0.93052221  1
  O  O69  1  0.03695770  0.33616255  0.55625098  1
  O  O70  1  0.03695770  0.66383745  0.05625098  1
  O  O71  1  0.95310480  0.67867615  0.43052221  1
  O  O72  1  0.08492323  0.86042364  0.74294827  1
  O  O73  1  0.92652467  0.85071750  0.75644968  1
  O  O74  1  0.92652467  0.14928250  0.25644968  1
  O  O75  1  0.08492323  0.13957636  0.24294827  1
  O  O76  1  0.58492323  0.36042364  0.74294827  1
  O  O77  1  0.42652467  0.35071750  0.75644968  1
  O  O78  1  0.42652467  0.64928250  0.25644968  1
  O  O79  1  0.58492323  0.63957636  0.24294827  1
