# generated using pymatgen
data_Ho2Mg(BiO3)4
_symmetry_space_group_name_H-M   'P 1'
_cell_length_a   5.68600693
_cell_length_b   6.11014745
_cell_length_c   8.36045169
_cell_angle_alpha   86.93965647
_cell_angle_beta   90.97744860
_cell_angle_gamma   89.27755166
_symmetry_Int_Tables_number   1
_chemical_formula_structural   Ho2Mg(BiO3)4
_chemical_formula_sum   'Ho2 Mg1 Bi4 O12'
_cell_volume   289.97862945
_cell_formula_units_Z   1
loop_
 _symmetry_equiv_pos_site_id
 _symmetry_equiv_pos_as_xyz
  1  'x, y, z'
loop_
 _atom_site_type_symbol
 _atom_site_label
 _atom_site_symmetry_multiplicity
 _atom_site_fract_x
 _atom_site_fract_y
 _atom_site_fract_z
 _atom_site_occupancy
  Ho  Ho0  1  0.02533000  0.90566700  0.75768200  1
  Ho  Ho1  1  0.54287900  0.58570200  0.24184500  1
  Mg  Mg2  1  0.51600800  0.54889100  0.79550800  1
  Bi  Bi3  1  0.01599300  0.46271000  0.01687300  1
  Bi  Bi4  1  0.00560200  0.47774500  0.50884100  1
  Bi  Bi5  1  0.50514400  0.02019800  0.48661600  1
  Bi  Bi6  1  0.50733500  0.02093900  0.99527700  1
  O  O7  1  0.18196600  0.47420400  0.28226300  1
  O  O8  1  0.18545800  0.16675900  0.90736800  1
  O  O9  1  0.14015600  0.15764400  0.57130500  1
  O  O10  1  0.29645300  0.71773500  0.93378200  1
  O  O11  1  0.28635500  0.67112000  0.60968600  1
  O  O12  1  0.40949600  0.93863800  0.23336700  1
  O  O13  1  0.64969100  0.02894900  0.75589700  1
  O  O14  1  0.69176300  0.32494700  0.41213500  1
  O  O15  1  0.61008200  0.35502500  0.02563100  1
  O  O16  1  0.78251100  0.77784000  0.03876800  1
  O  O17  1  0.78746700  0.75257100  0.42842200  1
  O  O18  1  0.86060200  0.55021700  0.74873300  1
