# generated using pymatgen
data_Ba2MgCoWO6
_symmetry_space_group_name_H-M   'P 1'
_cell_length_a   6.47723090
_cell_length_b   6.50925325
_cell_length_c   6.50015455
_cell_angle_alpha   55.25428362
_cell_angle_beta   54.36797722
_cell_angle_gamma   54.33358276
_symmetry_Int_Tables_number   1
_chemical_formula_structural   Ba2MgCoWO6
_chemical_formula_sum   'Ba2 Mg1 Co1 W1 O6'
_cell_volume   169.60789139
_cell_formula_units_Z   1
loop_
 _symmetry_equiv_pos_site_id
 _symmetry_equiv_pos_as_xyz
  1  'x, y, z'
loop_
 _atom_site_type_symbol
 _atom_site_label
 _atom_site_symmetry_multiplicity
 _atom_site_fract_x
 _atom_site_fract_y
 _atom_site_fract_z
 _atom_site_occupancy
  Ba  Ba0  1  0.75975533  0.73427235  0.73376535  1
  Ba  Ba1  1  0.26441044  0.29581643  0.29388926  1
  Mg  Mg2  1  0.10418835  0.06467402  0.06381546  1
  Co  Co3  1  0.88023050  0.94851039  0.94814581  1
  W  W4  1  0.51404793  0.51190611  0.51187458  1
  O  O5  1  0.20191038  0.73018717  0.73140587  1
  O  O6  1  0.32715613  0.24192642  0.71025602  1
  O  O7  1  0.70619942  0.32216763  0.77735459  1
  O  O8  1  0.32728887  0.71104075  0.24120153  1
  O  O9  1  0.70686328  0.77597224  0.32203560  1
  O  O10  1  0.83294936  0.28852649  0.28865193  1
