# generated using pymatgen
data_NaLa2Ge2P3(SO8)3
_symmetry_space_group_name_H-M   'P 1'
_cell_length_a   8.99030092
_cell_length_b   8.95105905
_cell_length_c   23.02903729
_cell_angle_alpha   90.98320797
_cell_angle_beta   90.31235339
_cell_angle_gamma   120.47882776
_symmetry_Int_Tables_number   1
_chemical_formula_structural   NaLa2Ge2P3(SO8)3
_chemical_formula_sum   'Na3 La6 Ge6 P9 S9 O72'
_cell_volume   1596.67586603
_cell_formula_units_Z   3
loop_
 _symmetry_equiv_pos_site_id
 _symmetry_equiv_pos_as_xyz
  1  'x, y, z'
loop_
 _atom_site_type_symbol
 _atom_site_label
 _atom_site_symmetry_multiplicity
 _atom_site_fract_x
 _atom_site_fract_y
 _atom_site_fract_z
 _atom_site_occupancy
  Na  Na0  1  0.69269607  0.33923337  0.83681847  1
  Na  Na1  1  0.66184766  0.35171336  0.33251177  1
  Na  Na2  1  0.35450827  0.68616779  0.15828816  1
  La  La3  1  0.68003686  0.33813855  0.68424139  1
  La  La4  1  0.66055166  0.33015626  0.18103155  1
  La  La5  1  0.66199786  0.32032601  0.99003554  1
  La  La6  1  0.66039851  0.33698415  0.48794060  1
  La  La7  1  0.33635034  0.67014371  0.30375711  1
  La  La8  1  0.33287033  0.67225017  0.79808312  1
  Ge  Ge9  1  0.01963322  0.99036673  0.35585735  1
  Ge  Ge10  1  0.99160982  0.00357742  0.85797965  1
  Ge  Ge11  1  0.99161978  0.99155909  0.65149725  1
  Ge  Ge12  1  0.99865562  0.00068963  0.14734607  1
  Ge  Ge13  1  0.33149560  0.64061183  0.01801760  1
  Ge  Ge14  1  0.31368920  0.65413156  0.50765285  1
  P  P15  1  0.27205841  0.01060998  0.24861622  1
  P  P16  1  0.74898551  0.73534940  0.25123027  1
  P  P17  1  0.97861162  0.73322553  0.75354051  1
  P  P18  1  0.74916970  0.02043675  0.75203552  1
  P  P19  1  0.66470600  0.99422059  0.08300938  1
  P  P20  1  0.32970280  0.32536378  0.08492098  1
  P  P21  1  0.05238511  0.36455314  0.91470195  1
  P  P22  1  0.30659611  0.35896445  0.41370440  1
  P  P23  1  0.04360500  0.67993707  0.41498309  1
  S  S24  1  0.98676060  0.26001890  0.24898558  1
  S  S25  1  0.27376398  0.25308247  0.74964728  1
  S  S26  1  0.00459811  0.33357746  0.58243996  1
  S  S27  1  0.32812976  0.99444865  0.58415613  1
  S  S28  1  0.66257841  0.66984609  0.58414230  1
  S  S29  1  0.00239435  0.66542474  0.08269100  1
  S  S30  1  0.64071063  0.68469358  0.91597888  1
  S  S31  1  0.30549591  0.95556190  0.91516900  1
  S  S32  1  0.63951507  0.94735966  0.42047937  1
  O  O33  1  0.19077066  0.01456176  0.30865447  1
  O  O34  1  0.83786195  0.82958036  0.31134327  1
  O  O35  1  0.99555600  0.17208504  0.30158717  1
  O  O36  1  0.18846136  0.15989325  0.80299131  1
  O  O37  1  0.96689288  0.82388317  0.81015118  1
  O  O38  1  0.85011231  0.04261856  0.81017765  1
  O  O39  1  0.84892294  0.03703229  0.69444085  1
  O  O40  1  0.19044430  0.16074384  0.69259433  1
  O  O41  1  0.97026278  0.81516302  0.69481969  1
  O  O42  1  0.84909294  0.82208271  0.19487076  1
  O  O43  1  0.96719563  0.16485992  0.19273497  1
  O  O44  1  0.18140407  0.03135660  0.19446673  1
  O  O45  1  0.93281880  0.37832433  0.63327779  1
  O  O46  1  0.44502303  0.07568759  0.63493119  1
  O  O47  1  0.63124789  0.55859113  0.63443802  1
  O  O48  1  0.92694318  0.54896946  0.13257474  1
  O  O49  1  0.61244910  0.06541586  0.13567715  1
  O  O50  1  0.45598546  0.38082002  0.13768745  1
  O  O51  1  0.40779109  0.28346042  0.03172345  1
  O  O52  1  0.88979932  0.59203158  0.03078607  1
  O  O53  1  0.71381680  0.11703294  0.03188219  1
  O  O54  1  0.39823332  0.10928027  0.53384268  1
  O  O55  1  0.71029424  0.59995838  0.53344171  1
  O  O56  1  0.88490313  0.28458426  0.53235054  1
  O  O57  1  0.55350270  0.70145542  0.96977765  1
  O  O58  1  0.16927088  0.46124308  0.97164096  1
  O  O59  1  0.29427564  0.86004717  0.96852149  1
  O  O60  1  0.53980862  0.83218316  0.47199877  1
  O  O61  1  0.28050513  0.45406545  0.46900037  1
  O  O62  1  0.15993565  0.70291443  0.47132037  1
  O  O63  1  0.11912911  0.64644186  0.36159981  1
  O  O64  1  0.53640701  0.88340618  0.36688472  1
  O  O65  1  0.34915534  0.46977665  0.36090555  1
  O  O66  1  0.13118042  0.47393682  0.86138602  1
  O  O67  1  0.33373724  0.87714622  0.86312798  1
  O  O68  1  0.53579621  0.65548440  0.86390205  1
  O  O69  1  0.04207976  0.85378035  0.41103385  1
  O  O70  1  0.80395364  0.95004187  0.41695009  1
  O  O71  1  0.13095858  0.18163425  0.40598495  1
  O  O72  1  0.05046511  0.18745700  0.90977227  1
  O  O73  1  0.13903317  0.95842074  0.90988236  1
  O  O74  1  0.81016625  0.85456254  0.91275990  1
  O  O75  1  0.04061705  0.19112856  0.59596429  1
  O  O76  1  0.14905769  0.96311621  0.59630352  1
  O  O77  1  0.81423482  0.85288222  0.59562221  1
  O  O78  1  0.03303927  0.84156527  0.09578934  1
  O  O79  1  0.81115109  0.95532175  0.09814364  1
  O  O80  1  0.14612098  0.17368317  0.09790694  1
  O  O81  1  0.72135356  0.17746972  0.75248155  1
  O  O82  1  0.44777463  0.27336322  0.75012992  1
  O  O83  1  0.81629781  0.55058820  0.75444879  1
  O  O84  1  0.72911580  0.55384732  0.25405742  1
  O  O85  1  0.83392585  0.28132688  0.25360756  1
  O  O86  1  0.45752109  0.17030479  0.25276887  1
  O  O87  1  0.67494254  0.54033976  0.92205685  1
  O  O88  1  0.86840441  0.33163474  0.92358209  1
  O  O89  1  0.45288146  0.13872477  0.91871075  1
  O  O90  1  0.66865045  0.12424902  0.43121840  1
  O  O91  1  0.45398467  0.32375633  0.42660389  1
  O  O92  1  0.85920640  0.52820272  0.42430356  1
  O  O93  1  0.30862317  0.48716078  0.07350885  1
  O  O94  1  0.17706283  0.68425048  0.07152014  1
  O  O95  1  0.49750456  0.81070229  0.06737596  1
  O  O96  1  0.31318457  0.82189179  0.57157251  1
  O  O97  1  0.50842840  0.68496232  0.57117099  1
  O  O98  1  0.17644285  0.49409436  0.56974928  1
  O  O99  1  0.27543592  0.84140853  0.24039547  1
  O  O100  1  0.57393195  0.72666966  0.24490228  1
  O  O101  1  0.14599246  0.43059369  0.24310243  1
  O  O102  1  0.28202110  0.41956253  0.74663202  1
  O  O103  1  0.14360046  0.72727654  0.75134559  1
  O  O104  1  0.58278765  0.84851727  0.74897313  1
