# generated using pymatgen
data_Na7CaLa3(PO4)6
_symmetry_space_group_name_H-M   'P 1'
_cell_length_a   9.64119514
_cell_length_b   9.62091360
_cell_length_c   24.18866889
_cell_angle_alpha   89.51289129
_cell_angle_beta   90.01550471
_cell_angle_gamma   120.07218428
_symmetry_Int_Tables_number   1
_chemical_formula_structural   Na7CaLa3(PO4)6
_chemical_formula_sum   'Na21 Ca3 La9 P18 O72'
_cell_volume   1941.57031528
_cell_formula_units_Z   3
loop_
 _symmetry_equiv_pos_site_id
 _symmetry_equiv_pos_as_xyz
  1  'x, y, z'
loop_
 _atom_site_type_symbol
 _atom_site_label
 _atom_site_symmetry_multiplicity
 _atom_site_fract_x
 _atom_site_fract_y
 _atom_site_fract_z
 _atom_site_occupancy
  Na  Na0  1  0.63893919  0.01028605  0.24626591  1
  Na  Na1  1  0.37223244  0.36013409  0.24686106  1
  Na  Na2  1  0.98843611  0.62854026  0.24466933  1
  Na  Na3  1  0.63685853  0.62730440  0.74591576  1
  Na  Na4  1  0.98822238  0.36196760  0.74757608  1
  Na  Na5  1  0.37538553  0.01121377  0.74661811  1
  Na  Na6  1  0.02881970  0.69679160  0.58506242  1
  Na  Na7  1  0.66625905  0.96993081  0.58468575  1
  Na  Na8  1  0.30469269  0.97168650  0.08508744  1
  Na  Na9  1  0.66751135  0.69602958  0.08514702  1
  Na  Na10  1  0.69755361  0.03218463  0.91900506  1
  Na  Na11  1  0.33492625  0.30153341  0.91852127  1
  Na  Na12  1  0.96821214  0.29231980  0.41206662  1
  Na  Na13  1  0.32255294  0.02980792  0.41333356  1
  Na  Na14  1  0.70893778  0.67815454  0.41236788  1
  Na  Na15  1  0.00865527  0.00824377  0.49776144  1
  Na  Na16  1  0.99988355  0.99965564  0.00223681  1
  Na  Na17  1  0.67550446  0.34209639  0.83310020  1
  Na  Na18  1  0.66671522  0.33331895  0.32629237  1
  Na  Na19  1  0.32377923  0.65771325  0.16366549  1
  Na  Na20  1  0.33373248  0.65748683  0.66425988  1
  Ca  Ca21  1  0.99966871  0.99917978  0.34554422  1
  Ca  Ca22  1  0.66142232  0.33241735  0.67940824  1
  Ca  Ca23  1  0.67074326  0.33260756  0.18033055  1
  La  La24  1  -0.00010238  0.98929605  0.84808041  1
  La  La25  1  0.01062936  0.01084587  0.65069071  1
  La  La26  1  0.00012928  0.01180046  0.15229427  1
  La  La27  1  0.68262213  0.34384852  0.98729583  1
  La  La28  1  0.66110826  0.33395616  0.48811979  1
  La  La29  1  0.31744300  0.65605058  0.01655621  1
  La  La30  1  0.33330321  0.65653745  0.51587890  1
  La  La31  1  0.33374756  0.66778198  0.31898257  1
  La  La32  1  0.32835233  0.66783353  0.82068303  1
  P  P33  1  0.30609821  0.00521657  0.25112866  1
  P  P34  1  0.69793610  0.69302078  0.25163904  1
  P  P35  1  0.99500081  0.30365532  0.25440518  1
  P  P36  1  0.31071325  0.30735930  0.75223856  1
  P  P37  1  0.99562396  0.68898218  0.74644549  1
  P  P38  1  0.69545811  0.00345290  0.74930842  1
  P  P39  1  0.96316813  0.33464385  0.58503823  1
  P  P40  1  0.36354916  0.02340102  0.58468836  1
  P  P41  1  0.67087752  0.64189484  0.58558889  1
  P  P42  1  0.97036046  0.64253199  0.08890078  1
  P  P43  1  0.66036677  0.02487699  0.08441835  1
  P  P44  1  0.37265167  0.33414859  0.08459904  1
  P  P45  1  0.63187017  0.66570324  0.91687775  1
  P  P46  1  0.02549629  0.35362192  0.91300187  1
  P  P47  1  0.33948386  0.97912801  0.91704414  1
  P  P48  1  0.64315207  0.97295050  0.41674724  1
  P  P49  1  0.32866163  0.35516859  0.41393697  1
  P  P50  1  0.02816531  0.67034565  0.41709521  1
  O  O51  1  0.22261143  0.02074262  0.30327251  1
  O  O52  1  0.79691244  0.77658089  0.30368886  1
  O  O53  1  0.97844687  0.20770067  0.30779408  1
  O  O54  1  0.23096696  0.20827973  0.80581970  1
  O  O55  1  0.97671718  0.77793365  0.79668661  1
  O  O56  1  0.79776018  0.02047620  0.80154886  1
  O  O57  1  0.77823729  0.98004911  0.69763895  1
  O  O58  1  0.19759727  0.21997098  0.70292926  1
  O  O59  1  0.02075264  0.79228306  0.69356829  1
  O  O60  1  0.77928256  0.79813833  0.19899404  1
  O  O61  1  0.02106850  0.21924547  0.20411925  1
  O  O62  1  0.20230220  0.98279023  0.19867240  1
  O  O63  1  0.87805619  0.34908526  0.63643730  1
  O  O64  1  0.46251057  0.11003838  0.63595580  1
  O  O65  1  0.65646453  0.54289126  0.63743643  1
  O  O66  1  0.89155909  0.54817399  0.14174061  1
  O  O67  1  0.64828788  0.11107805  0.13574489  1
  O  O68  1  0.47209211  0.34945218  0.13610692  1
  O  O69  1  0.45312782  0.31883524  0.03059054  1
  O  O70  1  0.86926256  0.55646590  0.03699490  1
  O  O71  1  0.67649338  0.12048813  0.03015554  1
  O  O72  1  0.44241513  0.11812171  0.53045621  1
  O  O73  1  0.68456973  0.56063686  0.53190170  1
  O  O74  1  0.86784750  0.31897238  0.53111300  1
  O  O75  1  0.54428641  0.68194625  0.96835698  1
  O  O76  1  0.13466558  0.44670219  0.96229104  1
  O  O77  1  0.32323787  0.87569863  0.96879398  1
  O  O78  1  0.55692694  0.86835195  0.46888774  1
  O  O79  1  0.30899656  0.44498815  0.46377163  1
  O  O80  1  0.13127678  0.68770394  0.46915027  1
  O  O81  1  0.11015533  0.64668040  0.36547082  1
  O  O82  1  0.53786821  0.89110685  0.36506900  1
  O  O83  1  0.35420256  0.45708965  0.36079524  1
  O  O84  1  0.10044102  0.44597159  0.85841299  1
  O  O85  1  0.35203139  0.89572224  0.86390032  1
  O  O86  1  0.53438538  0.64997555  0.86365435  1
  O  O87  1  0.01382530  0.82368400  0.41289998  1
  O  O88  1  0.81044068  0.98702696  0.41296233  1
  O  O89  1  0.17690438  0.18639778  0.41208831  1
  O  O90  1  0.01409290  0.18553149  0.91355360  1
  O  O91  1  0.19391724  0.00739013  0.91529250  1
  O  O92  1  0.79759897  0.82309646  0.91431401  1
  O  O93  1  0.97421006  0.17802119  0.58660326  1
  O  O94  1  0.18797068  0.99226743  0.58582705  1
  O  O95  1  0.82783801  0.81152381  0.58619215  1
  O  O96  1  0.98401839  0.81263567  0.08765927  1
  O  O97  1  0.80433152  0.99247956  0.08569700  1
  O  O98  1  0.20483054  0.17738872  0.08639346  1
  O  O99  1  0.67946580  0.15556704  0.74544808  1
  O  O100  1  0.47696237  0.32100513  0.74636200  1
  O  O101  1  0.84435753  0.52050016  0.74473070  1
  O  O102  1  0.68038941  0.52349986  0.24770276  1
  O  O103  1  0.84166169  0.31728895  0.24811400  1
  O  O104  1  0.47574064  0.15728823  0.24684813  1
  O  O105  1  0.64173988  0.50966737  0.91983377  1
  O  O106  1  0.85277678  0.32590055  0.91758160  1
  O  O107  1  0.49662840  0.14620853  0.91895869  1
  O  O108  1  0.66082472  0.14334083  0.42020766  1
  O  O109  1  0.48173154  0.33930263  0.41946481  1
  O  O110  1  0.85738729  0.51802327  0.42067417  1
  O  O111  1  0.36090532  0.49066949  0.08144302  1
  O  O112  1  0.14535980  0.67211365  0.08436750  1
  O  O113  1  0.50218169  0.85566265  0.08223931  1
  O  O114  1  0.35283076  0.85470547  0.58260474  1
  O  O115  1  0.52570833  0.67200632  0.58299803  1
  O  O116  1  0.13071265  0.49123665  0.58202055  1
  O  O117  1  0.32517612  0.85181542  0.25351013  1
  O  O118  1  0.52582632  0.67442898  0.25373242  1
  O  O119  1  0.14682956  0.47706531  0.25458661  1
  O  O120  1  0.33012594  0.47902531  0.75367763  1
  O  O121  1  0.14959394  0.67375285  0.75171266  1
  O  O122  1  0.52441143  0.85012412  0.75297774  1
