# generated using pymatgen
data_NaHf3TaSi3(SO8)3
_symmetry_space_group_name_H-M   'P 1'
_cell_length_a   8.93580076
_cell_length_b   8.94030228
_cell_length_c   23.16624205
_cell_angle_alpha   89.86281195
_cell_angle_beta   90.48315295
_cell_angle_gamma   119.85658309
_symmetry_Int_Tables_number   1
_chemical_formula_structural   NaHf3TaSi3(SO8)3
_chemical_formula_sum   'Na3 Hf9 Ta3 Si9 S9 O72'
_cell_volume   1605.02327638
_cell_formula_units_Z   3
loop_
 _symmetry_equiv_pos_site_id
 _symmetry_equiv_pos_as_xyz
  1  'x, y, z'
loop_
 _atom_site_type_symbol
 _atom_site_label
 _atom_site_symmetry_multiplicity
 _atom_site_fract_x
 _atom_site_fract_y
 _atom_site_fract_z
 _atom_site_occupancy
  Na  Na0  1  0.00996644  0.99543410  0.99589115  1
  Na  Na1  1  0.65544116  0.31760020  0.83039905  1
  Na  Na2  1  0.68082688  0.33803949  0.33443635  1
  Hf  Hf3  1  0.99494117  0.99976005  0.35802443  1
  Hf  Hf4  1  0.01267298  0.01004611  0.85070448  1
  Hf  Hf5  1  0.64552651  0.32226901  0.68813587  1
  Hf  Hf6  1  0.67857320  0.34557039  0.18419310  1
  Hf  Hf7  1  0.65386696  0.33442533  0.97980171  1
  Hf  Hf8  1  0.66803237  0.34524394  0.48425166  1
  Hf  Hf9  1  0.31919077  0.66607932  0.02266323  1
  Hf  Hf10  1  0.31418927  0.65490664  0.31050287  1
  Hf  Hf11  1  0.34687720  0.68255502  0.80633231  1
  Ta  Ta12  1  0.99751532  0.00109127  0.64577157  1
  Ta  Ta13  1  0.01127282  0.01277487  0.14302467  1
  Ta  Ta14  1  0.32862018  0.67578236  0.52694805  1
  Si  Si15  1  0.99363563  0.28364045  0.25079013  1
  Si  Si16  1  0.28729038  0.29187814  0.74937824  1
  Si  Si17  1  0.71814410  0.00744000  0.74985418  1
  Si  Si18  1  0.37373622  0.05096584  0.58301591  1
  Si  Si19  1  0.66835575  0.62673916  0.58476055  1
  Si  Si20  1  0.95442061  0.62500456  0.08249300  1
  Si  Si21  1  0.38295309  0.34112085  0.08385410  1
  Si  Si22  1  0.33230352  0.95668097  0.91611505  1
  Si  Si23  1  0.04024899  0.66156526  0.41718087  1
  S  S24  1  0.28732233  0.00176303  0.25045211  1
  S  S25  1  0.71252866  0.71419747  0.25015839  1
  S  S26  1  0.99808562  0.71190526  0.74938524  1
  S  S27  1  0.95752287  0.33319795  0.58367889  1
  S  S28  1  0.66729480  0.04342030  0.08374107  1
  S  S29  1  0.62284753  0.66926689  0.91692244  1
  S  S30  1  0.04265721  0.37748372  0.91639364  1
  S  S31  1  0.61713725  0.95235229  0.41685515  1
  S  S32  1  0.33420050  0.38026352  0.41665963  1
  O  O33  1  0.20470349  0.02698568  0.30171168  1
  O  O34  1  0.82312441  0.79235195  0.30248368  1
  O  O35  1  0.97200333  0.16401181  0.30641849  1
  O  O36  1  0.20386047  0.16776160  0.80562851  1
  O  O37  1  0.96929990  0.79001338  0.80169972  1
  O  O38  1  0.83129745  0.02648428  0.80744033  1
  O  O39  1  0.81253356  0.97720017  0.69320105  1
  O  O40  1  0.16518198  0.18869701  0.69313548  1
  O  O41  1  0.02684907  0.82159354  0.69740137  1
  O  O42  1  0.79492160  0.81928202  0.19832646  1
  O  O43  1  0.01894595  0.18319824  0.19437925  1
  O  O44  1  0.17686641  0.97152918  0.19765801  1
  O  O45  1  0.88661172  0.36996710  0.63444973  1
  O  O46  1  0.49912491  0.12701243  0.63820011  1
  O  O47  1  0.63644217  0.50365630  0.63900947  1
  O  O48  1  0.86902790  0.50714769  0.13979340  1
  O  O49  1  0.64130412  0.12284869  0.13590468  1
  O  O50  1  0.49110641  0.35404923  0.14168737  1
  O  O51  1  0.45957256  0.29214786  0.02821592  1
  O  O52  1  0.83362187  0.53640245  0.02663967  1
  O  O53  1  0.70404647  0.15342756  0.03227540  1
  O  O54  1  0.46574675  0.16113333  0.52520898  1
  O  O55  1  0.70149191  0.54073377  0.52705847  1
  O  O56  1  0.85048932  0.30416918  0.53087951  1
  O  O57  1  0.54256675  0.69129258  0.96915236  1
  O  O58  1  0.15069625  0.45522829  0.96920965  1
  O  O59  1  0.31148845  0.84029958  0.97346224  1
  O  O60  1  0.53819149  0.84383295  0.46878319  1
  O  O61  1  0.30748510  0.45912377  0.46796749  1
  O  O62  1  0.16855814  0.68592822  0.47238611  1
  O  O63  1  0.13792975  0.63829758  0.36062644  1
  O  O64  1  0.51269267  0.87107514  0.36410089  1
  O  O65  1  0.36433401  0.48881525  0.36409546  1
  O  O66  1  0.12172456  0.48165805  0.86493124  1
  O  O67  1  0.35638027  0.86079974  0.86044177  1
  O  O68  1  0.51479036  0.63761610  0.86467401  1
  O  O69  1  0.02598240  0.83347806  0.40523248  1
  O  O70  1  0.79060305  0.96864138  0.40951314  1
  O  O71  1  0.18043903  0.20727501  0.40756282  1
  O  O72  1  0.02302530  0.20155710  0.91185551  1
  O  O73  1  0.15862016  0.97537524  0.91207080  1
  O  O74  1  0.79684908  0.82120859  0.91090732  1
  O  O75  1  0.97870433  0.18064291  0.59040185  1
  O  O76  1  0.18257929  0.01911888  0.59551348  1
  O  O77  1  0.83397167  0.81719755  0.59547928  1
  O  O78  1  0.97200687  0.81628331  0.09708174  1
  O  O79  1  0.82532936  0.02365271  0.09285398  1
  O  O80  1  0.18532729  0.16322055  0.09411985  1
  O  O81  1  0.70387800  0.17995817  0.74212669  1
  O  O82  1  0.47854435  0.31217298  0.74418561  1
  O  O83  1  0.84644191  0.53996767  0.74204777  1
  O  O84  1  0.69230818  0.53868541  0.24438237  1
  O  O85  1  0.82342985  0.30388185  0.24385426  1
  O  O86  1  0.45938779  0.15457293  0.24341509  1
  O  O87  1  0.64232150  0.51175691  0.92270952  1
  O  O88  1  0.86874970  0.35769997  0.92454258  1
  O  O89  1  0.50732973  0.14862088  0.92353132  1
  O  O90  1  0.63956493  0.12643804  0.42320587  1
  O  O91  1  0.48807569  0.35789925  0.42193898  1
  O  O92  1  0.85112597  0.48951995  0.42304011  1
  O  O93  1  0.35710111  0.50164771  0.07202692  1
  O  O94  1  0.14404621  0.65011250  0.07531304  1
  O  O95  1  0.51982555  0.87161080  0.07595145  1
  O  O96  1  0.35380712  0.85581259  0.57123266  1
  O  O97  1  0.49669920  0.64361714  0.56668140  1
  O  O98  1  0.13429946  0.48643308  0.57257287  1
  O  O99  1  0.30678573  0.84772332  0.25768210  1
  O  O100  1  0.54223237  0.69781477  0.25906572  1
  O  O101  1  0.16837395  0.47088785  0.25824933  1
  O  O102  1  0.29977571  0.47439684  0.76113430  1
  O  O103  1  0.15278952  0.69539361  0.75698862  1
  O  O104  1  0.52979277  0.83615501  0.75678851  1
