# generated using pymatgen
data_Na3HfGaSi(PO6)2
_symmetry_space_group_name_H-M   'P 1'
_cell_length_a   8.92637285
_cell_length_b   8.92637255
_cell_length_c   22.33387907
_cell_angle_alpha   89.61292146
_cell_angle_beta   90.38707854
_cell_angle_gamma   119.93265577
_symmetry_Int_Tables_number   1
_chemical_formula_structural   Na3HfGaSi(PO6)2
_chemical_formula_sum   'Na18 Hf6 Ga6 Si6 P12 O72'
_cell_volume   1542.14750210
_cell_formula_units_Z   6
loop_
 _symmetry_equiv_pos_site_id
 _symmetry_equiv_pos_as_xyz
  1  'x, y, z'
loop_
 _atom_site_type_symbol
 _atom_site_label
 _atom_site_symmetry_multiplicity
 _atom_site_fract_x
 _atom_site_fract_y
 _atom_site_fract_z
 _atom_site_occupancy
  Na  Na0  1  0.00326165  0.99738330  0.49617335  1
  Na  Na1  1  0.00261670  0.99673835  0.99617335  1
  Na  Na2  1  0.66540353  0.32743916  0.82965934  1
  Na  Na3  1  0.67256084  0.33459647  0.32965934  1
  Na  Na4  1  0.34307638  0.67075033  0.16284046  1
  Na  Na5  1  0.32924967  0.65692362  0.66284046  1
  Na  Na6  1  0.36397567  0.36241619  0.24763981  1
  Na  Na7  1  0.99179633  0.62585806  0.24822155  1
  Na  Na8  1  0.63758381  0.63602433  0.74763981  1
  Na  Na9  1  0.37414194  0.00820367  0.74822155  1
  Na  Na10  1  0.03891578  0.70012761  0.58058350  1
  Na  Na11  1  0.65620752  0.96352755  0.58367779  1
  Na  Na12  1  0.29987239  0.96108422  0.08058350  1
  Na  Na13  1  0.03647245  0.34379248  0.08367779  1
  Na  Na14  1  0.97215675  0.67337236  0.91762537  1
  Na  Na15  1  0.69959065  0.02852670  0.91293313  1
  Na  Na16  1  0.97147330  0.30040935  0.41293313  1
  Na  Na17  1  0.32662764  0.02784325  0.41762537  1
  Hf  Hf18  1  0.00495254  0.00650111  0.64752334  1
  Hf  Hf19  1  0.99349889  0.99504746  0.14752334  1
  Hf  Hf20  1  0.66044583  0.33522627  0.98067959  1
  Hf  Hf21  1  0.66477373  0.33955417  0.48067959  1
  Hf  Hf22  1  0.33107106  0.66644556  0.31405083  1
  Hf  Hf23  1  0.33355444  0.66892894  0.81405083  1
  Ga  Ga24  1  0.98862281  0.99057977  0.35039090  1
  Ga  Ga25  1  0.00942023  0.01137719  0.85039090  1
  Ga  Ga26  1  0.67060293  0.32166775  0.68353507  1
  Ga  Ga27  1  0.67833225  0.32939707  0.18353507  1
  Ga  Ga28  1  0.32834749  0.66863595  0.01673127  1
  Ga  Ga29  1  0.33136405  0.67165251  0.51673127  1
  Si  Si30  1  0.99027780  0.28450733  0.25169117  1
  Si  Si31  1  0.71549267  0.00972220  0.75169117  1
  Si  Si32  1  0.37402197  0.03690471  0.58340413  1
  Si  Si33  1  0.96309529  0.62597803  0.08340413  1
  Si  Si34  1  0.32564588  0.96071781  0.91665529  1
  Si  Si35  1  0.03928219  0.67435412  0.41665529  1
  P  P36  1  0.29772926  0.00771455  0.25069212  1
  P  P37  1  0.70805694  0.70531082  0.25118012  1
  P  P38  1  0.29468918  0.29194306  0.75118012  1
  P  P39  1  0.99228545  0.70227074  0.75069212  1
  P  P40  1  0.96187425  0.33915535  0.58340193  1
  P  P41  1  0.65882721  0.62041217  0.58606738  1
  P  P42  1  0.66084465  0.03812575  0.08340193  1
  P  P43  1  0.37958783  0.34117279  0.08606738  1
  P  P44  1  0.62323959  0.66925775  0.91810852  1
  P  P45  1  0.04486867  0.37123224  0.91894709  1
  P  P46  1  0.62876776  0.95513133  0.41894709  1
  P  P47  1  0.33074225  0.37676041  0.41810852  1
  O  O48  1  0.21496937  0.03690468  0.30663911  1
  O  O49  1  0.82776930  0.78675716  0.30559269  1
  O  O50  1  0.97172319  0.17168786  0.31178279  1
  O  O51  1  0.21324284  0.17223070  0.80559269  1
  O  O52  1  0.96309532  0.78503063  0.80663911  1
  O  O53  1  0.82831214  0.02827681  0.81178279  1
  O  O54  1  0.79275624  0.96559409  0.69203746  1
  O  O55  1  0.18019095  0.20759966  0.69525905  1
  O  O56  1  0.03189940  0.82162706  0.69467788  1
  O  O57  1  0.79240034  0.81980905  0.19525905  1
  O  O58  1  0.03440591  0.20724376  0.19203746  1
  O  O59  1  0.17837294  0.96810060  0.19467788  1
  O  O60  1  0.87843202  0.37501939  0.63773735  1
  O  O61  1  0.49619354  0.12357335  0.64256411  1
  O  O62  1  0.63792386  0.51356389  0.64301589  1
  O  O63  1  0.87642665  0.50380646  0.14256411  1
  O  O64  1  0.62498061  0.12156798  0.13773735  1
  O  O65  1  0.48643611  0.36207614  0.14301589  1
  O  O66  1  0.46020428  0.30084775  0.03123639  1
  O  O67  1  0.84620344  0.54039348  0.02346782  1
  O  O68  1  0.69682465  0.15363220  0.02683491  1
  O  O69  1  0.45960652  0.15379656  0.52346782  1
  O  O70  1  0.69915225  0.53979572  0.53123639  1
  O  O71  1  0.84636780  0.30317535  0.52683491  1
  O  O72  1  0.53426422  0.69857348  0.97187228  1
  O  O73  1  0.15251181  0.45226402  0.97601401  1
  O  O74  1  0.29209756  0.83869809  0.97599373  1
  O  O75  1  0.54773598  0.84748819  0.47601401  1
  O  O76  1  0.30142652  0.46573578  0.47187228  1
  O  O77  1  0.16130191  0.70790244  0.47599373  1
  O  O78  1  0.12663879  0.63546885  0.35828717  1
  O  O79  1  0.50949851  0.87237194  0.36396146  1
  O  O80  1  0.36307590  0.48586357  0.36009437  1
  O  O81  1  0.12762806  0.49050149  0.86396146  1
  O  O82  1  0.36453115  0.87336121  0.85828717  1
  O  O83  1  0.51413643  0.63692410  0.86009437  1
  O  O84  1  0.03152270  0.85267334  0.40830547  1
  O  O85  1  0.81263309  0.98369935  0.41274825  1
  O  O86  1  0.16943465  0.19580477  0.41289707  1
  O  O87  1  0.01630065  0.18736691  0.91274825  1
  O  O88  1  0.14732666  0.96847730  0.90830547  1
  O  O89  1  0.80419523  0.83056535  0.91289707  1
  O  O90  1  0.96895554  0.16936461  0.58938078  1
  O  O91  1  0.17706899  0.00682196  0.58762717  1
  O  O92  1  0.82541158  0.80404289  0.58983312  1
  O  O93  1  0.99317804  0.82293101  0.08762717  1
  O  O94  1  0.83063539  0.03104446  0.08938078  1
  O  O95  1  0.19595711  0.17458842  0.08983312  1
  O  O96  1  0.68351586  0.17444027  0.74618517  1
  O  O97  1  0.47683607  0.31446570  0.74490626  1
  O  O98  1  0.82735960  0.52647119  0.74232114  1
  O  O99  1  0.68553430  0.52316393  0.24490626  1
  O  O100  1  0.82555973  0.31648414  0.24618517  1
  O  O101  1  0.47352881  0.17264040  0.24232114  1
  O  O102  1  0.64787908  0.50871703  0.92197428  1
  O  O103  1  0.86213894  0.35643962  0.92311127  1
  O  O104  1  0.50667196  0.14584263  0.92124201  1
  O  O105  1  0.64356038  0.13786106  0.42311127  1
  O  O106  1  0.49128297  0.35212092  0.42197428  1
  O  O107  1  0.85415737  0.49332804  0.42124201  1
  O  O108  1  0.35478113  0.49789063  0.07713090  1
  O  O109  1  0.15577534  0.64190103  0.07871571  1
  O  O110  1  0.50032504  0.85856397  0.07688619  1
  O  O111  1  0.35809897  0.84422466  0.57871571  1
  O  O112  1  0.50210937  0.64521887  0.57713090  1
  O  O113  1  0.14143603  0.49967496  0.57688619  1
  O  O114  1  0.31115863  0.84085685  0.25578760  1
  O  O115  1  0.52653037  0.68616530  0.25605102  1
  O  O116  1  0.16920103  0.47977306  0.25541502  1
  O  O117  1  0.31383470  0.47346963  0.75605102  1
  O  O118  1  0.15914315  0.68884137  0.75578760  1
  O  O119  1  0.52022694  0.83079897  0.75541502  1
