# generated using pymatgen
data_NaZr3TaSi3(SO8)3
_symmetry_space_group_name_H-M   'P 1'
_cell_length_a   8.98909375
_cell_length_b   8.99239410
_cell_length_c   23.40158717
_cell_angle_alpha   89.79737663
_cell_angle_beta   90.54760499
_cell_angle_gamma   119.86202993
_symmetry_Int_Tables_number   1
_chemical_formula_structural   NaZr3TaSi3(SO8)3
_chemical_formula_sum   'Na3 Zr9 Ta3 Si9 S9 O72'
_cell_volume   1640.39725087
_cell_formula_units_Z   3
loop_
 _symmetry_equiv_pos_site_id
 _symmetry_equiv_pos_as_xyz
  1  'x, y, z'
loop_
 _atom_site_type_symbol
 _atom_site_label
 _atom_site_symmetry_multiplicity
 _atom_site_fract_x
 _atom_site_fract_y
 _atom_site_fract_z
 _atom_site_occupancy
  Na  Na0  1  0.01257640  0.99394864  0.99432468  1
  Na  Na1  1  0.65238793  0.31269745  0.82972111  1
  Na  Na2  1  0.68556137  0.33936224  0.33491516  1
  Zr  Zr3  1  0.99377086  0.99908292  0.35956280  1
  Zr  Zr4  1  0.01342963  0.01056294  0.85106818  1
  Zr  Zr5  1  0.64363849  0.32164560  0.68754186  1
  Zr  Zr6  1  0.67907617  0.34636635  0.18435378  1
  Zr  Zr7  1  0.65253020  0.33376347  0.98028019  1
  Zr  Zr8  1  0.66770543  0.34638416  0.48507573  1
  Zr  Zr9  1  0.31847813  0.66659036  0.02329143  1
  Zr  Zr10  1  0.31214061  0.65361168  0.30901143  1
  Zr  Zr11  1  0.34881238  0.68499722  0.80521955  1
  Ta  Ta12  1  0.99863063  0.00181240  0.64604687  1
  Ta  Ta13  1  0.01066943  0.01225092  0.14365078  1
  Ta  Ta14  1  0.32832976  0.67524017  0.52602020  1
  Si  Si15  1  0.99126677  0.27906162  0.25074379  1
  Si  Si16  1  0.28587109  0.29074928  0.74920449  1
  Si  Si17  1  0.72204317  0.01004015  0.74916235  1
  Si  Si18  1  0.37113150  0.04796466  0.58282018  1
  Si  Si19  1  0.66820860  0.62980254  0.58456005  1
  Si  Si20  1  0.95322810  0.62779491  0.08283185  1
  Si  Si21  1  0.38002023  0.33761869  0.08421475  1
  Si  Si22  1  0.33280055  0.95681050  0.91608473  1
  Si  Si23  1  0.04120304  0.65852059  0.41703358  1
  S  S24  1  0.28554180  0.00323352  0.25023808  1
  S  S25  1  0.71484183  0.71632868  0.25037458  1
  S  S26  1  0.99736164  0.71326829  0.74866744  1
  S  S27  1  0.96177233  0.33395810  0.58336110  1
  S  S28  1  0.67150680  0.04413916  0.08429981  1
  S  S29  1  0.62295114  0.66922897  0.91692540  1
  S  S30  1  0.04161679  0.37711162  0.91647586  1
  S  S31  1  0.61324210  0.94987599  0.41724191  1
  S  S32  1  0.33541854  0.38289759  0.41666913  1
  O  O33  1  0.20265188  0.02529685  0.30102034  1
  O  O34  1  0.82324837  0.79327967  0.30226102  1
  O  O35  1  0.97328428  0.16301511  0.30647795  1
  O  O36  1  0.20492739  0.16823191  0.80541323  1
  O  O37  1  0.96992266  0.78996072  0.80065874  1
  O  O38  1  0.83027945  0.02471649  0.80695868  1
  O  O39  1  0.81762351  0.98337092  0.69331783  1
  O  O40  1  0.16689135  0.18639000  0.69341657  1
  O  O41  1  0.02212691  0.82187284  0.69721699  1
  O  O42  1  0.79816581  0.81903337  0.19886863  1
  O  O43  1  0.01315596  0.17844575  0.19483252  1
  O  O44  1  0.17618249  0.97544156  0.19767520  1
  O  O45  1  0.89200702  0.37267109  0.63350679  1
  O  O46  1  0.49777752  0.12420225  0.63735562  1
  O  O47  1  0.63413580  0.50461526  0.63784834  1
  O  O48  1  0.86937011  0.50999303  0.13972271  1
  O  O49  1  0.64587742  0.12293198  0.13570802  1
  O  O50  1  0.48852009  0.35065979  0.14144210  1
  O  O51  1  0.45650542  0.28841043  0.02905954  1
  O  O52  1  0.83300199  0.53936913  0.02747792  1
  O  O53  1  0.70770465  0.15239124  0.03347409  1
  O  O54  1  0.46319435  0.16063254  0.52595200  1
  O  O55  1  0.70430238  0.54458090  0.52767873  1
  O  O56  1  0.85409444  0.30412461  0.53161878  1
  O  O57  1  0.54171938  0.68760098  0.96859939  1
  O  O58  1  0.14768729  0.45562156  0.96909485  1
  O  O59  1  0.31640040  0.84355717  0.97313149  1
  O  O60  1  0.53261524  0.84302892  0.46867157  1
  O  O61  1  0.31200079  0.46279204  0.46746742  1
  O  O62  1  0.16687468  0.68006946  0.47194536  1
  O  O63  1  0.13800859  0.63776838  0.36047605  1
  O  O64  1  0.51158680  0.86897954  0.36494370  1
  O  O65  1  0.36306352  0.48850706  0.36440252  1
  O  O66  1  0.12150869  0.47849216  0.86549237  1
  O  O67  1  0.35223856  0.86018079  0.86033895  1
  O  O68  1  0.51793578  0.64194361  0.86498743  1
  O  O69  1  0.02839178  0.83098635  0.40596159  1
  O  O70  1  0.78600209  0.96436608  0.41134294  1
  O  O71  1  0.18104022  0.21056314  0.40868555  1
  O  O72  1  0.02185492  0.20159119  0.91310863  1
  O  O73  1  0.16010815  0.97533610  0.91358783  1
  O  O74  1  0.79634923  0.82122164  0.91197567  1
  O  O75  1  0.98299575  0.18258278  0.59114605  1
  O  O76  1  0.18179070  0.01774691  0.59648984  1
  O  O77  1  0.83149822  0.81926349  0.59701459  1
  O  O78  1  0.97071818  0.81699935  0.09797780  1
  O  O79  1  0.82832038  0.02349856  0.09380536  1
  O  O80  1  0.18380968  0.16335275  0.09541869  1
  O  O81  1  0.70831600  0.18226620  0.74235411  1
  O  O82  1  0.47747670  0.31302301  0.74456626  1
  O  O83  1  0.84631405  0.54205372  0.74141485  1
  O  O84  1  0.69317226  0.54061146  0.24527491  1
  O  O85  1  0.82279852  0.30081717  0.24508479  1
  O  O86  1  0.45621919  0.15477030  0.24371692  1
  O  O87  1  0.64248488  0.51224532  0.92167588  1
  O  O88  1  0.86888498  0.35806426  0.92388169  1
  O  O89  1  0.50671119  0.14805505  0.92253628  1
  O  O90  1  0.63637593  0.12338542  0.42315909  1
  O  O91  1  0.48782411  0.35959999  0.42145159  1
  O  O92  1  0.85246707  0.48857104  0.42256539  1
  O  O93  1  0.35637300  0.49876139  0.07207363  1
  O  O94  1  0.14307183  0.65480969  0.07565275  1
  O  O95  1  0.52484512  0.87187771  0.07659495  1
  O  O96  1  0.34959727  0.85410153  0.56953649  1
  O  O97  1  0.49837921  0.64623320  0.56527890  1
  O  O98  1  0.13815535  0.48574510  0.57159534  1
  O  O99  1  0.30329939  0.84836836  0.25611348  1
  O  O100  1  0.54609696  0.70226345  0.25819665  1
  O  O101  1  0.16616654  0.46579191  0.25735431  1
  O  O102  1  0.29511769  0.47133272  0.76033910  1
  O  O103  1  0.15223752  0.69868900  0.75504212  1
  O  O104  1  0.53371550  0.83882019  0.75518573  1
