# generated using pymatgen
data_Na6Ca4Nb2Si3(SO6)6
_symmetry_space_group_name_H-M   'P 1'
_cell_length_a   9.20213996
_cell_length_b   9.20213964
_cell_length_c   23.43297986
_cell_angle_alpha   90.00000000
_cell_angle_beta   90.00000000
_cell_angle_gamma   120.00000117
_symmetry_Int_Tables_number   1
_chemical_formula_structural   Na6Ca4Nb2Si3(SO6)6
_chemical_formula_sum   'Na12 Ca8 Nb4 Si6 S12 O72'
_cell_volume   1718.44564302
_cell_formula_units_Z   2
loop_
 _symmetry_equiv_pos_site_id
 _symmetry_equiv_pos_as_xyz
  1  'x, y, z'
loop_
 _atom_site_type_symbol
 _atom_site_label
 _atom_site_symmetry_multiplicity
 _atom_site_fract_x
 _atom_site_fract_y
 _atom_site_fract_z
 _atom_site_occupancy
  Na  Na0  1  0.99672935  0.69638868  0.91933560  1
  Na  Na1  1  0.69965833  0.00327065  0.91933560  1
  Na  Na2  1  0.30361132  0.30034167  0.91933560  1
  Na  Na3  1  0.99672935  0.30034167  0.41933560  1
  Na  Na4  1  0.30361132  0.00327065  0.41933560  1
  Na  Na5  1  0.69965833  0.69638868  0.41933560  1
  Na  Na6  1  0.00000000  0.00000000  0.49610300  1
  Na  Na7  1  0.00000000  0.00000000  0.99610300  1
  Na  Na8  1  0.66666700  0.33333300  0.82392497  1
  Na  Na9  1  0.66666700  0.33333300  0.32392497  1
  Na  Na10  1  0.33333300  0.66666700  0.16744577  1
  Na  Na11  1  0.33333300  0.66666700  0.66744577  1
  Ca  Ca12  1  0.00000000  0.00000000  0.34437458  1
  Ca  Ca13  1  0.00000000  0.00000000  0.84437458  1
  Ca  Ca14  1  0.00000000  0.00000000  0.64794417  1
  Ca  Ca15  1  0.00000000  0.00000000  0.14794417  1
  Ca  Ca16  1  0.66666700  0.33333300  0.68631863  1
  Ca  Ca17  1  0.66666700  0.33333300  0.18631863  1
  Ca  Ca18  1  0.33333300  0.66666700  0.01869299  1
  Ca  Ca19  1  0.33333300  0.66666700  0.51869299  1
  Nb  Nb20  1  0.66666700  0.33333300  0.97632672  1
  Nb  Nb21  1  0.66666700  0.33333300  0.47632672  1
  Nb  Nb22  1  0.33333300  0.66666700  0.32332624  1
  Nb  Nb23  1  0.33333300  0.66666700  0.82332624  1
  Si  Si24  1  0.62921187  0.66553746  0.91931401  1
  Si  Si25  1  0.03632460  0.37078813  0.91931401  1
  Si  Si26  1  0.33446254  0.96367540  0.91931401  1
  Si  Si27  1  0.62921187  0.96367540  0.41931401  1
  Si  Si28  1  0.33446254  0.37078813  0.41931401  1
  Si  Si29  1  0.03632460  0.66553746  0.41931401  1
  S  S30  1  0.30590292  0.98533499  0.25381543  1
  S  S31  1  0.67943206  0.69409708  0.25381543  1
  S  S32  1  0.01466501  0.32056794  0.25381543  1
  S  S33  1  0.30590292  0.32056794  0.75381543  1
  S  S34  1  0.01466501  0.69409708  0.75381543  1
  S  S35  1  0.67943206  0.98533499  0.75381543  1
  S  S36  1  0.94998587  0.32528775  0.58076735  1
  S  S37  1  0.37530288  0.05001413  0.58076735  1
  S  S38  1  0.67471225  0.62469712  0.58076735  1
  S  S39  1  0.94998587  0.62469712  0.08076735  1
  S  S40  1  0.67471225  0.05001413  0.08076735  1
  S  S41  1  0.37530288  0.32528775  0.08076735  1
  O  O42  1  0.23242153  0.00132251  0.30762270  1
  O  O43  1  0.76890098  0.76757847  0.30762270  1
  O  O44  1  0.99867749  0.23109902  0.30762270  1
  O  O45  1  0.23242153  0.23109902  0.80762270  1
  O  O46  1  0.99867749  0.76757847  0.80762270  1
  O  O47  1  0.76890098  0.00132251  0.80762270  1
  O  O48  1  0.76738423  0.97046725  0.70352868  1
  O  O49  1  0.20308302  0.23261577  0.70352868  1
  O  O50  1  0.02953275  0.79691698  0.70352868  1
  O  O51  1  0.76738423  0.79691698  0.20352868  1
  O  O52  1  0.02953275  0.23261577  0.20352868  1
  O  O53  1  0.20308302  0.97046725  0.20352868  1
  O  O54  1  0.85931655  0.32513134  0.63167460  1
  O  O55  1  0.46581579  0.14068345  0.63167460  1
  O  O56  1  0.67486866  0.53418421  0.63167460  1
  O  O57  1  0.85931655  0.53418421  0.13167460  1
  O  O58  1  0.67486866  0.14068345  0.13167460  1
  O  O59  1  0.46581579  0.32513134  0.13167460  1
  O  O60  1  0.47585345  0.32369852  0.02754464  1
  O  O61  1  0.84784607  0.52414655  0.02754464  1
  O  O62  1  0.67630148  0.15215393  0.02754464  1
  O  O63  1  0.47585345  0.15215393  0.52754464  1
  O  O64  1  0.67630148  0.52414655  0.52754464  1
  O  O65  1  0.84784607  0.32369852  0.52754464  1
  O  O66  1  0.56062036  0.72243423  0.97131814  1
  O  O67  1  0.16181288  0.43937964  0.97131814  1
  O  O68  1  0.27756577  0.83818712  0.97131814  1
  O  O69  1  0.56062036  0.83818712  0.47131814  1
  O  O70  1  0.27756577  0.43937964  0.47131814  1
  O  O71  1  0.16181288  0.72243423  0.47131814  1
  O  O72  1  0.13596298  0.62755036  0.36326874  1
  O  O73  1  0.49158638  0.86403702  0.36326874  1
  O  O74  1  0.37244964  0.50841362  0.36326874  1
  O  O75  1  0.13596298  0.50841362  0.86326874  1
  O  O76  1  0.37244964  0.86403702  0.86326874  1
  O  O77  1  0.49158638  0.62755036  0.86326874  1
  O  O78  1  0.98258938  0.80223706  0.40505619  1
  O  O79  1  0.81964768  0.01741062  0.40505619  1
  O  O80  1  0.19776294  0.18035232  0.40505619  1
  O  O81  1  0.98258938  0.18035232  0.90505619  1
  O  O82  1  0.19776294  0.01741062  0.90505619  1
  O  O83  1  0.81964768  0.80223706  0.90505619  1
  O  O84  1  0.95970499  0.16966344  0.57640984  1
  O  O85  1  0.20995845  0.04029501  0.57640984  1
  O  O86  1  0.83033656  0.79004155  0.57640984  1
  O  O87  1  0.95970499  0.79004155  0.07640984  1
  O  O88  1  0.83033656  0.04029501  0.07640984  1
  O  O89  1  0.20995845  0.16966344  0.07640984  1
  O  O90  1  0.65068052  0.12995796  0.74915346  1
  O  O91  1  0.47927844  0.34931948  0.74915346  1
  O  O92  1  0.87004204  0.52072156  0.74915346  1
  O  O93  1  0.65068052  0.52072156  0.24915346  1
  O  O94  1  0.87004204  0.34931948  0.24915346  1
  O  O95  1  0.47927844  0.12995796  0.24915346  1
  O  O96  1  0.61938655  0.47694394  0.92689588  1
  O  O97  1  0.85755839  0.38061345  0.92689588  1
  O  O98  1  0.52305606  0.14244161  0.92689588  1
  O  O99  1  0.61938655  0.14244161  0.42689588  1
  O  O100  1  0.52305606  0.38061345  0.42689588  1
  O  O101  1  0.85755839  0.47694394  0.42689588  1
  O  O102  1  0.36134903  0.47730083  0.07962734  1
  O  O103  1  0.11595080  0.63865097  0.07962734  1
  O  O104  1  0.52269917  0.88404920  0.07962734  1
  O  O105  1  0.36134903  0.88404920  0.57962734  1
  O  O106  1  0.52269917  0.63865097  0.57962734  1
  O  O107  1  0.11595080  0.47730083  0.57962734  1
  O  O108  1  0.31657437  0.82537724  0.25651536  1
  O  O109  1  0.50880188  0.68342563  0.25651536  1
  O  O110  1  0.17462276  0.49119812  0.25651536  1
  O  O111  1  0.31657437  0.49119812  0.75651536  1
  O  O112  1  0.17462276  0.68342563  0.75651536  1
  O  O113  1  0.50880188  0.82537724  0.75651536  1
