# generated using pymatgen
data_Na3Ca3TiPS5O24
_symmetry_space_group_name_H-M   'P 1'
_cell_length_a   9.13668322
_cell_length_b   9.11849475
_cell_length_c   23.55564840
_cell_angle_alpha   89.97496502
_cell_angle_beta   89.94450741
_cell_angle_gamma   120.49628777
_symmetry_Int_Tables_number   1
_chemical_formula_structural   Na3Ca3TiPS5O24
_chemical_formula_sum   'Na9 Ca9 Ti3 P3 S15 O72'
_cell_volume   1690.99876064
_cell_formula_units_Z   3
loop_
 _symmetry_equiv_pos_site_id
 _symmetry_equiv_pos_as_xyz
  1  'x, y, z'
loop_
 _atom_site_type_symbol
 _atom_site_label
 _atom_site_symmetry_multiplicity
 _atom_site_fract_x
 _atom_site_fract_y
 _atom_site_fract_z
 _atom_site_occupancy
  Na  Na0  1  0.36010334  0.35880999  0.25207441  1
  Na  Na1  1  0.03501282  0.70078115  0.58339434  1
  Na  Na2  1  0.29784070  0.96266691  0.07794665  1
  Na  Na3  1  0.98922359  0.00461226  0.49941907  1
  Na  Na4  1  0.99487091  0.00690052  0.99293382  1
  Na  Na5  1  0.66127308  0.33133820  0.82913969  1
  Na  Na6  1  0.68070696  0.32846263  0.33555342  1
  Na  Na7  1  0.33074758  0.66419858  0.17028877  1
  Na  Na8  1  0.36222186  0.66306278  0.66903434  1
  Ca  Ca9  1  0.99394010  0.99335281  0.35236210  1
  Ca  Ca10  1  0.00200671  0.00192216  0.85159394  1
  Ca  Ca11  1  0.99375767  0.00847115  0.65111510  1
  Ca  Ca12  1  0.98640449  0.99600055  0.14628411  1
  Ca  Ca13  1  0.65932075  0.32984529  0.68753058  1
  Ca  Ca14  1  0.68013716  0.33887497  0.18440153  1
  Ca  Ca15  1  0.33445612  0.65762791  0.01571961  1
  Ca  Ca16  1  0.34454522  0.66566018  0.51570145  1
  Ca  Ca17  1  0.33455017  0.67799647  0.32315453  1
  Ti  Ti18  1  0.67257743  0.32904834  0.97175643  1
  Ti  Ti19  1  0.66237834  0.34051710  0.48544047  1
  Ti  Ti20  1  0.31907215  0.66984310  0.82209523  1
  P  P21  1  0.67014047  0.62494236  0.58256391  1
  P  P22  1  0.03417151  0.37739169  0.91751280  1
  P  P23  1  0.34200255  0.96408604  0.92009521  1
  S  S24  1  0.29779810  0.99918769  0.24724727  1
  S  S25  1  0.69190697  0.69504404  0.25041386  1
  S  S26  1  0.00603492  0.30224349  0.25102097  1
  S  S27  1  0.30109677  0.31906922  0.75476457  1
  S  S28  1  0.01335837  0.69861033  0.75275003  1
  S  S29  1  0.68193132  0.98382437  0.75508643  1
  S  S30  1  0.94937050  0.33260671  0.57954990  1
  S  S31  1  0.37410495  0.04393271  0.57991030  1
  S  S32  1  0.95677320  0.62474070  0.07744062  1
  S  S33  1  0.66835980  0.05148096  0.07694582  1
  S  S34  1  0.38251242  0.33063212  0.08068869  1
  S  S35  1  0.62258292  0.65224191  0.91698639  1
  S  S36  1  0.63960359  0.98825306  0.42043227  1
  S  S37  1  0.34546418  0.36029056  0.41836530  1
  S  S38  1  0.01715889  0.65467077  0.42291857  1
  O  O39  1  0.20651076  0.01482530  0.29678411  1
  O  O40  1  0.79037058  0.77987032  0.30159911  1
  O  O41  1  0.99119188  0.20233309  0.30213064  1
  O  O42  1  0.21561891  0.20796043  0.80324378  1
  O  O43  1  0.99018581  0.78748577  0.80017174  1
  O  O44  1  0.79207998  0.00837652  0.80347089  1
  O  O45  1  0.74962547  0.95483666  0.70157840  1
  O  O46  1  0.20393505  0.24943200  0.70136555  1
  O  O47  1  0.04473901  0.79201419  0.69820502  1
  O  O48  1  0.77495594  0.79098764  0.19828722  1
  O  O49  1  0.02222248  0.21903495  0.19906640  1
  O  O50  1  0.20542482  0.98479623  0.19348612  1
  O  O51  1  0.87260122  0.34810762  0.63214637  1
  O  O52  1  0.46817301  0.11813272  0.63227801  1
  O  O53  1  0.66140076  0.52751562  0.63546989  1
  O  O54  1  0.87950713  0.53613542  0.13071415  1
  O  O55  1  0.65225820  0.12985754  0.12930872  1
  O  O56  1  0.46759225  0.34156054  0.13532073  1
  O  O57  1  0.48258519  0.32083290  0.03141065  1
  O  O58  1  0.85257988  0.52563586  0.02731290  1
  O  O59  1  0.67818297  0.15834543  0.02600706  1
  O  O60  1  0.47418249  0.15000801  0.52911836  1
  O  O61  1  0.67228284  0.50802908  0.52912709  1
  O  O62  1  0.84061435  0.32054602  0.52898554  1
  O  O63  1  0.55327598  0.67695119  0.96944875  1
  O  O64  1  0.13292899  0.45211458  0.97073436  1
  O  O65  1  0.32249125  0.87182352  0.97538502  1
  O  O66  1  0.55416557  0.87885969  0.46947969  1
  O  O67  1  0.32228366  0.44906190  0.46618555  1
  O  O68  1  0.11940303  0.67723573  0.47396645  1
  O  O69  1  0.09208306  0.62621818  0.37149141  1
  O  O70  1  0.54064519  0.91638365  0.36759442  1
  O  O71  1  0.37657264  0.45643503  0.36445918  1
  O  O72  1  0.13358981  0.50259940  0.86508623  1
  O  O73  1  0.36362215  0.86042094  0.86830594  1
  O  O74  1  0.51111279  0.62702876  0.86703365  1
  O  O75  1  0.99259009  0.80166804  0.41692177  1
  O  O76  1  0.81215768  0.01228147  0.41585219  1
  O  O77  1  0.19848401  0.18625416  0.41489984  1
  O  O78  1  0.99468463  0.19752037  0.90704233  1
  O  O79  1  0.19849480  0.99694750  0.90892187  1
  O  O80  1  0.79636124  0.79487021  0.90918576  1
  O  O81  1  0.96661735  0.18012338  0.57899197  1
  O  O82  1  0.20599724  0.03348859  0.57984635  1
  O  O83  1  0.84381305  0.79371109  0.57729640  1
  O  O84  1  0.97357923  0.79727319  0.07646156  1
  O  O85  1  0.82175517  0.03671950  0.07652229  1
  O  O86  1  0.21353646  0.16712337  0.07952688  1
  O  O87  1  0.65705831  0.13183638  0.75023520  1
  O  O88  1  0.47471276  0.34513959  0.75040923  1
  O  O89  1  0.86878096  0.52264864  0.74954986  1
  O  O90  1  0.66780748  0.51980308  0.24878459  1
  O  O91  1  0.85673510  0.32471038  0.24865938  1
  O  O92  1  0.46724072  0.16030010  0.24656309  1
  O  O93  1  0.63206264  0.48866374  0.92292866  1
  O  O94  1  0.85414076  0.37119412  0.92407672  1
  O  O95  1  0.51671108  0.14644172  0.92459280  1
  O  O96  1  0.65509079  0.15994921  0.42856063  1
  O  O97  1  0.50301787  0.34602768  0.42842464  1
  O  O98  1  0.84270246  0.49510778  0.42967185  1
  O  O99  1  0.35844954  0.47788894  0.07749823  1
  O  O100  1  0.13256898  0.65287347  0.07609268  1
  O  O101  1  0.51162230  0.88167638  0.07425927  1
  O  O102  1  0.34429435  0.86861852  0.57435108  1
  O  O103  1  0.51678439  0.64665128  0.57689545  1
  O  O104  1  0.11728367  0.49116429  0.57389945  1
  O  O105  1  0.31942477  0.84926242  0.25195371  1
  O  O106  1  0.51711016  0.67188816  0.25309871  1
  O  O107  1  0.16703624  0.47232449  0.25397581  1
  O  O108  1  0.31653952  0.49188276  0.76436405  1
  O  O109  1  0.17440837  0.68780960  0.76398786  1
  O  O110  1  0.50846618  0.82508821  0.76497223  1
