# generated using pymatgen
data_Lu(BH4)3
_symmetry_space_group_name_H-M   'P 1'
_cell_length_a   10.76574200
_cell_length_b   10.76574200
_cell_length_c   10.76574200
_cell_angle_alpha   90.00000000
_cell_angle_beta   90.00000000
_cell_angle_gamma   90.00000000
_symmetry_Int_Tables_number   1
_chemical_formula_structural   Lu(BH4)3
_chemical_formula_sum   'Lu8 B24 H96'
_cell_volume   1247.76242542
_cell_formula_units_Z   8
loop_
 _symmetry_equiv_pos_site_id
 _symmetry_equiv_pos_as_xyz
  1  'x, y, z'
loop_
 _atom_site_type_symbol
 _atom_site_label
 _atom_site_symmetry_multiplicity
 _atom_site_fract_x
 _atom_site_fract_y
 _atom_site_fract_z
 _atom_site_occupancy
  Lu  Lu0  1  0.00000000  0.00000000  0.00000000  1
  Lu  Lu1  1  0.00000000  0.00000000  0.50000000  1
  Lu  Lu2  1  0.50000000  0.50000000  0.00000000  1
  Lu  Lu3  1  0.50000000  0.50000000  0.50000000  1
  Lu  Lu4  1  0.50000000  0.00000000  0.50000000  1
  Lu  Lu5  1  0.50000000  0.00000000  0.00000000  1
  Lu  Lu6  1  0.00000000  0.50000000  0.50000000  1
  Lu  Lu7  1  0.00000000  0.50000000  0.00000000  1
  B  B8  1  0.00000000  0.00000000  0.25000000  1
  B  B9  1  0.00000000  0.00000000  0.75000000  1
  B  B10  1  0.00000000  0.25000000  0.00000000  1
  B  B11  1  0.00000000  0.75000000  0.00000000  1
  B  B12  1  0.25000000  0.00000000  0.00000000  1
  B  B13  1  0.75000000  0.00000000  0.00000000  1
  B  B14  1  0.25000000  0.00000000  0.50000000  1
  B  B15  1  0.75000000  0.00000000  0.50000000  1
  B  B16  1  0.00000000  0.25000000  0.50000000  1
  B  B17  1  0.00000000  0.75000000  0.50000000  1
  B  B18  1  0.50000000  0.50000000  0.25000000  1
  B  B19  1  0.50000000  0.50000000  0.75000000  1
  B  B20  1  0.50000000  0.75000000  0.00000000  1
  B  B21  1  0.50000000  0.25000000  0.00000000  1
  B  B22  1  0.75000000  0.50000000  0.00000000  1
  B  B23  1  0.25000000  0.50000000  0.00000000  1
  B  B24  1  0.75000000  0.50000000  0.50000000  1
  B  B25  1  0.25000000  0.50000000  0.50000000  1
  B  B26  1  0.50000000  0.75000000  0.50000000  1
  B  B27  1  0.50000000  0.25000000  0.50000000  1
  B  B28  1  0.50000000  0.00000000  0.75000000  1
  B  B29  1  0.50000000  0.00000000  0.25000000  1
  B  B30  1  0.00000000  0.50000000  0.75000000  1
  B  B31  1  0.00000000  0.50000000  0.25000000  1
  H  H32  1  0.00000000  0.40468900  0.31286500  1
  H  H33  1  0.00000000  0.59531100  0.68713500  1
  H  H34  1  0.00000000  0.40468900  0.68713500  1
  H  H35  1  0.00000000  0.59531100  0.31286500  1
  H  H36  1  0.40468900  0.31286500  0.00000000  1
  H  H37  1  0.59531100  0.68713500  0.00000000  1
  H  H38  1  0.40468900  0.68713500  0.00000000  1
  H  H39  1  0.59531100  0.31286500  0.00000000  1
  H  H40  1  0.31286500  0.00000000  0.40468900  1
  H  H41  1  0.68713500  0.00000000  0.59531100  1
  H  H42  1  0.68713500  0.00000000  0.40468900  1
  H  H43  1  0.31286500  0.00000000  0.59531100  1
  H  H44  1  0.40468900  0.00000000  0.81286500  1
  H  H45  1  0.59531100  0.00000000  0.18713500  1
  H  H46  1  0.40468900  0.00000000  0.18713500  1
  H  H47  1  0.59531100  0.00000000  0.81286500  1
  H  H48  1  0.31286500  0.40468900  0.50000000  1
  H  H49  1  0.68713500  0.59531100  0.50000000  1
  H  H50  1  0.68713500  0.40468900  0.50000000  1
  H  H51  1  0.31286500  0.59531100  0.50000000  1
  H  H52  1  0.00000000  0.31286500  0.90468900  1
  H  H53  1  0.00000000  0.68713500  0.09531100  1
  H  H54  1  0.00000000  0.68713500  0.90468900  1
  H  H55  1  0.00000000  0.31286500  0.09531100  1
  H  H56  1  0.50000000  0.90468900  0.31286500  1
  H  H57  1  0.50000000  0.09531100  0.68713500  1
  H  H58  1  0.50000000  0.90468900  0.68713500  1
  H  H59  1  0.50000000  0.09531100  0.31286500  1
  H  H60  1  0.90468900  0.81286500  0.00000000  1
  H  H61  1  0.09531100  0.18713500  0.00000000  1
  H  H62  1  0.90468900  0.18713500  0.00000000  1
  H  H63  1  0.09531100  0.81286500  0.00000000  1
  H  H64  1  0.81286500  0.50000000  0.40468900  1
  H  H65  1  0.18713500  0.50000000  0.59531100  1
  H  H66  1  0.18713500  0.50000000  0.40468900  1
  H  H67  1  0.81286500  0.50000000  0.59531100  1
  H  H68  1  0.90468900  0.50000000  0.81286500  1
  H  H69  1  0.09531100  0.50000000  0.18713500  1
  H  H70  1  0.90468900  0.50000000  0.18713500  1
  H  H71  1  0.09531100  0.50000000  0.81286500  1
  H  H72  1  0.81286500  0.90468900  0.50000000  1
  H  H73  1  0.18713500  0.09531100  0.50000000  1
  H  H74  1  0.18713500  0.90468900  0.50000000  1
  H  H75  1  0.81286500  0.09531100  0.50000000  1
  H  H76  1  0.50000000  0.81286500  0.90468900  1
  H  H77  1  0.50000000  0.18713500  0.09531100  1
  H  H78  1  0.50000000  0.18713500  0.90468900  1
  H  H79  1  0.50000000  0.81286500  0.09531100  1
  H  H80  1  0.50000000  0.40468900  0.81286500  1
  H  H81  1  0.50000000  0.59531100  0.18713500  1
  H  H82  1  0.50000000  0.40468900  0.18713500  1
  H  H83  1  0.50000000  0.59531100  0.81286500  1
  H  H84  1  0.90468900  0.31286500  0.50000000  1
  H  H85  1  0.09531100  0.68713500  0.50000000  1
  H  H86  1  0.90468900  0.68713500  0.50000000  1
  H  H87  1  0.09531100  0.31286500  0.50000000  1
  H  H88  1  0.81286500  0.00000000  0.90468900  1
  H  H89  1  0.18713500  0.00000000  0.09531100  1
  H  H90  1  0.18713500  0.00000000  0.90468900  1
  H  H91  1  0.81286500  0.00000000  0.09531100  1
  H  H92  1  0.90468900  0.00000000  0.31286500  1
  H  H93  1  0.09531100  0.00000000  0.68713500  1
  H  H94  1  0.90468900  0.00000000  0.68713500  1
  H  H95  1  0.09531100  0.00000000  0.31286500  1
  H  H96  1  0.81286500  0.40468900  0.00000000  1
  H  H97  1  0.18713500  0.59531100  0.00000000  1
  H  H98  1  0.18713500  0.40468900  0.00000000  1
  H  H99  1  0.81286500  0.59531100  0.00000000  1
  H  H100  1  0.50000000  0.31286500  0.40468900  1
  H  H101  1  0.50000000  0.68713500  0.59531100  1
  H  H102  1  0.50000000  0.68713500  0.40468900  1
  H  H103  1  0.50000000  0.31286500  0.59531100  1
  H  H104  1  0.00000000  0.90468900  0.81286500  1
  H  H105  1  0.00000000  0.09531100  0.18713500  1
  H  H106  1  0.00000000  0.90468900  0.18713500  1
  H  H107  1  0.00000000  0.09531100  0.81286500  1
  H  H108  1  0.40468900  0.81286500  0.50000000  1
  H  H109  1  0.59531100  0.18713500  0.50000000  1
  H  H110  1  0.40468900  0.18713500  0.50000000  1
  H  H111  1  0.59531100  0.81286500  0.50000000  1
  H  H112  1  0.31286500  0.50000000  0.90468900  1
  H  H113  1  0.68713500  0.50000000  0.09531100  1
  H  H114  1  0.68713500  0.50000000  0.90468900  1
  H  H115  1  0.31286500  0.50000000  0.09531100  1
  H  H116  1  0.40468900  0.50000000  0.31286500  1
  H  H117  1  0.59531100  0.50000000  0.68713500  1
  H  H118  1  0.40468900  0.50000000  0.68713500  1
  H  H119  1  0.59531100  0.50000000  0.31286500  1
  H  H120  1  0.31286500  0.90468900  0.00000000  1
  H  H121  1  0.68713500  0.09531100  0.00000000  1
  H  H122  1  0.68713500  0.90468900  0.00000000  1
  H  H123  1  0.31286500  0.09531100  0.00000000  1
  H  H124  1  0.00000000  0.81286500  0.40468900  1
  H  H125  1  0.00000000  0.18713500  0.59531100  1
  H  H126  1  0.00000000  0.18713500  0.40468900  1
  H  H127  1  0.00000000  0.81286500  0.59531100  1
