# generated using pymatgen
data_NaMgFe5O8
_symmetry_space_group_name_H-M   'P 1'
_cell_length_a   6.35613624
_cell_length_b   6.20447968
_cell_length_c   6.19871041
_cell_angle_alpha   61.65553853
_cell_angle_beta   90.37570375
_cell_angle_gamma   120.87259289
_symmetry_Int_Tables_number   1
_chemical_formula_structural   NaMgFe5O8
_chemical_formula_sum   'Na1 Mg1 Fe5 O8'
_cell_volume   175.33462535
_cell_formula_units_Z   1
loop_
 _symmetry_equiv_pos_site_id
 _symmetry_equiv_pos_as_xyz
  1  'x, y, z'
loop_
 _atom_site_type_symbol
 _atom_site_label
 _atom_site_symmetry_multiplicity
 _atom_site_fract_x
 _atom_site_fract_y
 _atom_site_fract_z
 _atom_site_occupancy
  Na  Na0  1  0.69651393  0.77980063  0.69651393  1
  Mg  Mg1  1  0.46077938  0.52217140  0.46077938  1
  Fe  Fe2  1  0.58536962  0.22824942  0.16754762  1
  Fe  Fe3  1  0.04064141  0.97790757  0.04064141  1
  Fe  Fe4  1  0.68233024  0.22671329  0.68233024  1
  Fe  Fe5  1  0.14705312  0.53020689  0.14705311  1
  Fe  Fe6  1  0.16754762  0.81042742  0.58536962  1
  O  O7  1  0.80607033  0.22516092  0.39879889  1
  O  O8  1  0.33234007  0.25791711  0.33234007  1
  O  O9  1  0.89984138  0.21985639  0.89984138  1
  O  O10  1  0.84614675  0.69559396  0.41942818  1
  O  O11  1  0.92959648  0.70591992  0.92959748  1
  O  O12  1  0.41942717  0.26887438  0.84614775  1
  O  O13  1  0.33754262  0.77497723  0.33754161  1
  O  O14  1  0.39879989  0.81789048  0.80606933  1
