# generated using pymatgen
data_BiTeCl
_symmetry_space_group_name_H-M   'P 1'
_cell_length_a   4.28365172
_cell_length_b   4.28365064
_cell_length_c   13.09041388
_cell_angle_alpha   90.00000000
_cell_angle_beta   90.00000000
_cell_angle_gamma   119.99999215
_symmetry_Int_Tables_number   1
_chemical_formula_structural   BiTeCl
_chemical_formula_sum   'Bi2 Te2 Cl2'
_cell_volume   208.02342456
_cell_formula_units_Z   2
loop_
 _symmetry_equiv_pos_site_id
 _symmetry_equiv_pos_as_xyz
  1  'x, y, z'
loop_
 _atom_site_type_symbol
 _atom_site_label
 _atom_site_symmetry_multiplicity
 _atom_site_fract_x
 _atom_site_fract_y
 _atom_site_fract_z
 _atom_site_occupancy
  Bi  Bi0  1  0.33333300  0.66666700  0.13695945  1
  Bi  Bi1  1  0.66666700  0.33333300  0.63695945  1
  Te  Te2  1  0.66666700  0.33333300  0.27019018  1
  Te  Te3  1  0.33333300  0.66666700  0.77019018  1
  Cl  Cl4  1  -0.00000000  -0.00000000  0.01094938  1
  Cl  Cl5  1  0.00000000  0.00000000  0.51094938  1
