# generated using pymatgen
data_Na3HfZrSi2PO12
_symmetry_space_group_name_H-M   'P 1'
_cell_length_a   15.90440851
_cell_length_b   9.16365736
_cell_length_c   9.15142695
_cell_angle_alpha   89.98448477
_cell_angle_beta   124.87576468
_cell_angle_gamma   90.00580608
_symmetry_Int_Tables_number   1
_chemical_formula_structural   Na3HfZrSi2PO12
_chemical_formula_sum   'Na12 Hf4 Zr4 Si8 P4 O48'
_cell_volume   1094.20209282
_cell_formula_units_Z   4
loop_
 _symmetry_equiv_pos_site_id
 _symmetry_equiv_pos_as_xyz
  1  'x, y, z'
loop_
 _atom_site_type_symbol
 _atom_site_label
 _atom_site_symmetry_multiplicity
 _atom_site_fract_x
 _atom_site_fract_y
 _atom_site_fract_z
 _atom_site_occupancy
  Na  Na0  1  0.24176923  0.77816757  0.99520681  1
  Na  Na1  1  0.74123506  0.72322610  0.49418089  1
  Na  Na2  1  0.74089109  0.27730325  0.99398528  1
  Na  Na3  1  0.24191237  0.22266907  0.49516432  1
  Na  Na4  1  0.50273847  0.11124479  0.75098011  1
  Na  Na5  1  0.50319072  0.88671542  0.25315666  1
  Na  Na6  1  0.00279488  0.61172967  0.75104398  1
  Na  Na7  1  0.00376498  0.39051100  0.25345917  1
  Na  Na8  1  0.80661340  0.93749690  0.21176485  1
  Na  Na9  1  0.80708372  0.06218523  0.71220152  1
  Na  Na10  1  0.30850828  0.43736182  0.21521930  1
  Na  Na11  1  0.30707146  0.56339186  0.71070386  1
  Hf  Hf12  1  0.10552246  0.75067804  0.56023356  1
  Hf  Hf13  1  0.60585170  0.25017989  0.56065159  1
  Hf  Hf14  1  0.39582329  0.75524791  0.43704566  1
  Hf  Hf15  1  0.60535033  0.74975944  0.06022799  1
  Zr  Zr16  1  0.89520847  0.74423059  0.93633255  1
  Zr  Zr17  1  0.89473285  0.25592349  0.43587051  1
  Zr  Zr18  1  0.10586499  0.24951817  0.06041104  1
  Zr  Zr19  1  0.39486367  0.24339322  0.93590538  1
  Si  Si20  1  0.35514388  0.89357302  0.75824111  1
  Si  Si21  1  0.64755141  0.89726354  0.74381843  1
  Si  Si22  1  0.64793781  0.10251581  0.24397523  1
  Si  Si23  1  0.35600983  0.10374476  0.26120239  1
  Si  Si24  1  0.85424164  0.39439131  0.76031068  1
  Si  Si25  1  0.14862949  0.39801764  0.74262904  1
  Si  Si26  1  0.14909253  0.60461051  0.24432491  1
  Si  Si27  1  0.85476502  0.60605869  0.26046571  1
  P  P28  1  0.00103600  0.95780946  0.74377665  1
  P  P29  1  0.00106953  0.04047789  0.24602856  1
  P  P30  1  0.50204997  0.46081445  0.74551774  1
  P  P31  1  0.50161739  0.54044247  0.24664060  1
  O  O32  1  0.15335906  0.57844708  0.74360702  1
  O  O33  1  0.84957298  0.57322577  0.75205520  1
  O  O34  1  0.84946795  0.42706910  0.25235968  1
  O  O35  1  0.15435249  0.42392637  0.24654495  1
  O  O36  1  0.65226698  0.07798387  0.74343793  1
  O  O37  1  0.35076100  0.07286771  0.75210571  1
  O  O38  1  0.35138099  0.92471642  0.25683737  1
  O  O39  1  0.65186976  0.92185813  0.24343699  1
  O  O40  1  0.43869909  0.55281807  0.57343477  1
  O  O41  1  0.56049827  0.56258570  0.90820832  1
  O  O42  1  0.56020795  0.43730009  0.40803073  1
  O  O43  1  0.43602165  0.45004475  0.07379723  1
  O  O44  1  0.93885793  0.04932161  0.57225069  1
  O  O45  1  0.05891169  0.05951184  0.90743912  1
  O  O46  1  0.05737995  0.93702414  0.40754067  1
  O  O47  1  0.93961697  0.95088091  0.07265522  1
  O  O48  1  0.25638232  0.82034450  0.74140828  1
  O  O49  1  0.74829670  0.83915989  0.75380355  1
  O  O50  1  0.74822093  0.16093750  0.25307814  1
  O  O51  1  0.25845585  0.17949361  0.24627546  1
  O  O52  1  0.75641197  0.31922557  0.74402829  1
  O  O53  1  0.24844868  0.33849067  0.75106733  1
  O  O54  1  0.25042517  0.66301194  0.25621787  1
  O  O55  1  0.75648094  0.68090496  0.24341388  1
  O  O56  1  0.36085636  0.83948827  0.59282009  1
  O  O57  1  0.64840846  0.85535403  0.92018294  1
  O  O58  1  0.64865379  0.14543072  0.41977028  1
  O  O59  1  0.35957167  0.15577580  0.09273204  1
  O  O60  1  0.86008047  0.33876351  0.59555341  1
  O  O61  1  0.15052915  0.35505087  0.91977962  1
  O  O62  1  0.14800726  0.64739364  0.41833291  1
  O  O63  1  0.85996415  0.66028187  0.09436442  1
  O  O64  1  0.46102312  0.83522699  0.94051029  1
  O  O65  1  0.54186875  0.83504845  0.56518820  1
  O  O66  1  0.54283914  0.16471220  0.06428887  1
  O  O67  1  0.46213156  0.16345051  0.44095022  1
  O  O68  1  0.96055493  0.33795420  0.94353309  1
  O  O69  1  0.04264216  0.33693676  0.56447156  1
  O  O70  1  0.04365157  0.66427644  0.06337401  1
  O  O71  1  0.96153939  0.66285276  0.44203676  1
  O  O72  1  0.07903862  0.85617267  0.74468886  1
  O  O73  1  0.92280640  0.86202538  0.75111940  1
  O  O74  1  0.92268250  0.13639718  0.25245659  1
  O  O75  1  0.08011705  0.14291507  0.25012333  1
  O  O76  1  0.57869853  0.35866494  0.74303588  1
  O  O77  1  0.42449085  0.36472667  0.75462483  1
  O  O78  1  0.42545927  0.63760532  0.25925956  1
  O  O79  1  0.57810164  0.64169262  0.24309235  1
