# generated using pymatgen
data_GeH3Cl
_symmetry_space_group_name_H-M   'P 1'
_cell_length_a   4.58631738
_cell_length_b   4.58631886
_cell_length_c   8.35736286
_cell_angle_alpha   90.00000000
_cell_angle_beta   90.00000000
_cell_angle_gamma   104.82594309
_symmetry_Int_Tables_number   1
_chemical_formula_structural   GeH3Cl
_chemical_formula_sum   'Ge2 H6 Cl2'
_cell_volume   169.93888118
_cell_formula_units_Z   2
loop_
 _symmetry_equiv_pos_site_id
 _symmetry_equiv_pos_as_xyz
  1  'x, y, z'
loop_
 _atom_site_type_symbol
 _atom_site_label
 _atom_site_symmetry_multiplicity
 _atom_site_fract_x
 _atom_site_fract_y
 _atom_site_fract_z
 _atom_site_occupancy
  Ge  Ge0  1  0.55854033  0.55854033  0.95141039  1
  Ge  Ge1  1  0.44145967  0.44145967  0.45141039  1
  H  H2  1  0.20960944  0.55968652  0.54211527  1
  H  H3  1  0.79039056  0.44031348  0.04211527  1
  H  H4  1  0.44031348  0.79039056  0.04211527  1
  H  H5  1  0.55968652  0.20960944  0.54211527  1
  H  H6  1  0.68297844  0.68297844  0.36940422  1
  H  H7  1  0.31702156  0.31702156  0.86940422  1
  Cl  Cl8  1  0.81800178  0.81800178  0.75212084  1
  Cl  Cl9  1  0.18199822  0.18199822  0.25212084  1
