# generated using pymatgen
data_Na10Zr6Zn2Si7S5O48
_symmetry_space_group_name_H-M   'P 1'
_cell_length_a   18.26676525
_cell_length_b   9.15329492
_cell_length_c   23.03024201
_cell_angle_alpha   90.07314497
_cell_angle_beta   90.06269879
_cell_angle_gamma   120.09695227
_symmetry_Int_Tables_number   1
_chemical_formula_structural   Na10Zr6Zn2Si7S5O48
_chemical_formula_sum   'Na30 Zr18 Zn6 Si21 S15 O144'
_cell_volume   3331.51592812
_cell_formula_units_Z   3
loop_
 _symmetry_equiv_pos_site_id
 _symmetry_equiv_pos_as_xyz
  1  'x, y, z'
loop_
 _atom_site_type_symbol
 _atom_site_label
 _atom_site_symmetry_multiplicity
 _atom_site_fract_x
 _atom_site_fract_y
 _atom_site_fract_z
 _atom_site_occupancy
  Na  Na0  1  0.81720010  0.01140994  0.24742697  1
  Na  Na1  1  0.18788457  0.37487644  0.24615082  1
  Na  Na2  1  0.68980537  0.36129889  0.25145541  1
  Na  Na3  1  0.99233167  0.61527275  0.25155226  1
  Na  Na4  1  0.49453194  0.63446517  0.24460365  1
  Na  Na5  1  0.31825915  0.62160719  0.74778559  1
  Na  Na6  1  0.99463626  0.35351355  0.74623826  1
  Na  Na7  1  0.49164763  0.37195640  0.75068406  1
  Na  Na8  1  0.19229515  0.02268224  0.74705874  1
  Na  Na9  1  0.68676222  0.99778758  0.74685382  1
  Na  Na10  1  0.14832127  0.32728870  0.58163549  1
  Na  Na11  1  0.01618181  0.69429085  0.58387892  1
  Na  Na12  1  0.48765716  0.66460320  0.91795689  1
  Na  Na13  1  0.99141493  0.67605585  0.92006402  1
  Na  Na14  1  0.84907236  0.02597969  0.91427639  1
  Na  Na15  1  0.49163194  0.30941011  0.41973480  1
  Na  Na16  1  0.16402523  0.02483963  0.41902912  1
  Na  Na17  1  0.35032657  0.66898060  0.41335168  1
  Na  Na18  1  0.99671190  0.00334014  0.49969392  1
  Na  Na19  1  0.51081201  0.00934009  0.49552974  1
  Na  Na20  1  0.00936599  0.01132825  0.99579759  1
  Na  Na21  1  0.50278512  0.00975843  0.00052918  1
  Na  Na22  1  0.32874934  0.31797353  0.82899574  1
  Na  Na23  1  0.83100202  0.33357991  0.83021770  1
  Na  Na24  1  0.33622943  0.33883692  0.32983844  1
  Na  Na25  1  0.83184646  0.33852861  0.33073948  1
  Na  Na26  1  0.17363457  0.67023275  0.16129910  1
  Na  Na27  1  0.66239228  0.67088247  0.16347400  1
  Na  Na28  1  0.16969637  0.67509881  0.66451474  1
  Na  Na29  1  0.67215418  0.67692343  0.66167466  1
  Zr  Zr30  1  0.99504671  0.99775174  0.35325304  1
  Zr  Zr31  1  0.50517335  0.99268727  0.35422139  1
  Zr  Zr32  1  0.00354897  0.01596765  0.85472524  1
  Zr  Zr33  1  0.49882007  0.00265545  0.85322876  1
  Zr  Zr34  1  0.99660393  0.01219365  0.64647450  1
  Zr  Zr35  1  0.49797635  0.99211000  0.64826100  1
  Zr  Zr36  1  0.99740746  0.00440535  0.14746078  1
  Zr  Zr37  1  0.49473820  0.97524844  0.14602217  1
  Zr  Zr38  1  0.33456314  0.32454266  0.98115830  1
  Zr  Zr39  1  0.83188259  0.33705314  0.97852539  1
  Zr  Zr40  1  0.33131608  0.32581979  0.48095330  1
  Zr  Zr41  1  0.83507731  0.33917603  0.47848909  1
  Zr  Zr42  1  0.66112583  0.66059511  0.01620339  1
  Zr  Zr43  1  0.16475680  0.67168789  0.51616622  1
  Zr  Zr44  1  0.16885944  0.66349329  0.31653899  1
  Zr  Zr45  1  0.66568486  0.66295787  0.31662388  1
  Zr  Zr46  1  0.16620467  0.66920670  0.81717639  1
  Zr  Zr47  1  0.67001786  0.67415416  0.81652816  1
  Zn  Zn48  1  0.32945659  0.31869131  0.68931205  1
  Zn  Zn49  1  0.83753018  0.31326435  0.67795142  1
  Zn  Zn50  1  0.33893133  0.35941948  0.17728317  1
  Zn  Zn51  1  0.83391895  0.33495357  0.19033029  1
  Zn  Zn52  1  0.15883548  0.66818025  0.01108882  1
  Zn  Zn53  1  0.65744272  0.64967809  0.51059849  1
  Si  Si54  1  0.64793565  0.00038480  0.24858404  1
  Si  Si55  1  0.35098470  0.70043784  0.25101863  1
  Si  Si56  1  0.85253647  0.70571720  0.24898842  1
  Si  Si57  1  0.00052218  0.29599539  0.24950955  1
  Si  Si58  1  0.14794802  0.29723953  0.74919057  1
  Si  Si59  1  0.49964241  0.70308128  0.75039408  1
  Si  Si60  1  0.35265147  -0.00105648  0.74964481  1
  Si  Si61  1  0.85085277  0.00071497  0.75078188  1
  Si  Si62  1  0.97983896  0.33644431  0.58436252  1
  Si  Si63  1  0.18708902  0.03767113  0.58726405  1
  Si  Si64  1  0.48162458  0.62438680  0.08403700  1
  Si  Si65  1  0.81230480  0.66822859  0.91765252  1
  Si  Si66  1  0.02356952  0.37775894  0.92026274  1
  Si  Si67  1  0.51940844  0.37044240  0.91469248  1
  Si  Si68  1  0.16747031  0.96126185  0.91780362  1
  Si  Si69  1  0.66515278  0.95943261  0.91713029  1
  Si  Si70  1  0.31386673  0.95841587  0.41641318  1
  Si  Si71  1  0.16520076  0.37120404  0.41863805  1
  Si  Si72  1  0.66735556  0.37422703  0.41764179  1
  Si  Si73  1  0.01803937  0.66489243  0.41420434  1
  Si  Si74  1  0.52273614  0.66878735  0.41993543  1
  S  S75  1  0.14632598  0.00189812  0.24911723  1
  S  S76  1  0.49762413  0.28825033  0.25021560  1
  S  S77  1  0.64664843  0.29109930  0.74874230  1
  S  S78  1  0.99726099  0.70491134  0.75029401  1
  S  S79  1  0.48263669  0.33641731  0.58577961  1
  S  S80  1  0.68672023  0.03760790  0.58444764  1
  S  S81  1  0.33510614  0.62777633  0.58412856  1
  S  S82  1  0.82922932  0.61828085  0.58577850  1
  S  S83  1  0.98119027  0.62649140  0.08588862  1
  S  S84  1  0.33089377  0.03857020  0.08633008  1
  S  S85  1  0.83341675  0.04175238  0.08447141  1
  S  S86  1  0.18669131  0.33588130  0.08472045  1
  S  S87  1  0.68794615  0.33474974  0.08599389  1
  S  S88  1  0.31192567  0.66546600  0.91887823  1
  S  S89  1  0.81107962  0.95724268  0.41895276  1
  O  O90  1  0.10717359  0.02781112  0.30248328  1
  O  O91  1  0.60358371  0.03460496  0.30448888  1
  O  O92  1  0.41075366  0.79100069  0.30789174  1
  O  O93  1  0.91438856  0.79854361  0.30493345  1
  O  O94  1  0.48969848  0.19234583  0.30382275  1
  O  O95  1  0.98780232  0.17239917  0.30466420  1
  O  O96  1  0.09971762  0.16979871  0.80308919  1
  O  O97  1  0.60631678  0.18341340  0.80094511  1
  O  O98  1  0.48744616  0.79686519  0.80754546  1
  O  O99  1  0.98963185  0.78862439  0.80275560  1
  O  O100  1  0.41443582  0.02409405  0.80484928  1
  O  O101  1  0.91014848  0.03063121  0.80792528  1
  O  O102  1  0.40039872  0.96831378  0.69335024  1
  O  O103  1  0.89907590  0.97760577  0.69451122  1
  O  O104  1  0.08789678  0.21059149  0.69103724  1
  O  O105  1  0.59134944  0.20884917  0.69708580  1
  O  O106  1  0.01149686  0.81008902  0.69765188  1
  O  O107  1  0.51839987  0.83720449  0.69557023  1
  O  O108  1  0.39852820  0.81961760  0.19434856  1
  O  O109  1  0.90066477  0.83431370  0.19344801  1
  O  O110  1  0.01911393  0.20329962  0.19369742  1
  O  O111  1  0.51262916  0.20963568  0.19906952  1
  O  O112  1  0.09001585  0.97463503  0.19824168  1
  O  O113  1  0.58432206  0.96635312  0.19331113  1
  O  O114  1  0.44088470  0.35365980  0.63760805  1
  O  O115  1  0.94607032  0.38028385  0.64330140  1
  O  O116  1  0.24117074  0.12635315  0.64437964  1
  O  O117  1  0.73356777  0.11753210  0.63931394  1
  O  O118  1  0.32441201  0.52831543  0.63614874  1
  O  O119  1  0.81857213  0.51565525  0.63746512  1
  O  O120  1  0.44401100  0.52300963  0.14405590  1
  O  O121  1  0.93779439  0.52514678  0.13764662  1
  O  O122  1  0.31955927  0.12077786  0.13764866  1
  O  O123  1  0.82424283  0.12145440  0.13686802  1
  O  O124  1  0.23352331  0.34949823  0.13941004  1
  O  O125  1  0.73719700  0.35507065  0.13875781  1
  O  O126  1  0.22933331  0.31021733  0.03379672  1
  O  O127  1  0.73013223  0.31115149  0.03381326  1
  O  O128  1  0.42217897  0.53113971  0.02628253  1
  O  O129  1  0.92845106  0.54625238  0.03223041  1
  O  O130  1  0.34289675  0.14460650  0.03272260  1
  O  O131  1  0.84376757  0.14344303  0.03129780  1
  O  O132  1  0.22991749  0.15819126  0.52862618  1
  O  O133  1  0.72858670  0.14737222  0.53359736  1
  O  O134  1  0.34644943  0.54943201  0.53063050  1
  O  O135  1  0.84364390  0.53865529  0.53284670  1
  O  O136  1  0.42977989  0.31146840  0.53205756  1
  O  O137  1  0.91849117  0.31376698  0.52949860  1
  O  O138  1  0.27409695  0.69126082  0.96955117  1
  O  O139  1  0.76958450  0.70519921  0.97315799  1
  O  O140  1  0.08125671  0.45828996  0.97541024  1
  O  O141  1  0.57879516  0.46322543  0.97095809  1
  O  O142  1  0.14780711  0.84095005  0.97267887  1
  O  O143  1  0.64811367  0.83405534  0.97129866  1
  O  O144  1  0.26983429  0.83533344  0.47177968  1
  O  O145  1  0.77271654  0.85513473  0.46991608  1
  O  O146  1  0.15324445  0.45728029  0.47662321  1
  O  O147  1  0.64802098  0.45554195  0.47268349  1
  O  O148  1  0.07833500  0.70043322  0.47187171  1
  O  O149  1  0.58065696  0.70600333  0.47529841  1
  O  O150  1  0.06204428  0.64006191  0.35625394  1
  O  O151  1  0.56252728  0.63323283  0.35987581  1
  O  O152  1  0.25037258  0.87534535  0.36105893  1
  O  O153  1  0.76145147  0.87984534  0.36413157  1
  O  O154  1  0.18385921  0.49174888  0.36139849  1
  O  O155  1  0.68240491  0.48860191  0.35741231  1
  O  O156  1  0.06166382  0.49244485  0.86004984  1
  O  O157  1  0.56048670  0.48854005  0.85677915  1
  O  O158  1  0.18256875  0.87657453  0.85764258  1
  O  O159  1  0.68557892  0.88254883  0.85875543  1
  O  O160  1  0.26222094  0.64267831  0.86396756  1
  O  O161  1  0.75293480  0.63394702  0.86059974  1
  O  O162  1  0.01360005  0.83903162  0.40886844  1
  O  O163  1  0.50416703  0.82598407  0.41219513  1
  O  O164  1  0.40741375  0.98349814  0.40911235  1
  O  O165  1  0.89802801  0.97973670  0.41187022  1
  O  O166  1  0.08626542  0.17987305  0.41037143  1
  O  O167  1  0.57959271  0.19129991  0.40835328  1
  O  O168  1  0.00374883  0.18290763  0.91253218  1
  O  O169  1  0.50800859  0.18305547  0.90975031  1
  O  O170  1  0.08002529  0.96948120  0.90827126  1
  O  O171  1  0.57944299  0.97013023  0.91055201  1
  O  O172  1  0.39976686  0.81483527  0.91130637  1
  O  O173  1  0.90678633  0.83219002  0.90978674  1
  O  O174  1  0.48946581  0.17791753  0.58900202  1
  O  O175  1  0.99018498  0.16612451  0.58600763  1
  O  O176  1  0.08948023  0.01135435  0.59001677  1
  O  O177  1  0.60028578  0.02448903  0.58801576  1
  O  O178  1  0.41179891  0.80146721  0.58687504  1
  O  O179  1  0.91244569  0.78635940  0.58932724  1
  O  O180  1  0.48868098  0.81492822  0.08517341  1
  O  O181  1  0.98837743  0.79881281  0.08927145  1
  O  O182  1  0.41195918  0.03266518  0.08951379  1
  O  O183  1  0.91272559  0.02760673  0.08688644  1
  O  O184  1  0.10039114  0.17564313  0.08752527  1
  O  O185  1  0.60136518  0.18387906  0.08845566  1
  O  O186  1  0.34510703  0.16644134  0.74734939  1
  O  O187  1  0.84075578  0.17023470  0.74579132  1
  O  O188  1  0.24170506  0.32324453  0.74608319  1
  O  O189  1  0.72996713  0.30664322  0.74249918  1
  O  O190  1  0.41536406  0.52164382  0.74219659  1
  O  O191  1  0.92389275  0.53435872  0.74613049  1
  O  O192  1  0.34053483  0.51064246  0.24628393  1
  O  O193  1  0.84305879  0.52129961  0.24350297  1
  O  O194  1  0.42444110  0.31296831  0.24576746  1
  O  O195  1  0.91602530  0.30889719  0.24377471  1
  O  O196  1  0.22966853  0.15320750  0.24266865  1
  O  O197  1  0.74115969  0.16441982  0.24286137  1
  O  O198  1  0.32289371  0.51408402  0.92181566  1
  O  O199  1  0.82677954  0.50531332  0.92620338  1
  O  O200  1  0.42777787  0.36343633  0.92330106  1
  O  O201  1  0.92756029  0.35979383  0.92666116  1
  O  O202  1  0.24958141  0.15168905  0.92427809  1
  O  O203  1  0.75154162  0.14270970  0.92663568  1
  O  O204  1  0.32361367  0.14621444  0.42507239  1
  O  O205  1  0.81982850  0.12765077  0.42210180  1
  O  O206  1  0.25262463  0.35874154  0.42432533  1
  O  O207  1  0.74859890  0.34588541  0.42415930  1
  O  O208  1  0.42743736  0.49538407  0.42533929  1
  O  O209  1  0.92521726  0.49854213  0.42317994  1
  O  O210  1  0.17743999  0.48478381  0.07933197  1
  O  O211  1  0.68105309  0.48879583  0.07856218  1
  O  O212  1  0.06558851  0.64622803  0.08097351  1
  O  O213  1  0.57753882  0.64974090  0.07815863  1
  O  O214  1  0.25840214  0.86721377  0.07871231  1
  O  O215  1  0.75910368  0.87022066  0.07890006  1
  O  O216  1  0.17350027  0.84677872  0.57891110  1
  O  O217  1  0.67765645  0.86978914  0.57942049  1
  O  O218  1  0.25765549  0.64201448  0.57831550  1
  O  O219  1  0.75859852  0.64880950  0.57776427  1
  O  O220  1  0.07690670  0.50042818  0.57726538  1
  O  O221  1  0.56750361  0.48509466  0.58015164  1
  O  O222  1  0.14995726  0.84420862  0.25367836  1
  O  O223  1  0.65409355  0.82715197  0.25588067  1
  O  O224  1  0.25646349  0.67967752  0.25447473  1
  O  O225  1  0.75970531  0.69353838  0.25460066  1
  O  O226  1  0.08516112  0.48361130  0.25403876  1
  O  O227  1  0.57765807  0.46188212  0.25449585  1
  O  O228  1  0.15255259  0.48144638  0.75651680  1
  O  O229  1  0.64999523  0.45548315  0.75433790  1
  O  O230  1  0.07738841  0.69288164  0.75427709  1
  O  O231  1  0.58485685  0.68600105  0.75410719  1
  O  O232  1  0.25936431  0.82522538  0.75451823  1
  O  O233  1  0.75612463  0.83337595  0.75387360  1
