# generated using pymatgen
data_MgMn5FeO12
_symmetry_space_group_name_H-M   'P 1'
_cell_length_a   5.08812437
_cell_length_b   5.09400271
_cell_length_c   10.04102021
_cell_angle_alpha   94.01687003
_cell_angle_beta   97.46700139
_cell_angle_gamma   61.00990172
_symmetry_Int_Tables_number   1
_chemical_formula_structural   MgMn5FeO12
_chemical_formula_sum   'Mg1 Mn5 Fe1 O12'
_cell_volume   225.70573336
_cell_formula_units_Z   1
loop_
 _symmetry_equiv_pos_site_id
 _symmetry_equiv_pos_as_xyz
  1  'x, y, z'
loop_
 _atom_site_type_symbol
 _atom_site_label
 _atom_site_symmetry_multiplicity
 _atom_site_fract_x
 _atom_site_fract_y
 _atom_site_fract_z
 _atom_site_occupancy
  Mg  Mg0  1  0.25255059  0.33412952  0.74722067  1
  Mn  Mn1  1  0.16879343  0.68545341  0.49919921  1
  Mn  Mn2  1  0.65065125  0.66616616  0.99564535  1
  Mn  Mn3  1  0.32230218  0.33321736  0.01597420  1
  Mn  Mn4  1  0.83726089  0.35423031  0.49890768  1
  Mn  Mn5  1  0.50204814  0.01843162  0.48944537  1
  Fe  Fe6  1  0.98422702  0.00001965  0.99895199  1
  O  O7  1  0.99919877  0.66420011  0.09764783  1
  O  O8  1  0.30301877  0.63582977  0.89650622  1
  O  O9  1  0.10339446  0.39204396  0.39633774  1
  O  O10  1  0.48313886  0.67308395  0.40508039  1
  O  O11  1  0.51567371  0.35300591  0.59988832  1
  O  O12  1  0.19598728  0.03461803  0.60000920  1
  O  O13  1  0.90880741  0.64414468  0.61167538  1
  O  O14  1  0.67368892  0.34944982  0.09834420  1
  O  O15  1  0.35959750  0.98808141  0.09844120  1
  O  O16  1  0.97648594  0.34103071  0.89676239  1
  O  O17  1  0.59463358  0.01873159  0.89595126  1
  O  O18  1  0.82479128  0.01413203  0.40488639  1
