# generated using pymatgen
data_Na2HfZnP2SO12
_symmetry_space_group_name_H-M   'P 1'
_cell_length_a   8.93699903
_cell_length_b   8.92856650
_cell_length_c   22.51944186
_cell_angle_alpha   89.69286950
_cell_angle_beta   90.00000000
_cell_angle_gamma   120.03124690
_symmetry_Int_Tables_number   1
_chemical_formula_structural   Na2HfZnP2SO12
_chemical_formula_sum   'Na12 Hf6 Zn6 P12 S6 O72'
_cell_volume   1555.66667277
_cell_formula_units_Z   6
loop_
 _symmetry_equiv_pos_site_id
 _symmetry_equiv_pos_as_xyz
  1  'x, y, z'
loop_
 _atom_site_type_symbol
 _atom_site_label
 _atom_site_symmetry_multiplicity
 _atom_site_fract_x
 _atom_site_fract_y
 _atom_site_fract_z
 _atom_site_occupancy
  Na  Na0  1  0.99309249  0.62948892  0.24121779  1
  Na  Na1  1  0.63639643  0.62948892  0.74121779  1
  Na  Na2  1  0.65975949  0.96282192  0.57455079  1
  Na  Na3  1  0.30306343  0.96282192  0.07455079  1
  Na  Na4  1  0.32642549  0.29615592  0.90788479  1
  Na  Na5  1  0.96972943  0.29615592  0.40788479  1
  Na  Na6  1  0.99657632  0.96818978  0.49050281  1
  Na  Na7  1  0.97161346  0.96818978  0.99050281  1
  Na  Na8  1  0.66324332  0.30152278  0.82383581  1
  Na  Na9  1  0.63828046  0.30152278  0.32383581  1
  Na  Na10  1  0.32990932  0.63485678  0.15716981  1
  Na  Na11  1  0.30494646  0.63485678  0.65716981  1
  Hf  Hf12  1  0.00250736  0.01099567  0.64747525  1
  Hf  Hf13  1  0.00848831  0.01099567  0.14747525  1
  Hf  Hf14  1  0.66917436  0.34432867  0.98080825  1
  Hf  Hf15  1  0.67515531  0.34432867  0.48080825  1
  Hf  Hf16  1  0.33584036  0.67766267  0.31414225  1
  Hf  Hf17  1  0.34182131  0.67766267  0.81414225  1
  Zn  Zn18  1  0.00020735  0.99652752  0.34900687  1
  Zn  Zn19  1  0.99632017  0.99652752  0.84900687  1
  Zn  Zn20  1  0.66687435  0.32986052  0.68233987  1
  Zn  Zn21  1  0.66298717  0.32986052  0.18233987  1
  Zn  Zn22  1  0.33354035  0.66319452  0.01567387  1
  Zn  Zn23  1  0.32965317  0.66319452  0.51567387  1
  P  P24  1  0.29740520  0.00852112  0.25098199  1
  P  P25  1  0.99734095  0.29469959  0.25482383  1
  P  P26  1  0.29735864  0.29469959  0.75482383  1
  P  P27  1  0.71111592  0.00852112  0.75098199  1
  P  P28  1  0.96407220  0.34185412  0.58431499  1
  P  P29  1  0.66400795  0.62803259  0.58815683  1
  P  P30  1  0.96402564  0.62803259  0.08815683  1
  P  P31  1  0.37778292  0.34185412  0.08431499  1
  P  P32  1  0.63073820  0.67518812  0.91764899  1
  P  P33  1  0.33067395  0.96136659  0.92149083  1
  P  P34  1  0.63069164  0.96136659  0.42149083  1
  P  P35  1  0.04444892  0.67518812  0.41764899  1
  S  S36  1  0.70453293  0.70750352  0.25096090  1
  S  S37  1  0.00297059  0.70750352  0.75096090  1
  S  S38  1  0.37119993  0.04083652  0.58429390  1
  S  S39  1  0.66963759  0.04083652  0.08429390  1
  S  S40  1  0.03786593  0.37417052  0.91762790  1
  S  S41  1  0.33630359  0.37417052  0.41762790  1
  O  O42  1  0.20664004  0.02322614  0.30504263  1
  O  O43  1  0.80647756  0.78750400  0.30424385  1
  O  O44  1  0.97882425  0.19666536  0.31257964  1
  O  O45  1  0.21784111  0.19666536  0.81257964  1
  O  O46  1  0.98102644  0.78750400  0.80424385  1
  O  O47  1  0.81658609  0.02322614  0.80504263  1
  O  O48  1  0.79256181  0.97237321  0.69413704  1
  O  O49  1  0.18053840  0.19647931  0.70025603  1
  O  O50  1  0.02440862  0.81456001  0.69681093  1
  O  O51  1  0.79015139  0.81456001  0.19681093  1
  O  O52  1  0.01594091  0.19647931  0.20025603  1
  O  O53  1  0.17981140  0.97237321  0.19413704  1
  O  O54  1  0.87330704  0.35655914  0.63837563  1
  O  O55  1  0.47314456  0.12083700  0.63757685  1
  O  O56  1  0.64549125  0.52999836  0.64591264  1
  O  O57  1  0.88450811  0.52999836  0.14591264  1
  O  O58  1  0.64769344  0.12083700  0.13757685  1
  O  O59  1  0.48325309  0.35655914  0.13837563  1
  O  O60  1  0.45922881  0.30570621  0.02747004  1
  O  O61  1  0.84720540  0.52981231  0.03358903  1
  O  O62  1  0.69107562  0.14789301  0.03014393  1
  O  O63  1  0.45681839  0.14789301  0.53014393  1
  O  O64  1  0.68260791  0.52981231  0.53358903  1
  O  O65  1  0.84647840  0.30570621  0.52747004  1
  O  O66  1  0.53997304  0.68989314  0.97170963  1
  O  O67  1  0.13981056  0.45417100  0.97091085  1
  O  O68  1  0.31215725  0.86333236  0.97924664  1
  O  O69  1  0.55117411  0.86333236  0.47924664  1
  O  O70  1  0.31435944  0.45417100  0.47091085  1
  O  O71  1  0.14991909  0.68989314  0.47170963  1
  O  O72  1  0.12589481  0.63904021  0.36080404  1
  O  O73  1  0.51387140  0.86314631  0.36692303  1
  O  O74  1  0.35774162  0.48122701  0.36347793  1
  O  O75  1  0.12348439  0.48122701  0.86347793  1
  O  O76  1  0.34927391  0.86314631  0.86692303  1
  O  O77  1  0.51314440  0.63904021  0.86080404  1
  O  O78  1  0.01528566  0.82693530  0.40948935  1
  O  O79  1  0.81573097  0.99509495  0.41425749  1
  O  O80  1  0.18301112  0.20130239  0.41233413  1
  O  O81  1  0.01829127  0.20130239  0.91233413  1
  O  O82  1  0.17936398  0.99509495  0.91425749  1
  O  O83  1  0.81164964  0.82693530  0.90948935  1
  O  O84  1  0.97156815  0.16768945  0.58880978  1
  O  O85  1  0.19713296  0.02587405  0.58766360  1
  O  O86  1  0.83500593  0.81106970  0.58940610  1
  O  O87  1  0.97606377  0.81106970  0.08940610  1
  O  O88  1  0.82874109  0.02587405  0.08766360  1
  O  O89  1  0.19612130  0.16768945  0.08880978  1
  O  O90  1  0.68195266  0.16026830  0.74282235  1
  O  O91  1  0.48239797  0.32842795  0.74759049  1
  O  O92  1  0.84967812  0.53463539  0.74566713  1
  O  O93  1  0.68495827  0.53463539  0.24566713  1
  O  O94  1  0.84603098  0.32842795  0.24759049  1
  O  O95  1  0.47831664  0.16026830  0.24282235  1
  O  O96  1  0.63823515  0.50102245  0.92214278  1
  O  O97  1  0.86379996  0.35920705  0.92099660  1
  O  O98  1  0.50167293  0.14440270  0.92273910  1
  O  O99  1  0.64273077  0.14440270  0.42273910  1
  O  O100  1  0.49540809  0.35920705  0.42099660  1
  O  O101  1  0.86278830  0.50102245  0.42214278  1
  O  O102  1  0.34861866  0.49360230  0.07615635  1
  O  O103  1  0.14906397  0.66176195  0.08092449  1
  O  O104  1  0.51634412  0.86796939  0.07900113  1
  O  O105  1  0.35162427  0.86796939  0.57900113  1
  O  O106  1  0.51269698  0.66176195  0.58092449  1
  O  O107  1  0.14498264  0.49360230  0.57615635  1
  O  O108  1  0.30490115  0.83435645  0.25547678  1
  O  O109  1  0.53046596  0.69254105  0.25433060  1
  O  O110  1  0.16833893  0.47773670  0.25607310  1
  O  O111  1  0.30939677  0.47773670  0.75607310  1
  O  O112  1  0.16207409  0.69254105  0.75433060  1
  O  O113  1  0.52945430  0.83435645  0.75547678  1
