# generated using pymatgen
data_Na3Ti3In(PO4)6
_symmetry_space_group_name_H-M   'P 1'
_cell_length_a   8.75318965
_cell_length_b   8.75803304
_cell_length_c   22.27843418
_cell_angle_alpha   89.96079174
_cell_angle_beta   90.02064509
_cell_angle_gamma   120.24028092
_symmetry_Int_Tables_number   1
_chemical_formula_structural   Na3Ti3In(PO4)6
_chemical_formula_sum   'Na9 Ti9 In3 P18 O72'
_cell_volume   1475.47373708
_cell_formula_units_Z   3
loop_
 _symmetry_equiv_pos_site_id
 _symmetry_equiv_pos_as_xyz
  1  'x, y, z'
loop_
 _atom_site_type_symbol
 _atom_site_label
 _atom_site_symmetry_multiplicity
 _atom_site_fract_x
 _atom_site_fract_y
 _atom_site_fract_z
 _atom_site_occupancy
  Na  Na0  1  0.36119984  0.35590088  0.24772633  1
  Na  Na1  1  0.63019666  0.62825087  0.74958822  1
  Na  Na2  1  0.96665956  0.29665955  0.41573828  1
  Na  Na3  1  0.00073329  0.98712742  0.50161395  1
  Na  Na4  1  0.99971776  0.99989911  0.00048890  1
  Na  Na5  1  0.66743158  0.31998466  0.83604509  1
  Na  Na6  1  0.66842865  0.33493158  0.33006940  1
  Na  Na7  1  0.33102381  0.67991941  0.16294496  1
  Na  Na8  1  0.31780734  0.66741231  0.66482791  1
  Ti  Ti9  1  0.00093502  0.00140566  0.85628889  1
  Ti  Ti10  1  0.00279639  0.00389290  0.64499095  1
  Ti  Ti11  1  0.99689980  0.99667326  0.14587122  1
  Ti  Ti12  1  0.66622471  0.33436380  0.98143833  1
  Ti  Ti13  1  0.65961891  0.33395978  0.48268853  1
  Ti  Ti14  1  0.33460032  0.66614790  0.01763286  1
  Ti  Ti15  1  0.33471812  0.66672953  0.52040857  1
  Ti  Ti16  1  0.33555047  0.67488076  0.31143067  1
  Ti  Ti17  1  0.32673320  0.66774946  0.81465278  1
  In  In18  1  0.99831737  0.99092955  0.35463298  1
  In  In19  1  0.66767075  0.32683363  0.68585709  1
  In  In20  1  0.67420777  0.33342415  0.17927285  1
  P  P21  1  0.28871491  0.99569066  0.24893868  1
  P  P22  1  0.70482916  0.70893327  0.24957977  1
  P  P23  1  0.00020094  0.29297894  0.25255605  1
  P  P24  1  0.28076314  0.28760731  0.75155944  1
  P  P25  1  0.00891041  0.72215986  0.75100381  1
  P  P26  1  0.71494478  0.99824641  0.75195132  1
  P  P27  1  0.96133140  0.33253114  0.58165291  1
  P  P28  1  0.37023837  0.03630205  0.58327549  1
  P  P29  1  0.66664754  0.62854542  0.58505103  1
  P  P30  1  0.96579837  0.63204235  0.08065584  1
  P  P31  1  0.66735870  0.03672839  0.08081201  1
  P  P32  1  0.36909561  0.33309100  0.08253643  1
  P  P33  1  0.62056937  0.66329585  0.91509585  1
  P  P34  1  0.04207724  0.37792517  0.91692220  1
  P  P35  1  0.33535424  0.95679483  0.91676979  1
  P  P36  1  0.61496895  0.95739273  0.41825977  1
  P  P37  1  0.34432891  0.38642902  0.41633613  1
  P  P38  1  0.04521882  0.66242908  0.41856709  1
  O  O39  1  0.21953957  0.03730625  0.30606674  1
  O  O40  1  0.80594748  0.77796119  0.30804938  1
  O  O41  1  0.97925487  0.19963095  0.31314819  1
  O  O42  1  0.18760869  0.17661648  0.80773427  1
  O  O43  1  0.98680867  0.81419870  0.80689273  1
  O  O44  1  0.82428091  0.01062173  0.80827969  1
  O  O45  1  0.80397611  0.97332986  0.69506584  1
  O  O46  1  0.17317482  0.19629962  0.69397255  1
  O  O47  1  0.02733978  0.83044416  0.69358277  1
  O  O48  1  0.80375916  0.82595073  0.19414955  1
  O  O49  1  0.02573751  0.19133949  0.19924560  1
  O  O50  1  0.16953049  0.97238581  0.19370343  1
  O  O51  1  0.89382054  0.37603270  0.63831470  1
  O  O52  1  0.47761853  0.10250120  0.64076950  1
  O  O53  1  0.62849130  0.52603889  0.64424568  1
  O  O54  1  0.90431631  0.52642811  0.13867965  1
  O  O55  1  0.62098851  0.09729682  0.13844898  1
  O  O56  1  0.47073605  0.37184921  0.14177052  1
  O  O57  1  0.47360681  0.30888237  0.03010445  1
  O  O58  1  0.83917403  0.53106141  0.02731415  1
  O  O59  1  0.69391046  0.16357715  0.02753000  1
  O  O60  1  0.47016756  0.16175869  0.52915083  1
  O  O61  1  0.69074700  0.52472318  0.53207176  1
  O  O62  1  0.84215035  0.30487427  0.52573556  1
  O  O63  1  0.52796555  0.69039999  0.96906387  1
  O  O64  1  0.15922794  0.46712721  0.97162781  1
  O  O65  1  0.30739111  0.83895800  0.97115584  1
  O  O66  1  0.52120595  0.84608646  0.47367839  1
  O  O67  1  0.32359067  0.48435706  0.47032652  1
  O  O68  1  0.15520190  0.67400880  0.47389446  1
  O  O69  1  0.13558291  0.63899063  0.36140342  1
  O  O70  1  0.50699626  0.86420527  0.36052234  1
  O  O71  1  0.36235374  0.48868728  0.35706197  1
  O  O72  1  0.13543003  0.49565640  0.86046793  1
  O  O73  1  0.36068420  0.86524480  0.86021004  1
  O  O74  1  0.51010610  0.63855719  0.85701677  1
  O  O75  1  0.02798544  0.82663354  0.41863422  1
  O  O76  1  0.80277390  0.98407884  0.41765989  1
  O  O77  1  0.17457382  0.20367377  0.41720562  1
  O  O78  1  0.02403166  0.19369306  0.90995098  1
  O  O79  1  0.16944087  0.97514377  0.90962426  1
  O  O80  1  0.80717703  0.82986590  0.90995992  1
  O  O81  1  0.97329725  0.16217128  0.58891570  1
  O  O82  1  0.18901107  0.02640031  0.58791985  1
  O  O83  1  0.83744303  0.81110730  0.58861950  1
  O  O84  1  0.97618871  0.81338052  0.08672171  1
  O  O85  1  0.83791946  0.02590323  0.08776249  1
  O  O86  1  0.18567285  0.16366438  0.08766195  1
  O  O87  1  0.69869878  0.16332149  0.75101337  1
  O  O88  1  0.46838360  0.31353708  0.75009882  1
  O  O89  1  0.83852056  0.53999575  0.74923261  1
  O  O90  1  0.66535868  0.51798970  0.24321470  1
  O  O91  1  0.84441699  0.32236985  0.24621422  1
  O  O92  1  0.47435015  0.15601308  0.24204724  1
  O  O93  1  0.63749147  0.49697912  0.92299033  1
  O  O94  1  0.85882682  0.36093214  0.92256632  1
  O  O95  1  0.50176972  0.14095886  0.92300906  1
  O  O96  1  0.63258956  0.14290127  0.42223411  1
  O  O97  1  0.51171099  0.37045281  0.42389657  1
  O  O98  1  0.86122618  0.49046089  0.42299947  1
  O  O99  1  0.34499876  0.49361075  0.07046440  1
  O  O100  1  0.15234527  0.65988557  0.06941909  1
  O  O101  1  0.50922054  0.84946722  0.06889937  1
  O  O102  1  0.34052840  0.84951317  0.57263003  1
  O  O103  1  0.50802617  0.65494938  0.57319273  1
  O  O104  1  0.15106651  0.48933054  0.57232486  1
  O  O105  1  0.29678185  0.82307202  0.25564801  1
  O  O106  1  0.52156314  0.70046780  0.25389638  1
  O  O107  1  0.17821347  0.47549898  0.25519133  1
  O  O108  1  0.29878486  0.47384332  0.75575651  1
  O  O109  1  0.17596248  0.70467582  0.75654492  1
  O  O110  1  0.53043893  0.82583681  0.75635818  1
