# generated using pymatgen
data_Na8Ca3Si3Sn(SO8)3
_symmetry_space_group_name_H-M   'P 1'
_cell_length_a   9.48225394
_cell_length_b   9.49192281
_cell_length_c   22.98502252
_cell_angle_alpha   90.37322297
_cell_angle_beta   89.32267264
_cell_angle_gamma   120.11082574
_symmetry_Int_Tables_number   1
_chemical_formula_structural   Na8Ca3Si3Sn(SO8)3
_chemical_formula_sum   'Na24 Ca9 Si9 Sn3 S9 O72'
_cell_volume   1789.47161814
_cell_formula_units_Z   3
loop_
 _symmetry_equiv_pos_site_id
 _symmetry_equiv_pos_as_xyz
  1  'x, y, z'
loop_
 _atom_site_type_symbol
 _atom_site_label
 _atom_site_symmetry_multiplicity
 _atom_site_fract_x
 _atom_site_fract_y
 _atom_site_fract_z
 _atom_site_occupancy
  Na  Na0  1  0.62928821  0.99639129  0.26461464  1
  Na  Na1  1  0.37081535  0.36926718  0.24000127  1
  Na  Na2  1  0.00068076  0.62391377  0.25317211  1
  Na  Na3  1  0.63949580  0.65576714  0.72857035  1
  Na  Na4  1  0.97501192  0.33775469  0.75430265  1
  Na  Na5  1  0.38622233  0.01076760  0.73718184  1
  Na  Na6  1  0.32549188  0.33354797  0.58215803  1
  Na  Na7  1  0.04709116  0.72567007  0.56709355  1
  Na  Na8  1  0.64440418  0.93553303  0.58149657  1
  Na  Na9  1  0.27610504  0.95312837  0.06902203  1
  Na  Na10  1  0.66485845  0.67310198  0.08365112  1
  Na  Na11  1  0.06494054  0.35815837  0.07576737  1
  Na  Na12  1  0.99422178  0.67942201  0.92604962  1
  Na  Na13  1  0.71025100  0.04754214  0.90353404  1
  Na  Na14  1  0.30646951  0.28328217  0.92676354  1
  Na  Na15  1  0.96276237  0.30984549  0.41611172  1
  Na  Na16  1  0.32763138  0.99869381  0.42939967  1
  Na  Na17  1  0.71093219  0.69177227  0.43397166  1
  Na  Na18  1  0.98876880  0.97040785  0.50198121  1
  Na  Na19  1  0.03174257  0.01321642  0.00059767  1
  Na  Na20  1  0.66693706  0.30420094  0.83395768  1
  Na  Na21  1  0.68175103  0.33108046  0.34718288  1
  Na  Na22  1  0.31111142  0.64544138  0.15290090  1
  Na  Na23  1  0.36751695  0.69677190  0.65300402  1
  Ca  Ca24  1  0.99717427  0.99456495  0.35178485  1
  Ca  Ca25  1  0.99823998  0.00318409  0.84894446  1
  Ca  Ca26  1  0.98200292  0.98565530  0.64841692  1
  Ca  Ca27  1  0.00714216  0.99848409  0.14450187  1
  Ca  Ca28  1  0.66328170  0.32938387  0.68149929  1
  Ca  Ca29  1  0.66641252  0.33606814  0.17957164  1
  Ca  Ca30  1  0.33123728  0.66848064  0.01509012  1
  Ca  Ca31  1  0.33814727  0.67500968  0.51271170  1
  Ca  Ca32  1  0.32969472  0.68003466  0.33065668  1
  Si  Si33  1  0.68092905  0.98791405  0.75639648  1
  Si  Si34  1  0.36174836  0.03380842  0.58501809  1
  Si  Si35  1  0.66451712  0.62889951  0.58436956  1
  Si  Si36  1  0.96408113  0.63178708  0.08342685  1
  Si  Si37  1  0.37079059  0.33511069  0.08342774  1
  Si  Si38  1  0.02986616  0.37062526  0.91859593  1
  Si  Si39  1  0.34402697  0.98157496  0.92103725  1
  Si  Si40  1  0.64738392  0.98931171  0.41683007  1
  Si  Si41  1  0.01145179  0.65385805  0.41772103  1
  Sn  Sn42  1  0.66988013  0.33308338  0.98386519  1
  Sn  Sn43  1  0.66432410  0.33108909  0.48763948  1
  Sn  Sn44  1  0.33069083  0.68196992  0.82432666  1
  S  S45  1  0.30467359  0.99714072  0.24926299  1
  S  S46  1  0.69179455  0.69562574  0.24992070  1
  S  S47  1  0.00239956  0.30244361  0.24899959  1
  S  S48  1  0.30394810  0.31517248  0.75335603  1
  S  S49  1  0.00913613  0.69551162  0.75380262  1
  S  S50  1  0.96580813  0.33142736  0.58281978  1
  S  S51  1  0.67121572  0.03819061  0.08261446  1
  S  S52  1  0.62699339  0.65648174  0.91571930  1
  S  S53  1  0.34095381  0.36325466  0.41492114  1
  O  O54  1  0.22384703  0.01476241  0.30201300  1
  O  O55  1  0.78932568  0.78331016  0.30145309  1
  O  O56  1  0.99453336  0.20898563  0.30147869  1
  O  O57  1  0.22532564  0.21386954  0.80541389  1
  O  O58  1  0.99141929  0.77233346  0.80718090  1
  O  O59  1  0.78594389  0.00735077  0.81364092  1
  O  O60  1  0.75266996  0.94992582  0.69697323  1
  O  O61  1  0.20710725  0.23670915  0.70064225  1
  O  O62  1  0.03181323  0.79569605  0.70195420  1
  O  O63  1  0.77112150  0.78936773  0.19611785  1
  O  O64  1  0.01013654  0.21749221  0.19563407  1
  O  O65  1  0.21078822  0.98700960  0.19662041  1
  O  O66  1  0.89191620  0.35424029  0.63657901  1
  O  O67  1  0.46516225  0.11299647  0.64372745  1
  O  O68  1  0.65776785  0.53904061  0.64483747  1
  O  O69  1  0.88518246  0.52794738  0.14223782  1
  O  O70  1  0.64711017  0.11165466  0.13577163  1
  O  O71  1  0.46055505  0.34486651  0.14422671  1
  O  O72  1  0.47006563  0.31051082  0.02491716  1
  O  O73  1  0.84632416  0.53058611  0.02430684  1
  O  O74  1  0.69205385  0.14162917  0.02944192  1
  O  O75  1  0.46417939  0.15121056  0.52633524  1
  O  O76  1  0.68304785  0.52816127  0.52654557  1
  O  O77  1  0.86157493  0.31172797  0.53035056  1
  O  O78  1  0.55776547  0.68270370  0.96916691  1
  O  O79  1  0.14145862  0.44911507  0.97418008  1
  O  O80  1  0.32142451  0.87659512  0.97781630  1
  O  O81  1  0.56095031  0.86214265  0.46983478  1
  O  O82  1  0.31722209  0.44013635  0.46720310  1
  O  O83  1  0.12751173  0.67602609  0.47219759  1
  O  O84  1  0.07641769  0.61235952  0.35663597  1
  O  O85  1  0.53978127  0.92296444  0.35672265  1
  O  O86  1  0.36086329  0.46174066  0.36210954  1
  O  O87  1  0.12323248  0.49501424  0.85871637  1
  O  O88  1  0.37788696  0.89491836  0.86162249  1
  O  O89  1  0.52120695  0.63780982  0.86402220  1
  O  O90  1  0.99233307  0.81670269  0.41568145  1
  O  O91  1  0.83754869  0.03435039  0.41200418  1
  O  O92  1  0.19995433  0.19626587  0.41003038  1
  O  O93  1  0.99584374  0.18643704  0.91037996  1
  O  O94  1  0.18396624  0.00192483  0.91401991  1
  O  O95  1  0.79547143  0.79609538  0.90835626  1
  O  O96  1  0.97494164  0.18060763  0.58544804  1
  O  O97  1  0.18732414  0.03160600  0.58206525  1
  O  O98  1  0.82642982  0.81086279  0.57793093  1
  O  O99  1  0.96470045  0.80555270  0.07877670  1
  O  O100  1  0.82185084  0.02871022  0.08477424  1
  O  O101  1  0.18693721  0.17504352  0.07801634  1
  O  O102  1  0.66068428  0.15045619  0.75390986  1
  O  O103  1  0.47242439  0.34316519  0.74942182  1
  O  O104  1  0.86638673  0.52852652  0.74938464  1
  O  O105  1  0.67828182  0.53151309  0.24913837  1
  O  O106  1  0.85168532  0.31669159  0.24999538  1
  O  O107  1  0.47299245  0.14184256  0.24714550  1
  O  O108  1  0.63349980  0.50223138  0.91712024  1
  O  O109  1  0.84876509  0.36659506  0.92042320  1
  O  O110  1  0.51786966  0.16519019  0.92209232  1
  O  O111  1  0.64915919  0.16724072  0.42674076  1
  O  O112  1  0.49391792  0.35278977  0.41899630  1
  O  O113  1  0.82490006  0.48821509  0.42607611  1
  O  O114  1  0.36729207  0.50571173  0.07966391  1
  O  O115  1  0.14999963  0.66367426  0.08011505  1
  O  O116  1  0.52799249  0.87347464  0.07698107  1
  O  O117  1  0.33480154  0.84968194  0.58005786  1
  O  O118  1  0.49433723  0.63314805  0.57986859  1
  O  O119  1  0.12959678  0.47428682  0.57573370  1
  O  O120  1  0.31514217  0.84486798  0.25144775  1
  O  O121  1  0.52446433  0.67466669  0.25411959  1
  O  O122  1  0.15241926  0.46801755  0.24921569  1
  O  O123  1  0.31207148  0.47891792  0.75912846  1
  O  O124  1  0.16269758  0.68136657  0.75672030  1
  O  O125  1  0.49217677  0.81083467  0.76065746  1
