# generated using pymatgen
data_Na2Ca3Sn(SO4)6
_symmetry_space_group_name_H-M   'P 1'
_cell_length_a   9.07075120
_cell_length_b   9.07075089
_cell_length_c   23.99526284
_cell_angle_alpha   90.00000000
_cell_angle_beta   90.00000000
_cell_angle_gamma   120.00000114
_symmetry_Int_Tables_number   1
_chemical_formula_structural   Na2Ca3Sn(SO4)6
_chemical_formula_sum   'Na6 Ca9 Sn3 S18 O72'
_cell_volume   1709.78945032
_cell_formula_units_Z   3
loop_
 _symmetry_equiv_pos_site_id
 _symmetry_equiv_pos_as_xyz
  1  'x, y, z'
loop_
 _atom_site_type_symbol
 _atom_site_label
 _atom_site_symmetry_multiplicity
 _atom_site_fract_x
 _atom_site_fract_y
 _atom_site_fract_z
 _atom_site_occupancy
  Na  Na0  1  -0.00000000  -0.00000000  0.50435062  1
  Na  Na1  1  -0.00000000  -0.00000000  0.00333811  1
  Na  Na2  1  0.66666700  0.33333300  0.82680533  1
  Na  Na3  1  0.66666700  0.33333300  0.33690075  1
  Na  Na4  1  0.33333300  0.66666700  0.17270563  1
  Na  Na5  1  0.33333300  0.66666700  0.65648551  1
  Ca  Ca6  1  -0.00000000  -0.00000000  0.64509296  1
  Ca  Ca7  1  -0.00000000  -0.00000000  0.14847593  1
  Ca  Ca8  1  0.66666700  0.33333300  0.68113354  1
  Ca  Ca9  1  0.66666700  0.33333300  0.18566716  1
  Ca  Ca10  1  0.66666700  0.33333300  0.98289411  1
  Ca  Ca11  1  0.66666700  0.33333300  0.48333256  1
  Ca  Ca12  1  0.33333300  0.66666700  0.51412690  1
  Ca  Ca13  1  0.33333300  0.66666700  0.31853701  1
  Ca  Ca14  1  0.33333300  0.66666700  0.81285715  1
  Sn  Sn15  1  -0.00000000  -0.00000000  0.34969200  1
  Sn  Sn16  1  -0.00000000  -0.00000000  0.84697472  1
  Sn  Sn17  1  0.33333300  0.66666700  0.01482496  1
  S  S18  1  0.29189399  0.00138187  0.25167525  1
  S  S19  1  0.70948787  0.70810601  0.25167525  1
  S  S20  1  0.99861813  0.29051213  0.25167525  1
  S  S21  1  0.29318634  0.28835587  0.75268155  1
  S  S22  1  0.99516953  0.70681366  0.75268155  1
  S  S23  1  0.71164413  0.00483047  0.75268155  1
  S  S24  1  0.96847762  0.33639947  0.58317199  1
  S  S25  1  0.36792285  0.03152238  0.58317199  1
  S  S26  1  0.66360053  0.63207715  0.58317199  1
  S  S27  1  0.97583455  0.63316199  0.07968090  1
  S  S28  1  0.65732845  0.02416545  0.07968090  1
  S  S29  1  0.36683801  0.34267155  0.07968090  1
  S  S30  1  0.63631821  0.67811271  0.91599796  1
  S  S31  1  0.04179350  0.36368179  0.91599796  1
  S  S32  1  0.32188729  0.95820650  0.91599796  1
  S  S33  1  0.64477238  0.96915112  0.41296628  1
  S  S34  1  0.32437774  0.35522762  0.41296628  1
  S  S35  1  0.03084888  0.67562226  0.41296628  1
  O  O36  1  0.20563151  0.02116724  0.30368646  1
  O  O37  1  0.81553573  0.79436849  0.30368646  1
  O  O38  1  0.97883276  0.18446427  0.30368646  1
  O  O39  1  0.21271319  0.18512284  0.80763863  1
  O  O40  1  0.97240964  0.78728681  0.80763863  1
  O  O41  1  0.81487716  0.02759036  0.80763863  1
  O  O42  1  0.79872977  0.98849539  0.70500344  1
  O  O43  1  0.18976562  0.20127023  0.70500344  1
  O  O44  1  0.01150461  0.81023438  0.70500344  1
  O  O45  1  0.79270019  0.80695909  0.20174759  1
  O  O46  1  0.01425890  0.20729981  0.20174759  1
  O  O47  1  0.19304091  0.98574110  0.20174759  1
  O  O48  1  0.88610930  0.34960749  0.63454084  1
  O  O49  1  0.46349919  0.11389070  0.63454084  1
  O  O50  1  0.65039251  0.53650081  0.63454084  1
  O  O51  1  0.90331168  0.53418585  0.13040831  1
  O  O52  1  0.63087517  0.09668832  0.13040831  1
  O  O53  1  0.46581415  0.36912483  0.13040831  1
  O  O54  1  0.44932948  0.32627331  0.02964657  1
  O  O55  1  0.87694482  0.55067052  0.02964657  1
  O  O56  1  0.67372669  0.12305518  0.02964657  1
  O  O57  1  0.45277211  0.13028585  0.53316261  1
  O  O58  1  0.67751474  0.54722789  0.53316261  1
  O  O59  1  0.86971415  0.32248526  0.53316261  1
  O  O60  1  0.55871221  0.70662072  0.96858583  1
  O  O61  1  0.14790751  0.44128779  0.96858583  1
  O  O62  1  0.29337928  0.85209249  0.96858583  1
  O  O63  1  0.57217880  0.86883539  0.46356245  1
  O  O64  1  0.29665560  0.42782120  0.46356245  1
  O  O65  1  0.13116461  0.70334440  0.46356245  1
  O  O66  1  0.11338429  0.65886682  0.36305123  1
  O  O67  1  0.54548152  0.88661571  0.36305123  1
  O  O68  1  0.34113318  0.45451848  0.36305123  1
  O  O69  1  0.12564222  0.46713479  0.86728802  1
  O  O70  1  0.34149158  0.87435778  0.86728802  1
  O  O71  1  0.53286521  0.65850842  0.86728802  1
  O  O72  1  0.01719079  0.83877681  0.40768584  1
  O  O73  1  0.82158602  0.98280921  0.40768584  1
  O  O74  1  0.16122319  0.17841398  0.40768584  1
  O  O75  1  0.02827864  0.18955323  0.91207137  1
  O  O76  1  0.16127459  0.97172136  0.91207137  1
  O  O77  1  0.81044677  0.83872541  0.91207137  1
  O  O78  1  0.98638610  0.18215158  0.58526991  1
  O  O79  1  0.19576548  0.01361390  0.58526991  1
  O  O80  1  0.81784842  0.80423452  0.58526991  1
  O  O81  1  0.00365793  0.80762983  0.08344921  1
  O  O82  1  0.80397190  0.99634207  0.08344921  1
  O  O83  1  0.19237017  0.19602810  0.08344921  1
  O  O84  1  0.69554112  0.15856438  0.75236779  1
  O  O85  1  0.46302426  0.30445888  0.75236779  1
  O  O86  1  0.84143562  0.53697574  0.75236779  1
  O  O87  1  0.69599035  0.53898705  0.25020340  1
  O  O88  1  0.84299770  0.30400965  0.25020340  1
  O  O89  1  0.46101295  0.15700230  0.25020340  1
  O  O90  1  0.65805383  0.52946004  0.92274923  1
  O  O91  1  0.87140721  0.34194617  0.92274923  1
  O  O92  1  0.47053996  0.12859279  0.92274923  1
  O  O93  1  0.67174051  0.14282637  0.41703750  1
  O  O94  1  0.47108686  0.32825949  0.41703750  1
  O  O95  1  0.85717363  0.52891314  0.41703750  1
  O  O96  1  0.35345029  0.50650545  0.07417461  1
  O  O97  1  0.15305416  0.64654971  0.07417461  1
  O  O98  1  0.49349455  0.84694584  0.07417461  1
  O  O99  1  0.34964968  0.85903235  0.58064181  1
  O  O100  1  0.50938168  0.65035032  0.58064181  1
  O  O101  1  0.14096765  0.49061832  0.58064181  1
  O  O102  1  0.30704991  0.84795143  0.25656157  1
  O  O103  1  0.54090051  0.69295009  0.25656157  1
  O  O104  1  0.15204857  0.45909949  0.25656157  1
  O  O105  1  0.30555744  0.45551185  0.75856020  1
  O  O106  1  0.14995340  0.69444256  0.75856020  1
  O  O107  1  0.54448815  0.85004660  0.75856020  1
