# generated using pymatgen
data_Na3YNbSi2PO12
_symmetry_space_group_name_H-M   'P 1'
_cell_length_a   9.25310422
_cell_length_b   9.25310389
_cell_length_c   22.72612881
_cell_angle_alpha   90.55305054
_cell_angle_beta   89.44694947
_cell_angle_gamma   119.93704900
_symmetry_Int_Tables_number   1
_chemical_formula_structural   Na3YNbSi2PO12
_chemical_formula_sum   'Na18 Y6 Nb6 Si12 P6 O72'
_cell_volume   1686.08371056
_cell_formula_units_Z   6
loop_
 _symmetry_equiv_pos_site_id
 _symmetry_equiv_pos_as_xyz
  1  'x, y, z'
loop_
 _atom_site_type_symbol
 _atom_site_label
 _atom_site_symmetry_multiplicity
 _atom_site_fract_x
 _atom_site_fract_y
 _atom_site_fract_z
 _atom_site_occupancy
  Na  Na0  1  0.99042970  0.98983469  0.49695142  1
  Na  Na1  1  0.01016531  0.00957030  0.99695142  1
  Na  Na2  1  0.65709164  0.32315963  0.83028362  1
  Na  Na3  1  0.67684037  0.34290836  0.33028362  1
  Na  Na4  1  0.32375726  0.65649740  0.16361870  1
  Na  Na5  1  0.34350260  0.67624274  0.66361870  1
  Na  Na6  1  0.65846229  0.01664098  0.25061317  1
  Na  Na7  1  0.98077519  0.62395638  0.24691551  1
  Na  Na8  1  0.98335902  0.34153771  0.75061317  1
  Na  Na9  1  0.37604362  0.01922481  0.74691551  1
  Na  Na10  1  0.32512783  0.34997183  0.58394763  1
  Na  Na11  1  0.64745120  0.95729033  0.58024966  1
  Na  Na12  1  0.65002817  0.67487217  0.08394763  1
  Na  Na13  1  0.04270967  0.35254880  0.08024966  1
  Na  Na14  1  0.99179478  0.68330678  0.91728231  1
  Na  Na15  1  0.31411070  0.29062773  0.91358345  1
  Na  Na16  1  0.31669322  0.00820522  0.41728231  1
  Na  Na17  1  0.70937227  0.68588930  0.41358345  1
  Y  Y18  1  0.00133709  0.01173594  0.35147375  1
  Y  Y19  1  0.98826406  0.99866291  0.85147375  1
  Y  Y20  1  0.66800290  0.34506880  0.68480680  1
  Y  Y21  1  0.65493120  0.33199710  0.18480680  1
  Y  Y22  1  0.33466794  0.67840202  0.01814072  1
  Y  Y23  1  0.32159798  0.66533206  0.51814072  1
  Nb  Nb24  1  0.99609021  0.99187290  0.64812300  1
  Nb  Nb25  1  0.00812710  0.00390979  0.14812300  1
  Nb  Nb26  1  0.66276059  0.32520589  0.98145564  1
  Nb  Nb27  1  0.67479411  0.33723941  0.48145564  1
  Nb  Nb28  1  0.32942510  0.65854528  0.31479375  1
  Nb  Nb29  1  0.34145472  0.67057490  0.81479375  1
  Si  Si30  1  0.69865637  0.70938416  0.25238326  1
  Si  Si31  1  0.00953741  0.30415150  0.24834673  1
  Si  Si32  1  0.29061584  0.30134363  0.75238326  1
  Si  Si33  1  0.69584850  0.99046259  0.74834673  1
  Si  Si34  1  0.36532511  0.04271958  0.58571409  1
  Si  Si35  1  0.67620329  0.63748914  0.58167941  1
  Si  Si36  1  0.95728042  0.63467489  0.08571409  1
  Si  Si37  1  0.36251086  0.32379671  0.08167941  1
  Si  Si38  1  0.03198976  0.37605375  0.91905073  1
  Si  Si39  1  0.34287255  0.97082298  0.91501027  1
  Si  Si40  1  0.62394625  0.96801024  0.41905073  1
  Si  Si41  1  0.02917702  0.65712745  0.41501027  1
  P  P42  1  0.28872619  0.98218914  0.25183502  1
  P  P43  1  0.01781086  0.71127381  0.75183502  1
  P  P44  1  0.95539427  0.31552579  0.58516965  1
  P  P45  1  0.68447421  0.04460573  0.08516965  1
  P  P46  1  0.62205069  0.64885109  0.91850170  1
  P  P47  1  0.35114891  0.37794931  0.41850170  1
  O  O48  1  0.22257873  0.00618689  0.31003499  1
  O  O49  1  0.80366571  0.78994678  0.31093467  1
  O  O50  1  0.97384492  0.18721594  0.30320497  1
  O  O51  1  0.21005322  0.19633429  0.81093467  1
  O  O52  1  0.99381311  0.77742127  0.81003499  1
  O  O53  1  0.81278406  0.02615508  0.80320497  1
  O  O54  1  0.79899389  0.97087604  0.68907352  1
  O  O55  1  0.16010789  0.19074278  0.69486484  1
  O  O56  1  0.02304947  0.82894353  0.69943457  1
  O  O57  1  0.80925722  0.83989211  0.19486484  1
  O  O58  1  0.02912396  0.20100611  0.18907352  1
  O  O59  1  0.17105647  0.97695053  0.19943457  1
  O  O60  1  0.88924830  0.33951976  0.64336812  1
  O  O61  1  0.47032775  0.12327147  0.64426775  1
  O  O62  1  0.64050715  0.52054548  0.63653731  1
  O  O63  1  0.87672853  0.52967225  0.14426775  1
  O  O64  1  0.66048024  0.11075170  0.14336812  1
  O  O65  1  0.47945452  0.35949285  0.13653731  1
  O  O66  1  0.46566425  0.30421147  0.02240561  1
  O  O67  1  0.82676997  0.52406761  0.02819792  1
  O  O68  1  0.68972205  0.16228039  0.03276827  1
  O  O69  1  0.47593239  0.17323003  0.52819792  1
  O  O70  1  0.69578853  0.53433575  0.52240561  1
  O  O71  1  0.83771961  0.31027795  0.53276827  1
  O  O72  1  0.55591008  0.67285644  0.97670099  1
  O  O73  1  0.13699218  0.45660784  0.97760171  1
  O  O74  1  0.30717170  0.85387901  0.96987110  1
  O  O75  1  0.54339216  0.86300782  0.47760171  1
  O  O76  1  0.32714356  0.44408992  0.47670099  1
  O  O77  1  0.14612099  0.69282830  0.46987110  1
  O  O78  1  0.13232794  0.63754461  0.35573997  1
  O  O79  1  0.49343760  0.85740710  0.36153161  1
  O  O80  1  0.35638376  0.49560496  0.36610259  1
  O  O81  1  0.14259290  0.50656240  0.86153161  1
  O  O82  1  0.36245539  0.86767206  0.85573997  1
  O  O83  1  0.50439504  0.64361624  0.86610259  1
  O  O84  1  0.99948821  0.81460182  0.41073083  1
  O  O85  1  0.80770649  0.99185014  0.41337853  1
  O  O86  1  0.21563548  0.19646372  0.41046660  1
  O  O87  1  0.00814986  0.19229351  0.91337853  1
  O  O88  1  0.18539818  0.00051179  0.91073083  1
  O  O89  1  0.80353628  0.78436452  0.91046660  1
  O  O90  1  0.94566660  0.14122507  0.58350747  1
  O  O91  1  0.18564102  0.04523480  0.58933243  1
  O  O92  1  0.85209368  0.81942700  0.58839397  1
  O  O93  1  0.95476520  0.81435898  0.08933243  1
  O  O94  1  0.85877493  0.05433340  0.08350747  1
  O  O95  1  0.18057300  0.14790632  0.08839397  1
  O  O96  1  0.66615710  0.14793421  0.74406457  1
  O  O97  1  0.47437502  0.32518246  0.74671197  1
  O  O98  1  0.88229795  0.52980249  0.74379892  1
  O  O99  1  0.67481754  0.52562498  0.24671197  1
  O  O100  1  0.85206579  0.33384290  0.24406457  1
  O  O101  1  0.47019751  0.11770205  0.24379892  1
  O  O102  1  0.61233038  0.47456599  0.91684021  1
  O  O103  1  0.85230985  0.37856428  0.92266554  1
  O  O104  1  0.51876057  0.15275968  0.92172696  1
  O  O105  1  0.62143572  0.14769015  0.42266554  1
  O  O106  1  0.52543401  0.38766962  0.41684021  1
  O  O107  1  0.84724032  0.48123943  0.42172696  1
  O  O108  1  0.33282420  0.48126639  0.07739828  1
  O  O109  1  0.14103675  0.65851959  0.08004594  1
  O  O110  1  0.54896865  0.86313581  0.07713291  1
  O  O111  1  0.34148041  0.85896325  0.58004594  1
  O  O112  1  0.51873361  0.66717580  0.57739828  1
  O  O113  1  0.13686419  0.45103135  0.57713291  1
  O  O114  1  0.27899634  0.80789397  0.25017429  1
  O  O115  1  0.51897504  0.71189720  0.25599956  1
  O  O116  1  0.18542608  0.48609636  0.25506047  1
  O  O117  1  0.28810280  0.48102496  0.75599956  1
  O  O118  1  0.19210603  0.72100366  0.75017429  1
  O  O119  1  0.51390363  0.81457392  0.75506047  1
