# generated using pymatgen
data_Na8Sc3NbSi5SO24
_symmetry_space_group_name_H-M   'P 1'
_cell_length_a   9.20958397
_cell_length_b   9.19494315
_cell_length_c   22.58049686
_cell_angle_alpha   89.91168285
_cell_angle_beta   90.14499695
_cell_angle_gamma   119.99993772
_symmetry_Int_Tables_number   1
_chemical_formula_structural   Na8Sc3NbSi5SO24
_chemical_formula_sum   'Na24 Sc9 Nb3 Si15 S3 O72'
_cell_volume   1655.96840382
_cell_formula_units_Z   3
loop_
 _symmetry_equiv_pos_site_id
 _symmetry_equiv_pos_as_xyz
  1  'x, y, z'
loop_
 _atom_site_type_symbol
 _atom_site_label
 _atom_site_symmetry_multiplicity
 _atom_site_fract_x
 _atom_site_fract_y
 _atom_site_fract_z
 _atom_site_occupancy
  Na  Na0  1  0.61789846  0.99842685  0.25164287  1
  Na  Na1  1  0.36595868  0.35575266  0.25462907  1
  Na  Na2  1  0.01199354  0.64428642  0.24910722  1
  Na  Na3  1  0.63869835  0.62164857  0.74683660  1
  Na  Na4  1  0.99856062  0.36605688  0.74002870  1
  Na  Na5  1  0.35665669  0.00719398  0.74358272  1
  Na  Na6  1  0.29700392  0.33997362  0.58205748  1
  Na  Na7  1  0.04064822  0.70243350  0.58245102  1
  Na  Na8  1  0.66322493  0.95962143  0.57872759  1
  Na  Na9  1  0.29901522  0.95749500  0.08307651  1
  Na  Na10  1  0.66032876  0.70261718  0.07975038  1
  Na  Na11  1  0.04056281  0.33831668  0.08028489  1
  Na  Na12  1  0.96880976  0.67594507  0.91522240  1
  Na  Na13  1  0.70315725  0.02631303  0.91868177  1
  Na  Na14  1  0.32389006  0.29490247  0.91446089  1
  Na  Na15  1  0.97513949  0.30273649  0.42089356  1
  Na  Na16  1  0.33032042  0.02630078  0.41735933  1
  Na  Na17  1  0.69677309  0.67333874  0.42060009  1
  Na  Na18  1  0.99879204  0.00079477  0.50189283  1
  Na  Na19  1  0.99819056  0.99879339  0.99918042  1
  Na  Na20  1  0.66492543  0.34271750  0.83043999  1
  Na  Na21  1  0.65525259  0.32384360  0.33801790  1
  Na  Na22  1  0.33159269  0.67594748  0.16104266  1
  Na  Na23  1  0.32763699  0.66212341  0.65666783  1
  Sc  Sc24  1  0.01397873  0.00361173  0.35646340  1
  Sc  Sc25  1  0.00983099  0.99688434  0.85213328  1
  Sc  Sc26  1  0.01668226  0.00497889  0.64410415  1
  Sc  Sc27  1  0.01106395  0.99562038  0.14209496  1
  Sc  Sc28  1  0.66620053  0.34102076  0.68143419  1
  Sc  Sc29  1  0.65691591  0.32497469  0.18032675  1
  Sc  Sc30  1  0.33329641  0.66682236  0.01854408  1
  Sc  Sc31  1  0.33356837  0.66734680  0.51694907  1
  Sc  Sc32  1  0.33117539  0.67573120  0.32300229  1
  Nb  Nb33  1  0.66538621  0.33300332  0.98111692  1
  Nb  Nb34  1  0.66696159  0.33399433  0.48243344  1
  Nb  Nb35  1  0.32145791  0.65631127  0.81758632  1
  Si  Si36  1  0.29771779  0.99877181  0.24973301  1
  Si  Si37  1  0.29516095  0.29540054  0.75100390  1
  Si  Si38  1  0.00021720  0.70447703  0.75075410  1
  Si  Si39  1  0.95987545  0.33277256  0.58548725  1
  Si  Si40  1  0.37694260  0.03954145  0.58534881  1
  Si  Si41  1  0.66599961  0.63009903  0.58436304  1
  Si  Si42  1  0.95793513  0.62233859  0.08569680  1
  Si  Si43  1  0.66746375  0.03878204  0.08427613  1
  Si  Si44  1  0.37374933  0.33647929  0.08415976  1
  Si  Si45  1  0.62652171  0.66774832  0.91828173  1
  Si  Si46  1  0.03448918  0.36813894  0.91993606  1
  Si  Si47  1  0.33613693  0.95984339  0.91816200  1
  Si  Si48  1  0.63105563  0.96464265  0.41698428  1
  Si  Si49  1  0.33672402  0.37646715  0.41606325  1
  Si  Si50  1  0.03496101  0.66280956  0.41717350  1
  S  S51  1  0.70693491  0.70759599  0.24941167  1
  S  S52  1  0.00033901  0.29274047  0.24931804  1
  S  S53  1  0.70459268  0.99606174  0.75111438  1
  O  O54  1  0.20617145  0.02753855  0.30681964  1
  O  O55  1  0.80813174  0.79009396  0.30262680  1
  O  O56  1  0.97541841  0.18926053  0.30256202  1
  O  O57  1  0.20613565  0.18419044  0.80981022  1
  O  O58  1  0.96980665  0.78854844  0.80938397  1
  O  O59  1  0.80612496  0.01912008  0.80449515  1
  O  O60  1  0.78155006  0.97062810  0.69805581  1
  O  O61  1  0.17414719  0.21923266  0.69307678  1
  O  O62  1  0.03966467  0.82532767  0.69301835  1
  O  O63  1  0.78618946  0.81087577  0.19599203  1
  O  O64  1  0.01800553  0.20940229  0.19598542  1
  O  O65  1  0.17826226  0.97143656  0.19132444  1
  O  O66  1  0.87344326  0.36108356  0.64363975  1
  O  O67  1  0.48998756  0.12457705  0.64392116  1
  O  O68  1  0.63488887  0.51435458  0.64277718  1
  O  O69  1  0.87187369  0.50871767  0.14393731  1
  O  O70  1  0.63594357  0.12447123  0.14203375  1
  O  O71  1  0.48972715  0.36729107  0.14209633  1
  O  O72  1  0.47304763  0.30762295  0.02612194  1
  O  O73  1  0.83215630  0.52260068  0.02681801  1
  O  O74  1  0.69309934  0.16557011  0.02572496  1
  O  O75  1  0.47609237  0.16473929  0.52714590  1
  O  O76  1  0.69157480  0.52895299  0.52657302  1
  O  O77  1  0.83542111  0.31044654  0.52700669  1
  O  O78  1  0.54270367  0.69827068  0.97573328  1
  O  O79  1  0.15509844  0.45346078  0.97569523  1
  O  O80  1  0.30229668  0.84340942  0.97524535  1
  O  O81  1  0.54854871  0.84519198  0.47417465  1
  O  O82  1  0.30171161  0.45911616  0.47345364  1
  O  O83  1  0.15585386  0.70187784  0.47387746  1
  O  O84  1  0.11224128  0.62349631  0.35746500  1
  O  O85  1  0.51185287  0.88629871  0.35758685  1
  O  O86  1  0.37232314  0.49118619  0.35592350  1
  O  O87  1  0.13195069  0.49708285  0.86109783  1
  O  O88  1  0.36621270  0.86422282  0.85966939  1
  O  O89  1  0.49916765  0.63698061  0.86005731  1
  O  O90  1  0.00669603  0.82454340  0.40973550  1
  O  O91  1  0.81853307  0.99078962  0.40752204  1
  O  O92  1  0.17085618  0.18743945  0.41092886  1
  O  O93  1  0.00694467  0.18257819  0.90933079  1
  O  O94  1  0.17343354  0.98450888  0.91147338  1
  O  O95  1  0.81132860  0.83098857  0.90997878  1
  O  O96  1  0.96632773  0.15832345  0.58618533  1
  O  O97  1  0.19554036  0.03303798  0.58481816  1
  O  O98  1  0.83777606  0.81198517  0.58700841  1
  O  O99  1  0.96443136  0.80414524  0.08540803  1
  O  O100  1  0.83934136  0.02940532  0.08740424  1
  O  O101  1  0.19130246  0.16400713  0.08562137  1
  O  O102  1  0.68424146  0.14543646  0.74711879  1
  O  O103  1  0.48246627  0.31562825  0.74801139  1
  O  O104  1  0.84104513  0.51213286  0.74786217  1
  O  O105  1  0.69413240  0.53946481  0.24593896  1
  O  O106  1  0.85122460  0.31541192  0.24579193  1
  O  O107  1  0.48701902  0.17042566  0.24743843  1
  O  O108  1  0.63766547  0.49287983  0.92186432  1
  O  O109  1  0.85308984  0.36366595  0.92182809  1
  O  O110  1  0.50922008  0.14598327  0.92154445  1
  O  O111  1  0.64655263  0.15223159  0.42393053  1
  O  O112  1  0.50511288  0.35501044  0.42319576  1
  O  O113  1  0.84719347  0.49298544  0.42356872  1
  O  O114  1  0.35526269  0.50131558  0.07869869  1
  O  O115  1  0.14219880  0.64280764  0.07904577  1
  O  O116  1  0.50053663  0.85585572  0.07844632  1
  O  O117  1  0.35689576  0.85523304  0.57886334  1
  O  O118  1  0.49853266  0.64486646  0.57830651  1
  O  O119  1  0.14330855  0.49966207  0.57866057  1
  O  O120  1  0.31464779  0.82693541  0.25272115  1
  O  O121  1  0.53583160  0.68566160  0.25301240  1
  O  O122  1  0.15531867  0.46031282  0.25317317  1
  O  O123  1  0.31847163  0.49064911  0.75917615  1
  O  O124  1  0.17788490  0.69176137  0.75916407  1
  O  O125  1  0.53444492  0.84266309  0.75620606  1
