# generated using pymatgen
data_Na3YZr3Si3(SO8)3
_symmetry_space_group_name_H-M   'P 1'
_cell_length_a   9.11412847
_cell_length_b   9.18755783
_cell_length_c   23.51949088
_cell_angle_alpha   89.72273477
_cell_angle_beta   90.50200861
_cell_angle_gamma   120.32478660
_symmetry_Int_Tables_number   1
_chemical_formula_structural   Na3YZr3Si3(SO8)3
_chemical_formula_sum   'Na9 Y3 Zr9 Si9 S9 O72'
_cell_volume   1699.91181236
_cell_formula_units_Z   3
loop_
 _symmetry_equiv_pos_site_id
 _symmetry_equiv_pos_as_xyz
  1  'x, y, z'
loop_
 _atom_site_type_symbol
 _atom_site_label
 _atom_site_symmetry_multiplicity
 _atom_site_fract_x
 _atom_site_fract_y
 _atom_site_fract_z
 _atom_site_occupancy
  Na  Na0  1  0.35122788  0.35607458  0.23977470  1
  Na  Na1  1  0.63442891  0.62172135  0.75667218  1
  Na  Na2  1  0.96963764  0.28704875  0.41665444  1
  Na  Na3  1  0.99235710  0.01135523  0.49889105  1
  Na  Na4  1  0.99475449  0.98260493  0.00339628  1
  Na  Na5  1  0.66078674  0.34270688  0.83172025  1
  Na  Na6  1  0.67303742  0.31764853  0.32994601  1
  Na  Na7  1  0.29938722  0.64925455  0.16225022  1
  Na  Na8  1  0.28425679  0.63922212  0.66681322  1
  Y  Y9  1  0.99473053  0.00192685  0.35505527  1
  Y  Y10  1  0.67870654  0.33605595  0.68678540  1
  Y  Y11  1  0.68904471  0.34572393  0.18001667  1
  Zr  Zr12  1  0.00634955  0.99365911  0.85368634  1
  Zr  Zr13  1  0.01414783  0.01740607  0.64814776  1
  Zr  Zr14  1  0.01008377  0.01357227  0.14415940  1
  Zr  Zr15  1  0.66401966  0.35691454  0.98272846  1
  Zr  Zr16  1  0.66131464  0.31915968  0.48005084  1
  Zr  Zr17  1  0.33791525  0.65933011  0.02022417  1
  Zr  Zr18  1  0.33690986  0.65692279  0.51840338  1
  Zr  Zr19  1  0.33882708  0.66239522  0.31597617  1
  Zr  Zr20  1  0.32269088  0.65486758  0.81274755  1
  Si  Si21  1  0.00038624  0.29971104  0.25313372  1
  Si  Si22  1  0.29320767  0.29387086  0.75287515  1
  Si  Si23  1  0.00670587  0.71771740  0.74907979  1
  Si  Si24  1  0.96628330  0.33173173  0.58189483  1
  Si  Si25  1  0.97154213  0.64191276  0.08183969  1
  Si  Si26  1  0.37168278  0.33513024  0.08650505  1
  Si  Si27  1  0.62832252  0.67289718  0.91453194  1
  Si  Si28  1  0.62087918  0.95758636  0.41841852  1
  Si  Si29  1  0.34238295  0.37540398  0.41666163  1
  S  S30  1  0.29029158  0.99354637  0.24952001  1
  S  S31  1  0.70131112  0.70565966  0.24959733  1
  S  S32  1  0.71052530  0.99387650  0.75184432  1
  S  S33  1  0.36828269  0.03455258  0.58265837  1
  S  S34  1  0.67017352  0.63024165  0.58332907  1
  S  S35  1  0.66683233  0.03912578  0.08039321  1
  S  S36  1  0.03716785  0.37168914  0.91707553  1
  S  S37  1  0.33947375  0.95842873  0.91658350  1
  S  S38  1  0.04353256  0.66036049  0.41827340  1
  O  O39  1  0.20627555  0.00912748  0.30048899  1
  O  O40  1  0.80007006  0.78040165  0.30177817  1
  O  O41  1  0.99343286  0.20387104  0.31234076  1
  O  O42  1  0.18919556  0.18299913  0.80792656  1
  O  O43  1  0.97937799  0.80938754  0.80530543  1
  O  O44  1  0.81336530  0.01463428  0.80327237  1
  O  O45  1  0.79088962  0.97200536  0.70018850  1
  O  O46  1  0.17828207  0.20651761  0.69490373  1
  O  O47  1  0.02103111  0.83007008  0.69273551  1
  O  O48  1  0.78791305  0.80432296  0.19859292  1
  O  O49  1  0.02420017  0.19392700  0.19916765  1
  O  O50  1  0.18446297  0.97312435  0.19780604  1
  O  O51  1  0.87811932  0.35390809  0.63762846  1
  O  O52  1  0.46769019  0.11241453  0.63428373  1
  O  O53  1  0.64225911  0.53384333  0.63659365  1
  O  O54  1  0.90536531  0.52650135  0.13800529  1
  O  O55  1  0.63869499  0.10876431  0.13255502  1
  O  O56  1  0.46497473  0.35671426  0.14687205  1
  O  O57  1  0.47378311  0.31230478  0.03267047  1
  O  O58  1  0.84487167  0.53948206  0.02694504  1
  O  O59  1  0.69125888  0.14593389  0.03021804  1
  O  O60  1  0.45423701  0.14319709  0.53187632  1
  O  O61  1  0.68453718  0.53813088  0.53415884  1
  O  O62  1  0.85051248  0.31380206  0.52428982  1
  O  O63  1  0.52524874  0.68839387  0.96815551  1
  O  O64  1  0.14289750  0.45728552  0.96754636  1
  O  O65  1  0.31410396  0.85533783  0.96747473  1
  O  O66  1  0.51762861  0.85024043  0.47397108  1
  O  O67  1  0.31156348  0.47439912  0.46928090  1
  O  O68  1  0.14504435  0.68122097  0.46982162  1
  O  O69  1  0.12421028  0.63578100  0.36687430  1
  O  O70  1  0.50713101  0.86592631  0.36098050  1
  O  O71  1  0.36002681  0.48631059  0.35830447  1
  O  O72  1  0.11773436  0.47799751  0.86520393  1
  O  O73  1  0.35165357  0.87262855  0.86499216  1
  O  O74  1  0.51582098  0.65186164  0.85633822  1
  O  O75  1  0.02158967  0.80638533  0.41299386  1
  O  O76  1  0.81041619  0.98217444  0.41843128  1
  O  O77  1  0.17377668  0.18987229  0.41582200  1
  O  O78  1  0.02585752  0.20609154  0.91196373  1
  O  O79  1  0.18669265  0.98023713  0.91195284  1
  O  O80  1  0.81814003  0.84279101  0.91134175  1
  O  O81  1  0.98115940  0.15917056  0.58617948  1
  O  O82  1  0.19704737  0.01903097  0.58533902  1
  O  O83  1  0.82430315  0.79976701  0.58650777  1
  O  O84  1  0.97652026  0.82183252  0.09029017  1
  O  O85  1  0.81990112  0.02035488  0.08689087  1
  O  O86  1  0.17884568  0.16684226  0.08728571  1
  O  O87  1  0.68615071  0.13944107  0.74768779  1
  O  O88  1  0.48273930  0.32148594  0.74969234  1
  O  O89  1  0.83555454  0.53272221  0.74779131  1
  O  O90  1  0.66534911  0.52890925  0.24645929  1
  O  O91  1  0.83503689  0.32126806  0.24950665  1
  O  O92  1  0.45766403  0.15069711  0.24521044  1
  O  O93  1  0.64293637  0.49979795  0.92048894  1
  O  O94  1  0.86556809  0.35020144  0.92171510  1
  O  O95  1  0.49500132  0.12695782  0.92082502  1
  O  O96  1  0.64822905  0.15184916  0.42220163  1
  O  O97  1  0.51693323  0.37068078  0.42559236  1
  O  O98  1  0.87491037  0.50117554  0.42237219  1
  O  O99  1  0.34969916  0.49990422  0.07458710  1
  O  O100  1  0.16144830  0.67446357  0.06793160  1
  O  O101  1  0.51666901  0.86699685  0.07324045  1
  O  O102  1  0.34716949  0.86527988  0.57597836  1
  O  O103  1  0.51875429  0.65238040  0.57669527  1
  O  O104  1  0.15647689  0.50104108  0.57607373  1
  O  O105  1  0.30959157  0.84275084  0.25316841  1
  O  O106  1  0.53094461  0.69635225  0.25287691  1
  O  O107  1  0.18185802  0.48754436  0.25350481  1
  O  O108  1  0.31351862  0.48484823  0.75714696  1
  O  O109  1  0.17804626  0.70377987  0.75697694  1
  O  O110  1  0.54207228  0.83450722  0.75608292  1
