# generated using pymatgen
data_Na3Nb2Si3Ge2(PO8)3
_symmetry_space_group_name_H-M   'P 1'
_cell_length_a   8.69641689
_cell_length_b   8.70555094
_cell_length_c   22.31663835
_cell_angle_alpha   90.37309579
_cell_angle_beta   89.42675409
_cell_angle_gamma   120.08763804
_symmetry_Int_Tables_number   1
_chemical_formula_structural   Na3Nb2Si3Ge2(PO8)3
_chemical_formula_sum   'Na9 Nb6 Si9 Ge6 P9 O72'
_cell_volume   1461.80495662
_cell_formula_units_Z   3
loop_
 _symmetry_equiv_pos_site_id
 _symmetry_equiv_pos_as_xyz
  1  'x, y, z'
loop_
 _atom_site_type_symbol
 _atom_site_label
 _atom_site_symmetry_multiplicity
 _atom_site_fract_x
 _atom_site_fract_y
 _atom_site_fract_z
 _atom_site_occupancy
  Na  Na0  1  0.99972830  0.63276813  0.25062554  1
  Na  Na1  1  0.66569155  0.96756553  0.58358568  1
  Na  Na2  1  0.66721100  0.70063667  0.08304869  1
  Na  Na3  1  0.00956977  0.99992889  0.50160044  1
  Na  Na4  1  0.00972173  0.00951469  0.00165483  1
  Na  Na5  1  0.66869943  0.33484622  0.83344481  1
  Na  Na6  1  0.65887764  0.32535025  0.33130944  1
  Na  Na7  1  0.33324280  0.66660708  0.16681340  1
  Na  Na8  1  0.32487283  0.66109187  0.66530948  1
  Nb  Nb9  1  0.99461808  0.99222672  0.35592882  1
  Nb  Nb10  1  0.98885787  0.99369732  0.85785458  1
  Nb  Nb11  1  0.66744069  0.32991673  0.68804611  1
  Nb  Nb12  1  0.67214057  0.34038869  0.97939677  1
  Nb  Nb13  1  0.66296037  0.33085561  0.47595136  1
  Nb  Nb14  1  0.33193554  0.66578236  0.80926358  1
  Si  Si15  1  0.69936353  0.70502051  0.24687740  1
  Si  Si16  1  0.00049760  0.71747323  0.74714453  1
  Si  Si17  1  0.72017653  0.99888840  0.74603249  1
  Si  Si18  1  0.36084795  0.03309071  0.58313314  1
  Si  Si19  1  0.96794382  0.62940845  0.08710381  1
  Si  Si20  1  0.60816510  0.66455129  0.92097255  1
  Si  Si21  1  0.05487451  0.38485976  0.91962862  1
  Si  Si22  1  0.60701378  0.94037890  0.41709739  1
  Si  Si23  1  0.06081784  0.66580605  0.41531593  1
  Ge  Ge24  1  0.00623434  0.99573021  0.64733381  1
  Ge  Ge25  1  0.99855845  0.99774850  0.14842140  1
  Ge  Ge26  1  0.66814966  0.33561540  0.18522804  1
  Ge  Ge27  1  0.32479615  0.66480565  0.02035373  1
  Ge  Ge28  1  0.33090602  0.67150808  0.51913646  1
  Ge  Ge29  1  0.34108166  0.66914609  0.31390496  1
  P  P30  1  0.29493438  0.00493705  0.24701955  1
  P  P31  1  0.99946877  0.28644282  0.24745824  1
  P  P32  1  0.27903674  0.27991162  0.74774552  1
  P  P33  1  0.96742189  0.33737878  0.58189181  1
  P  P34  1  0.66458623  0.62648852  0.58284514  1
  P  P35  1  0.66716815  0.04589522  0.08644358  1
  P  P36  1  0.37101907  0.32857069  0.08680759  1
  P  P37  1  0.33312472  0.94931406  0.91938791  1
  P  P38  1  0.33176246  0.39080736  0.41708031  1
  O  O39  1  0.21193092  0.03811458  0.30395370  1
  O  O40  1  0.83567413  0.79758115  0.30456098  1
  O  O41  1  0.97076274  0.17255009  0.30388359  1
  O  O42  1  0.20275405  0.17146152  0.80542211  1
  O  O43  1  0.97019382  0.80249490  0.80835749  1
  O  O44  1  0.83665090  0.03394992  0.80687428  1
  O  O45  1  0.80629680  0.97121587  0.68515373  1
  O  O46  1  0.16668646  0.20127733  0.69158882  1
  O  O47  1  0.03863285  0.83818795  0.68860913  1
  O  O48  1  0.79295447  0.83119817  0.18813645  1
  O  O49  1  0.03485098  0.20206344  0.19146168  1
  O  O50  1  0.16769744  0.96315036  0.19272430  1
  O  O51  1  0.87932921  0.36954569  0.63826086  1
  O  O52  1  0.49919349  0.12907026  0.63937409  1
  O  O53  1  0.63799727  0.51009769  0.63843504  1
  O  O54  1  0.87336329  0.50182172  0.14542378  1
  O  O55  1  0.63147595  0.13109864  0.14206309  1
  O  O56  1  0.49918485  0.37020948  0.14078623  1
  O  O57  1  0.45414917  0.29523674  0.02979979  1
  O  O58  1  0.83159800  0.53705897  0.02948058  1
  O  O59  1  0.69626669  0.16016766  0.02998418  1
  O  O60  1  0.46477106  0.16370627  0.52575249  1
  O  O61  1  0.69767178  0.54020023  0.52718694  1
  O  O62  1  0.84178336  0.30159562  0.52786760  1
  O  O63  1  0.53003959  0.70212187  0.98235949  1
  O  O64  1  0.17313194  0.47116987  0.97824890  1
  O  O65  1  0.29966200  0.83561300  0.97543326  1
  O  O66  1  0.53720192  0.82999985  0.47938823  1
  O  O67  1  0.29984243  0.46828575  0.47454017  1
  O  O68  1  0.17431941  0.70173805  0.47553523  1
  O  O69  1  0.13506248  0.62930382  0.35218783  1
  O  O70  1  0.49171663  0.86200876  0.35709884  1
  O  O71  1  0.36822865  0.50098374  0.35948757  1
  O  O72  1  0.13266625  0.50112599  0.85859024  1
  O  O73  1  0.36498461  0.87007408  0.86159184  1
  O  O74  1  0.49774630  0.63725841  0.85998550  1
  O  O75  1  0.03754700  0.84246091  0.40876440  1
  O  O76  1  0.81080324  0.97389305  0.40966643  1
  O  O77  1  0.16886685  0.20239983  0.41030008  1
  O  O78  1  0.03379024  0.18941732  0.91306630  1
  O  O79  1  0.16944840  0.97136443  0.91278481  1
  O  O80  1  0.80901493  0.83644946  0.91509085  1
  O  O81  1  0.97280977  0.16423425  0.58902238  1
  O  O82  1  0.17229630  0.02622974  0.58971332  1
  O  O83  1  0.82976642  0.81499333  0.58817182  1
  O  O84  1  0.97430253  0.82183246  0.09260970  1
  O  O85  1  0.83673783  0.02836921  0.09153396  1
  O  O86  1  0.18578968  0.16166241  0.09417146  1
  O  O87  1  0.69550557  0.17323527  0.74233276  1
  O  O88  1  0.46776923  0.30392260  0.74145810  1
  O  O89  1  0.82340786  0.52150673  0.74227287  1
  O  O90  1  0.69260527  0.51216270  0.24101321  1
  O  O91  1  0.82994765  0.30459414  0.24205422  1
  O  O92  1  0.48053791  0.17168507  0.23937728  1
  O  O93  1  0.63128270  0.48931250  0.92497418  1
  O  O94  1  0.85313261  0.35570333  0.92512961  1
  O  O95  1  0.49982709  0.13487704  0.92508466  1
  O  O96  1  0.63585752  0.14183208  0.42323056  1
  O  O97  1  0.49907198  0.36974229  0.42284159  1
  O  O98  1  0.85820751  0.49662404  0.42296668  1
  O  O99  1  0.36285814  0.50159387  0.08018121  1
  O  O100  1  0.16158538  0.64840787  0.07701295  1
  O  O101  1  0.50393938  0.85665590  0.07986313  1
  O  O102  1  0.35808550  0.84400029  0.57711308  1
  O  O103  1  0.49565870  0.64190244  0.57742129  1
  O  O104  1  0.15116949  0.50318267  0.57528037  1
  O  O105  1  0.30391618  0.83187339  0.25357739  1
  O  O106  1  0.50501151  0.68537431  0.25719623  1
  O  O107  1  0.16280813  0.47642844  0.25380634  1
  O  O108  1  0.30327255  0.46749006  0.75315611  1
  O  O109  1  0.17263423  0.69238414  0.75365047  1
  O  O110  1  0.52407925  0.82587692  0.75299078  1
