# generated using pymatgen
data_Na3TaGaSi2PO12
_symmetry_space_group_name_H-M   'P 1'
_cell_length_a   15.54279545
_cell_length_b   26.81986656
_cell_length_c   8.95781097
_cell_angle_alpha   90.00000000
_cell_angle_beta   125.16066060
_cell_angle_gamma   90.00000000
_symmetry_Int_Tables_number   1
_chemical_formula_structural   Na3TaGaSi2PO12
_chemical_formula_sum   'Na36 Ta12 Ga12 Si24 P12 O144'
_cell_volume   3052.78983133
_cell_formula_units_Z   12
loop_
 _symmetry_equiv_pos_site_id
 _symmetry_equiv_pos_as_xyz
  1  'x, y, z'
loop_
 _atom_site_type_symbol
 _atom_site_label
 _atom_site_symmetry_multiplicity
 _atom_site_fract_x
 _atom_site_fract_y
 _atom_site_fract_z
 _atom_site_occupancy
  Na  Na0  1  0.25851144  0.25355483  0.01190756  1
  Na  Na1  1  0.25136938  0.58653424  0.02145607  1
  Na  Na2  1  0.25258429  0.91724988  0.02295730  1
  Na  Na3  1  0.75851144  0.24644517  0.51190756  1
  Na  Na4  1  0.75258429  0.58275012  0.52295730  1
  Na  Na5  1  0.75136938  0.91346576  0.52145607  1
  Na  Na6  1  0.75136938  0.08653424  0.02145607  1
  Na  Na7  1  0.75258429  0.41724988  0.02295730  1
  Na  Na8  1  0.75851144  0.75355483  0.01190756  1
  Na  Na9  1  0.25258429  0.08275012  0.52295730  1
  Na  Na10  1  0.25136938  0.41346576  0.52145607  1
  Na  Na11  1  0.25851144  0.74644517  0.51190756  1
  Na  Na12  1  0.49535383  0.03700569  0.75181335  1
  Na  Na13  1  0.49785126  0.37134472  0.75845985  1
  Na  Na14  1  0.49579934  0.70366771  0.74915922  1
  Na  Na15  1  0.49579934  0.29633229  0.24915922  1
  Na  Na16  1  0.49785126  0.62865528  0.25845985  1
  Na  Na17  1  0.49535383  0.96299431  0.25181335  1
  Na  Na18  1  0.99579934  0.20366771  0.74915922  1
  Na  Na19  1  0.99535383  0.53700569  0.75181335  1
  Na  Na20  1  0.99785126  0.87134472  0.75845985  1
  Na  Na21  1  0.99785126  0.12865528  0.25845985  1
  Na  Na22  1  0.99535383  0.46299431  0.25181335  1
  Na  Na23  1  0.99579934  0.79633229  0.24915922  1
  Na  Na24  1  0.81434492  0.64556168  0.20897087  1
  Na  Na25  1  0.81484340  0.97981896  0.21765415  1
  Na  Na26  1  0.19663878  0.30900136  0.28442212  1
  Na  Na27  1  0.19663878  0.69099864  0.78442212  1
  Na  Na28  1  0.81484340  0.02018104  0.71765415  1
  Na  Na29  1  0.81434492  0.35443832  0.70897087  1
  Na  Na30  1  0.31434492  0.14556168  0.20897087  1
  Na  Na31  1  0.31484340  0.47981896  0.21765415  1
  Na  Na32  1  0.69663878  0.80900136  0.28442212  1
  Na  Na33  1  0.69663878  0.19099864  0.78442212  1
  Na  Na34  1  0.31484340  0.52018104  0.71765415  1
  Na  Na35  1  0.31434492  0.85443832  0.70897087  1
  Ta  Ta36  1  0.10890687  0.24773105  0.57060518  1
  Ta  Ta37  1  0.10457006  0.58282914  0.56814355  1
  Ta  Ta38  1  0.10658295  0.91760580  0.56744407  1
  Ta  Ta39  1  0.10658295  0.08239420  0.06744407  1
  Ta  Ta40  1  0.10457006  0.41717086  0.06814355  1
  Ta  Ta41  1  0.10890687  0.75226895  0.07060518  1
  Ta  Ta42  1  0.60457006  0.08282914  0.56814355  1
  Ta  Ta43  1  0.60658295  0.41760580  0.56744407  1
  Ta  Ta44  1  0.60890687  0.74773105  0.57060518  1
  Ta  Ta45  1  0.60890687  0.25226895  0.07060518  1
  Ta  Ta46  1  0.60658295  0.58239420  0.06744407  1
  Ta  Ta47  1  0.60457006  0.91717086  0.06814355  1
  Ga  Ga48  1  0.89830566  0.24914199  0.94419537  1
  Ga  Ga49  1  0.89269329  0.58126879  0.93592955  1
  Ga  Ga50  1  0.89335978  0.91233456  0.93887100  1
  Ga  Ga51  1  0.89335978  0.08766544  0.43887100  1
  Ga  Ga52  1  0.89269329  0.41873121  0.43592955  1
  Ga  Ga53  1  0.89830566  0.75085801  0.44419537  1
  Ga  Ga54  1  0.39269329  0.08126879  0.93592955  1
  Ga  Ga55  1  0.39335978  0.41233456  0.93887100  1
  Ga  Ga56  1  0.39830566  0.74914199  0.94419537  1
  Ga  Ga57  1  0.39830566  0.25085801  0.44419537  1
  Ga  Ga58  1  0.39335978  0.58766544  0.43887100  1
  Ga  Ga59  1  0.39269329  0.91873121  0.43592955  1
  Si  Si60  1  0.35354121  0.29854454  0.74917034  1
  Si  Si61  1  0.35487328  0.63251530  0.75413529  1
  Si  Si62  1  0.35380653  0.96639904  0.74994309  1
  Si  Si63  1  0.64529187  0.29794279  0.73963489  1
  Si  Si64  1  0.64580107  0.62861412  0.73967411  1
  Si  Si65  1  0.64576397  0.96231121  0.74025699  1
  Si  Si66  1  0.64576397  0.03768879  0.24025699  1
  Si  Si67  1  0.64580107  0.37138588  0.23967411  1
  Si  Si68  1  0.64529187  0.70205721  0.23963489  1
  Si  Si69  1  0.35380653  0.03360096  0.24994309  1
  Si  Si70  1  0.35487328  0.36748470  0.25413529  1
  Si  Si71  1  0.35354121  0.70145546  0.24917034  1
  Si  Si72  1  0.85487328  0.13251530  0.75413529  1
  Si  Si73  1  0.85380653  0.46639904  0.74994309  1
  Si  Si74  1  0.85354121  0.79854454  0.74917034  1
  Si  Si75  1  0.14580107  0.12861412  0.73967411  1
  Si  Si76  1  0.14576397  0.46231121  0.74025699  1
  Si  Si77  1  0.14529187  0.79794279  0.73963489  1
  Si  Si78  1  0.14529187  0.20205721  0.23963489  1
  Si  Si79  1  0.14576397  0.53768879  0.24025699  1
  Si  Si80  1  0.14580107  0.87138588  0.23967411  1
  Si  Si81  1  0.85354121  0.20145546  0.24917034  1
  Si  Si82  1  0.85380653  0.53360096  0.24994309  1
  Si  Si83  1  0.85487328  0.86748470  0.25413529  1
  P  P84  1  0.00134189  0.32069996  0.74671837  1
  P  P85  1  0.99433595  0.65489463  0.74237077  1
  P  P86  1  0.99829945  0.98769043  0.73957116  1
  P  P87  1  0.99829945  0.01230957  0.23957116  1
  P  P88  1  0.99433595  0.34510537  0.24237077  1
  P  P89  1  0.00134189  0.67930004  0.24671837  1
  P  P90  1  0.49433595  0.15489463  0.74237077  1
  P  P91  1  0.49829945  0.48769043  0.73957116  1
  P  P92  1  0.50134189  0.82069996  0.74671837  1
  P  P93  1  0.50134189  0.17930004  0.24671837  1
  P  P94  1  0.49829945  0.51230957  0.23957116  1
  P  P95  1  0.49433595  0.84510537  0.24237077  1
  O  O96  1  0.14662572  0.19167063  0.74096465  1
  O  O97  1  0.14863506  0.52587161  0.74279000  1
  O  O98  1  0.14760387  0.85998675  0.74022835  1
  O  O99  1  0.84781291  0.19289225  0.76036968  1
  O  O100  1  0.85135837  0.52610112  0.76013965  1
  O  O101  1  0.84862039  0.85905737  0.75744146  1
  O  O102  1  0.84862039  0.14094263  0.25744146  1
  O  O103  1  0.85135837  0.47389888  0.26013965  1
  O  O104  1  0.84781291  0.80710775  0.26036968  1
  O  O105  1  0.14760387  0.14001325  0.24022835  1
  O  O106  1  0.14863506  0.47412839  0.24279000  1
  O  O107  1  0.14662572  0.80832937  0.24096465  1
  O  O108  1  0.64863506  0.02587161  0.74279000  1
  O  O109  1  0.64760387  0.35998675  0.74022835  1
  O  O110  1  0.64662572  0.69167063  0.74096465  1
  O  O111  1  0.35135837  0.02610112  0.76013965  1
  O  O112  1  0.34862039  0.35905737  0.75744146  1
  O  O113  1  0.34781291  0.69289225  0.76036968  1
  O  O114  1  0.34781291  0.30710775  0.26036968  1
  O  O115  1  0.34862039  0.64094263  0.25744146  1
  O  O116  1  0.35135837  0.97389888  0.26013965  1
  O  O117  1  0.64662572  0.30832937  0.24096465  1
  O  O118  1  0.64760387  0.64001325  0.24022835  1
  O  O119  1  0.64863506  0.97412839  0.24279000  1
  O  O120  1  0.43191241  0.18436577  0.56400497  1
  O  O121  1  0.43290505  0.51917575  0.56731264  1
  O  O122  1  0.43727788  0.85445646  0.58249118  1
  O  O123  1  0.56142466  0.18991844  0.91031678  1
  O  O124  1  0.56076317  0.52204879  0.91285314  1
  O  O125  1  0.56816578  0.85284418  0.92736378  1
  O  O126  1  0.56816578  0.14715582  0.42736378  1
  O  O127  1  0.56076317  0.47795121  0.41285314  1
  O  O128  1  0.56142466  0.81008156  0.41031678  1
  O  O129  1  0.43727788  0.14554354  0.08249118  1
  O  O130  1  0.43290505  0.48082425  0.06731264  1
  O  O131  1  0.43191241  0.81563423  0.06400497  1
  O  O132  1  0.93290505  0.01917575  0.56731264  1
  O  O133  1  0.93727788  0.35445646  0.58249118  1
  O  O134  1  0.93191241  0.68436577  0.56400497  1
  O  O135  1  0.06076317  0.02204879  0.91285314  1
  O  O136  1  0.06816578  0.35284418  0.92736378  1
  O  O137  1  0.06142466  0.68991844  0.91031678  1
  O  O138  1  0.06142466  0.31008156  0.41031678  1
  O  O139  1  0.06816578  0.64715582  0.42736378  1
  O  O140  1  0.06076317  0.97795121  0.41285314  1
  O  O141  1  0.93191241  0.31563423  0.06400497  1
  O  O142  1  0.93727788  0.64554354  0.08249118  1
  O  O143  1  0.93290505  0.98082425  0.06731264  1
  O  O144  1  0.25243240  0.27358952  0.73652510  1
  O  O145  1  0.25389427  0.60791609  0.74692230  1
  O  O146  1  0.25497274  0.93882457  0.73999069  1
  O  O147  1  0.74946895  0.27724467  0.75857378  1
  O  O148  1  0.75067593  0.60854698  0.76671715  1
  O  O149  1  0.75316546  0.94607403  0.76383924  1
  O  O150  1  0.75316546  0.05392597  0.26383924  1
  O  O151  1  0.75067593  0.39145302  0.26671715  1
  O  O152  1  0.74946895  0.72275533  0.25857378  1
  O  O153  1  0.25497274  0.06117543  0.23999069  1
  O  O154  1  0.25389427  0.39208391  0.24692230  1
  O  O155  1  0.25243240  0.72641048  0.23652510  1
  O  O156  1  0.75389427  0.10791609  0.74692230  1
  O  O157  1  0.75497274  0.43882457  0.73999069  1
  O  O158  1  0.75243240  0.77358952  0.73652510  1
  O  O159  1  0.25067593  0.10854698  0.76671715  1
  O  O160  1  0.25316546  0.44607403  0.76383924  1
  O  O161  1  0.24946895  0.77724467  0.75857378  1
  O  O162  1  0.24946895  0.22275533  0.25857378  1
  O  O163  1  0.25316546  0.55392597  0.26383924  1
  O  O164  1  0.25067593  0.89145302  0.26671715  1
  O  O165  1  0.75243240  0.22641048  0.23652510  1
  O  O166  1  0.75497274  0.56117543  0.23999069  1
  O  O167  1  0.75389427  0.89208391  0.24692230  1
  O  O168  1  0.35131866  0.28639431  0.56939360  1
  O  O169  1  0.35389540  0.61670029  0.58134294  1
  O  O170  1  0.35924262  0.95008657  0.58455047  1
  O  O171  1  0.63915303  0.28433443  0.91491693  1
  O  O172  1  0.63997143  0.61761907  0.91993237  1
  O  O173  1  0.64328208  0.95022169  0.92331584  1
  O  O174  1  0.64328208  0.04977831  0.42331584  1
  O  O175  1  0.63997143  0.38238093  0.41993237  1
  O  O176  1  0.63915303  0.71566557  0.41491693  1
  O  O177  1  0.35924262  0.04991343  0.08455047  1
  O  O178  1  0.35389540  0.38329971  0.08134294  1
  O  O179  1  0.35131866  0.71360569  0.06939360  1
  O  O180  1  0.85389540  0.11670029  0.58134294  1
  O  O181  1  0.85924262  0.45008657  0.58455047  1
  O  O182  1  0.85131866  0.78639431  0.56939360  1
  O  O183  1  0.13997143  0.11761907  0.91993237  1
  O  O184  1  0.14328208  0.45022169  0.92331584  1
  O  O185  1  0.13915303  0.78433443  0.91491693  1
  O  O186  1  0.13915303  0.21566557  0.41491693  1
  O  O187  1  0.14328208  0.54977831  0.42331584  1
  O  O188  1  0.13997143  0.88238093  0.41993237  1
  O  O189  1  0.85131866  0.21360569  0.06939360  1
  O  O190  1  0.85924262  0.54991343  0.08455047  1
  O  O191  1  0.85389540  0.88329971  0.08134294  1
  O  O192  1  0.46180061  0.27579951  0.93460838  1
  O  O193  1  0.46094895  0.60793861  0.94067969  1
  O  O194  1  0.46141701  0.94104264  0.93935377  1
  O  O195  1  0.54149066  0.27484656  0.55722749  1
  O  O196  1  0.53809530  0.60961118  0.55564795  1
  O  O197  1  0.54010226  0.94280273  0.55659849  1
  O  O198  1  0.54010226  0.05719727  0.05659849  1
  O  O199  1  0.53809530  0.39038882  0.05564795  1
  O  O200  1  0.54149066  0.72515344  0.05722749  1
  O  O201  1  0.46141701  0.05895736  0.43935377  1
  O  O202  1  0.46094895  0.39206139  0.44067969  1
  O  O203  1  0.46180061  0.72420049  0.43460838  1
  O  O204  1  0.96094895  0.10793861  0.94067969  1
  O  O205  1  0.96141701  0.44104264  0.93935377  1
  O  O206  1  0.96180061  0.77579951  0.93460838  1
  O  O207  1  0.03809530  0.10961118  0.55564795  1
  O  O208  1  0.04010226  0.44280273  0.55659849  1
  O  O209  1  0.04149066  0.77484656  0.55722749  1
  O  O210  1  0.04149066  0.22515344  0.05722749  1
  O  O211  1  0.04010226  0.55719727  0.05659849  1
  O  O212  1  0.03809530  0.89038882  0.05564795  1
  O  O213  1  0.96180061  0.22420049  0.43460838  1
  O  O214  1  0.96141701  0.55895736  0.43935377  1
  O  O215  1  0.96094895  0.89206139  0.44067969  1
  O  O216  1  0.08160280  0.28661113  0.74378805  1
  O  O217  1  0.08186132  0.62284449  0.74382803  1
  O  O218  1  0.08274646  0.95495805  0.74359014  1
  O  O219  1  0.92392671  0.28656382  0.75520689  1
  O  O220  1  0.92369500  0.61820682  0.75437729  1
  O  O221  1  0.92296418  0.95307607  0.74933292  1
  O  O222  1  0.92296418  0.04692393  0.24933292  1
  O  O223  1  0.92369500  0.38179318  0.25437729  1
  O  O224  1  0.92392671  0.71343618  0.25520689  1
  O  O225  1  0.08274646  0.04504195  0.24359014  1
  O  O226  1  0.08186132  0.37715551  0.24382803  1
  O  O227  1  0.08160280  0.71338887  0.24378805  1
  O  O228  1  0.58186132  0.12284449  0.74382803  1
  O  O229  1  0.58274646  0.45495805  0.74359014  1
  O  O230  1  0.58160280  0.78661113  0.74378805  1
  O  O231  1  0.42369500  0.11820682  0.75437729  1
  O  O232  1  0.42296418  0.45307607  0.74933292  1
  O  O233  1  0.42392671  0.78656382  0.75520689  1
  O  O234  1  0.42392671  0.21343618  0.25520689  1
  O  O235  1  0.42296418  0.54692393  0.24933292  1
  O  O236  1  0.42369500  0.88179318  0.25437729  1
  O  O237  1  0.58160280  0.21338887  0.24378805  1
  O  O238  1  0.58274646  0.54504195  0.24359014  1
  O  O239  1  0.58186132  0.87715551  0.24382803  1
