# generated using pymatgen
data_Na9Nb4Zn2Si6(PO12)3
_symmetry_space_group_name_H-M   'P 1'
_cell_length_a   9.10212467
_cell_length_b   27.24326108
_cell_length_c   22.29730413
_cell_angle_alpha   89.94099523
_cell_angle_beta   90.03787356
_cell_angle_gamma   120.04418371
_symmetry_Int_Tables_number   1
_chemical_formula_structural   Na9Nb4Zn2Si6(PO12)3
_chemical_formula_sum   'Na54 Nb24 Zn12 Si36 P18 O216'
_cell_volume   4786.20277475
_cell_formula_units_Z   6
loop_
 _symmetry_equiv_pos_site_id
 _symmetry_equiv_pos_as_xyz
  1  'x, y, z'
loop_
 _atom_site_type_symbol
 _atom_site_label
 _atom_site_symmetry_multiplicity
 _atom_site_fract_x
 _atom_site_fract_y
 _atom_site_fract_z
 _atom_site_occupancy
  Na  Na0  1  0.01457355  0.99940092  0.49343170  1
  Na  Na1  1  0.00489514  0.33021792  0.50213465  1
  Na  Na2  1  0.99722252  0.66665827  0.49957090  1
  Na  Na3  1  0.98943222  0.00532572  0.00043351  1
  Na  Na4  1  0.01524118  0.33870002  -0.00006090  1
  Na  Na5  1  0.00311587  0.66636511  0.00968722  1
  Na  Na6  1  0.68000561  0.11137692  0.82928000  1
  Na  Na7  1  0.64881888  0.44427145  0.84417079  1
  Na  Na8  1  0.67989684  0.77578397  0.82358872  1
  Na  Na9  1  0.66221985  0.10670933  0.32391875  1
  Na  Na10  1  0.66915041  0.44249619  0.33931413  1
  Na  Na11  1  0.66750428  0.77928705  0.33335122  1
  Na  Na12  1  0.32658197  0.22011740  0.16548020  1
  Na  Na13  1  0.31919673  0.55639495  0.17213887  1
  Na  Na14  1  0.33719643  0.89279951  0.16184951  1
  Na  Na15  1  0.32249774  0.21833745  0.67037350  1
  Na  Na16  1  0.34223638  0.55620215  0.67325179  1
  Na  Na17  1  0.30125010  0.88561680  0.65879664  1
  Na  Na18  1  0.61759053  0.65963063  0.25591617  1
  Na  Na19  1  0.37969359  0.12012948  0.24457247  1
  Na  Na20  1  0.36611119  0.46148188  0.25690505  1
  Na  Na21  1  0.35498482  0.78697362  0.24322831  1
  Na  Na22  1  0.98402023  0.20496091  0.24154391  1
  Na  Na23  1  0.02344029  0.54892010  0.25114794  1
  Na  Na24  1  0.60816337  0.20386893  0.74783006  1
  Na  Na25  1  0.61868385  0.54303025  0.75877388  1
  Na  Na26  1  0.62376659  0.87011084  0.74370757  1
  Na  Na27  1  0.99569199  0.12854610  0.74997455  1
  Na  Na28  1  0.01886464  0.46239726  0.75614701  1
  Na  Na29  1  0.38569347  0.00506579  0.74378519  1
  Na  Na30  1  0.37084467  0.32796317  0.75716038  1
  Na  Na31  1  0.38883484  0.66722148  0.74932739  1
  Na  Na32  1  0.30964184  0.78465947  0.57684623  1
  Na  Na33  1  0.02144196  0.56483959  0.57699003  1
  Na  Na34  1  0.66910792  0.32433723  0.57740362  1
  Na  Na35  1  0.65220442  0.98547666  0.57748926  1
  Na  Na36  1  0.30818333  0.32684767  0.07550455  1
  Na  Na37  1  0.30829259  0.98423674  0.07633199  1
  Na  Na38  1  0.66495211  0.22847462  0.08744824  1
  Na  Na39  1  0.68483448  0.57181028  0.08718564  1
  Na  Na40  1  0.65202982  0.90036130  0.07378256  1
  Na  Na41  1  0.05806072  0.77844585  0.08395389  1
  Na  Na42  1  0.95527526  0.54965869  0.92328446  1
  Na  Na43  1  0.98155344  0.89153223  0.92000413  1
  Na  Na44  1  0.69625158  0.34848024  0.92417121  1
  Na  Na45  1  0.34095900  0.10331340  0.91209157  1
  Na  Na46  1  0.32991978  0.76976582  0.92225288  1
  Na  Na47  1  0.96687923  0.09360892  0.40996315  1
  Na  Na48  1  0.95109670  0.43542214  0.42314339  1
  Na  Na49  1  0.98462147  0.77204790  0.42365441  1
  Na  Na50  1  0.31055977  0.00740615  0.41520833  1
  Na  Na51  1  0.35101743  0.35060491  0.42662732  1
  Na  Na52  1  0.69772135  0.54996655  0.42332086  1
  Na  Na53  1  0.71637032  0.89664153  0.40934384  1
  Nb  Nb54  1  0.99191414  0.33263641  0.35435152  1
  Nb  Nb55  1  0.01014266  0.66788505  0.35222339  1
  Nb  Nb56  1  0.99410404  0.99978121  0.85513085  1
  Nb  Nb57  1  0.00668422  0.33480382  0.85559297  1
  Nb  Nb58  1  0.99171820  0.66464777  0.85650539  1
  Nb  Nb59  1  0.00280099  0.99893665  0.64288483  1
  Nb  Nb60  1  0.00180359  0.33278107  0.64416213  1
  Nb  Nb61  1  0.99934576  0.66949953  0.64437223  1
  Nb  Nb62  1  0.99757201  0.00045850  0.14836562  1
  Nb  Nb63  1  0.99448112  0.33298386  0.14583246  1
  Nb  Nb64  1  0.66714964  0.44423373  0.68615198  1
  Nb  Nb65  1  0.66646582  0.44237978  0.18553032  1
  Nb  Nb66  1  0.66729703  0.77639367  0.18899361  1
  Nb  Nb67  1  0.67237888  0.11079206  0.97991501  1
  Nb  Nb68  1  0.66932859  0.77820517  0.97697573  1
  Nb  Nb69  1  0.66812204  0.11379406  0.48211933  1
  Nb  Nb70  1  0.66815440  0.77767398  0.48023637  1
  Nb  Nb71  1  0.33029560  0.22094401  0.01784778  1
  Nb  Nb72  1  0.32883766  0.55515855  0.02067352  1
  Nb  Nb73  1  0.33393882  0.22164125  0.52323694  1
  Nb  Nb74  1  0.33968213  0.55641662  0.52203291  1
  Nb  Nb75  1  0.33953498  0.22210669  0.31285414  1
  Nb  Nb76  1  0.32797835  0.88971185  0.31290077  1
  Nb  Nb77  1  0.33015671  0.88837805  0.81240442  1
  Zn  Zn78  1  0.99692253  0.99623666  0.34791990  1
  Zn  Zn79  1  0.01026362  0.66980588  0.14951147  1
  Zn  Zn80  1  0.67465696  0.11302533  0.67861629  1
  Zn  Zn81  1  0.66922688  0.77609084  0.68622708  1
  Zn  Zn82  1  0.67224250  0.11406664  0.18061154  1
  Zn  Zn83  1  0.65318326  0.44104389  0.98756088  1
  Zn  Zn84  1  0.66351523  0.44282534  0.48965923  1
  Zn  Zn85  1  0.32928443  0.88892401  0.01081013  1
  Zn  Zn86  1  0.32059058  0.88687458  0.51406541  1
  Zn  Zn87  1  0.33631718  0.56020712  0.31766254  1
  Zn  Zn88  1  0.33463388  0.22005510  0.82035191  1
  Zn  Zn89  1  0.33653991  0.55796980  0.81685051  1
  Si  Si90  1  0.28852229  0.33305854  0.25028958  1
  Si  Si91  1  0.29090231  0.66435950  0.24513261  1
  Si  Si92  1  0.70299287  0.23420902  0.24957877  1
  Si  Si93  1  0.70223682  0.90303520  0.25236317  1
  Si  Si94  1  0.99905942  0.43131072  0.25100987  1
  Si  Si95  1  0.99864020  0.76397939  0.24756323  1
  Si  Si96  1  0.29343448  0.43058621  0.75003634  1
  Si  Si97  1  0.28844618  0.76292592  0.75123423  1
  Si  Si98  1  0.00171996  0.57037816  0.74895709  1
  Si  Si99  1  0.99923451  0.90184055  0.74980654  1
  Si  Si100  1  0.70916848  0.00080865  0.74813521  1
  Si  Si101  1  0.70773765  0.33193231  0.74964848  1
  Si  Si102  1  0.95846383  0.11078845  0.58643702  1
  Si  Si103  1  0.95857887  0.44376632  0.58012764  1
  Si  Si104  1  0.37333598  0.34657097  0.58072688  1
  Si  Si105  1  0.37721865  0.68164940  0.58752799  1
  Si  Si106  1  0.66458759  0.20768952  0.58969891  1
  Si  Si107  1  0.66525686  0.54142834  0.58123368  1
  Si  Si108  1  0.96130153  0.20825220  0.08648885  1
  Si  Si109  1  0.96048690  0.87520201  0.08356547  1
  Si  Si110  1  0.66902952  0.34697993  0.07779648  1
  Si  Si111  1  0.66682053  0.68057861  0.08350005  1
  Si  Si112  1  0.37494973  0.11061724  0.08521275  1
  Si  Si113  1  0.37500248  0.44472929  0.08345659  1
  Si  Si114  1  0.62980310  0.22314665  0.91479805  1
  Si  Si115  1  0.62320045  0.89011513  0.91937875  1
  Si  Si116  1  0.03986987  0.12586009  0.91057591  1
  Si  Si117  1  0.04232383  0.79128997  0.91997004  1
  Si  Si118  1  0.33246283  0.65185718  0.91227148  1
  Si  Si119  1  0.33723662  0.98678059  0.91825131  1
  Si  Si120  1  0.62740410  0.32045738  0.41813423  1
  Si  Si121  1  0.62843296  0.65259242  0.41399186  1
  Si  Si122  1  0.33531970  0.12451250  0.41672797  1
  Si  Si123  1  0.33885630  0.79267635  0.41861338  1
  Si  Si124  1  0.04623858  0.22222757  0.41617019  1
  Si  Si125  1  0.04242278  0.89163504  0.41998789  1
  P  P126  1  0.29520250  0.00077324  0.25194858  1
  P  P127  1  0.71229035  0.56940506  0.24723234  1
  P  P128  1  0.99862519  0.09627058  0.25463055  1
  P  P129  1  0.28573994  0.09638143  0.74945774  1
  P  P130  1  0.99608219  0.23674138  0.75145664  1
  P  P131  1  0.71279804  0.66793718  0.74994000  1
  P  P132  1  0.95848329  0.77973510  0.58692143  1
  P  P133  1  0.37517784  0.01284144  0.58586813  1
  P  P134  1  0.66823600  0.87486479  0.58568559  1
  P  P135  1  0.95735397  0.54096481  0.07966113  1
  P  P136  1  0.66737502  0.01535803  0.08716163  1
  P  P137  1  0.37634886  0.77675983  0.08331681  1
  P  P138  1  0.62059225  0.55354211  0.91480614  1
  P  P139  1  0.04391596  0.45873907  0.91306237  1
  P  P140  1  0.33582813  0.32099837  0.91323148  1
  P  P141  1  0.62025261  0.98602109  0.42017468  1
  P  P142  1  0.33052526  0.45949835  0.41353939  1
  P  P143  1  0.03934310  0.55496429  0.41391360  1
  O  O144  1  0.21966344  0.01000241  0.30908464  1
  O  O145  1  0.19966717  0.34469334  0.30899296  1
  O  O146  1  0.18888130  0.67252238  0.30537738  1
  O  O147  1  0.83179232  0.27355713  0.30531650  1
  O  O148  1  0.82632887  0.60011738  0.30417696  1
  O  O149  1  0.80401867  0.92551130  0.31332515  1
  O  O150  1  0.99221257  0.06567085  0.31234230  1
  O  O151  1  0.97657223  0.39353253  0.31225800  1
  O  O152  1  0.97093282  0.72183477  0.30650550  1
  O  O153  1  0.19127083  0.06216767  0.80705078  1
  O  O154  1  0.19867830  0.39065225  0.80985485  1
  O  O155  1  0.17681129  0.72105587  0.80825788  1
  O  O156  1  0.99129581  0.27204080  0.80746190  1
  O  O157  1  0.97095701  0.59914573  0.80980305  1
  O  O158  1  0.99003082  0.93797195  0.80886022  1
  O  O159  1  0.83251446  0.00647086  0.80587410  1
  O  O160  1  0.83411566  0.34186383  0.80866550  1
  O  O161  1  0.81554568  0.66688022  0.80612790  1
  O  O162  1  0.80494362  0.32571963  0.69063915  1
  O  O163  1  0.81724490  0.66653546  0.69424917  1
  O  O164  1  0.80537661  0.99168311  0.68916361  1
  O  O165  1  0.17253242  0.06090107  0.69442027  1
  O  O166  1  0.16739126  0.39428654  0.69441965  1
  O  O167  1  0.17643008  0.73321378  0.68943592  1
  O  O168  1  0.00397865  0.27284105  0.69592565  1
  O  O169  1  0.01526830  0.61134175  0.69127723  1
  O  O170  1  0.02455150  0.94375235  0.69145983  1
  O  O171  1  0.79806909  0.27019528  0.18883917  1
  O  O172  1  0.78597493  0.60443769  0.19056676  1
  O  O173  1  0.80754103  0.94433433  0.19392679  1
  O  O174  1  0.01991335  0.06348294  0.19911151  1
  O  O175  1  0.00982115  0.39236150  0.19618001  1
  O  O176  1  0.04360323  0.74245374  0.18753424  1
  O  O177  1  0.16889010  0.32297637  0.19123585  1
  O  O178  1  0.16524494  0.65240323  0.19085251  1
  O  O179  1  0.17505134  0.99346382  0.19596555  1
  O  O180  1  0.88989174  0.12101122  0.64829288  1
  O  O181  1  0.86327497  0.45432011  0.63874473  1
  O  O182  1  0.87248264  0.78482587  0.64149072  1
  O  O183  1  0.47576665  0.04019227  0.64319682  1
  O  O184  1  0.50353517  0.38123453  0.63824499  1
  O  O185  1  0.47228866  0.70267575  0.64980774  1
  O  O186  1  0.63478235  0.17437239  0.65111908  1
  O  O187  1  0.64145161  0.50115208  0.64049429  1
  O  O188  1  0.63971131  0.83965843  0.64189578  1
  O  O189  1  0.89593054  0.17652119  0.14897171  1
  O  O190  1  0.86472866  0.50265809  0.13691310  1
  O  O191  1  0.84498053  0.83182302  0.13882967  1
  O  O192  1  0.64108331  0.04311475  0.14154239  1
  O  O193  1  0.64303892  0.38295307  0.13468020  1
  O  O194  1  0.64191656  0.70862606  0.14560726  1
  O  O195  1  0.48980080  0.12896246  0.14471911  1
  O  O196  1  0.49983386  0.45686917  0.14379413  1
  O  O197  1  0.48021674  0.77639875  0.13949947  1
  O  O198  1  0.46553096  0.09864702  0.02737235  1
  O  O199  1  0.44521253  0.42547363  0.02850932  1
  O  O200  1  0.48101729  0.77839784  0.02635336  1
  O  O201  1  0.82542043  0.17180819  0.03272743  1
  O  O202  1  0.85530947  0.51328375  0.02299484  1
  O  O203  1  0.84575444  0.84726722  0.02213844  1
  O  O204  1  0.68670664  0.05060821  0.02888729  1
  O  O205  1  0.69879123  0.38023518  0.01670413  1
  O  O206  1  0.68413945  0.72445513  0.02849364  1
  O  O207  1  0.46939577  0.05153262  0.52937003  1
  O  O208  1  0.44408355  0.38150069  0.52005122  1
  O  O209  1  0.48356445  0.72559448  0.53112503  1
  O  O210  1  0.68589127  0.17218558  0.53181565  1
  O  O211  1  0.71430092  0.51892165  0.52256198  1
  O  O212  1  0.68868745  0.84474649  0.52820347  1
  O  O213  1  0.82915317  0.10003449  0.52818581  1
  O  O214  1  0.84320688  0.42761332  0.52107572  1
  O  O215  1  0.85575081  0.77508180  0.52742095  1
  O  O216  1  0.53529777  0.23451065  0.97291041  1
  O  O217  1  0.52357246  0.55908766  0.97084402  1
  O  O218  1  0.54930091  0.89948766  0.98016256  1
  O  O219  1  0.17483827  0.16243583  0.96589597  1
  O  O220  1  0.15641065  0.49004450  0.96934010  1
  O  O221  1  0.15361567  0.81213137  0.98006388  1
  O  O222  1  0.31987060  0.28432863  0.97026227  1
  O  O223  1  0.30506657  0.60774979  0.96859854  1
  O  O224  1  0.28037920  0.94744850  0.97725806  1
  O  O225  1  0.53783517  0.28506653  0.47886506  1
  O  O226  1  0.51958842  0.60860953  0.46972312  1
  O  O227  1  0.54826995  0.95168405  0.47746526  1
  O  O228  1  0.32311434  0.16331249  0.47086563  1
  O  O229  1  0.30774592  0.49097020  0.46896769  1
  O  O230  1  0.29223845  0.81351154  0.47891510  1
  O  O231  1  0.17396517  0.23399566  0.47254628  1
  O  O232  1  0.14712537  0.56071889  0.47097710  1
  O  O233  1  0.16404376  0.90401593  0.47576405  1
  O  O234  1  0.13087043  0.21068588  0.35582355  1
  O  O235  1  0.11648159  0.54725641  0.35639164  1
  O  O236  1  0.14095035  0.88137019  0.36094420  1
  O  O237  1  0.49981384  0.28188062  0.36136584  1
  O  O238  1  0.53282934  0.63126372  0.35176464  1
  O  O239  1  0.50073411  0.95354343  0.36506161  1
  O  O240  1  0.35707707  0.16235356  0.35475863  1
  O  O241  1  0.34632093  0.49201341  0.35596964  1
  O  O242  1  0.36524602  0.83389939  0.36012494  1
  O  O243  1  0.10714989  0.15848860  0.84850097  1
  O  O244  1  0.12329956  0.49173341  0.85536657  1
  O  O245  1  0.14250235  0.83514725  0.86345248  1
  O  O246  1  0.35361449  0.29287723  0.85642955  1
  O  O247  1  0.36421536  0.63020981  0.84994105  1
  O  O248  1  0.35948490  0.95396643  0.85942392  1
  O  O249  1  0.51457067  0.20671471  0.85545329  1
  O  O250  1  0.52650317  0.54760225  0.85625367  1
  O  O251  1  0.49966608  0.88033497  0.86089727  1
  O  O252  1  0.03258362  0.28003649  0.40967346  1
  O  O253  1  0.02289039  0.61023348  0.41176788  1
  O  O254  1  0.00824256  0.94372446  0.41230150  1
  O  O255  1  0.81772740  0.32617282  0.41272274  1
  O  O256  1  0.81771377  0.65699786  0.41486413  1
  O  O257  1  0.80032390  0.99677366  0.41121765  1
  O  O258  1  0.16773694  0.06320829  0.41712017  1
  O  O259  1  0.16395315  0.39922597  0.41463664  1
  O  O260  1  0.16869872  0.72929902  0.40566836  1
  O  O261  1  0.03397351  0.06399063  0.91336518  1
  O  O262  1  0.02901949  0.39829994  0.91315248  1
  O  O263  1  0.01349701  0.72764963  0.90688018  1
  O  O264  1  0.16829458  0.32486168  0.91316454  1
  O  O265  1  0.15368635  0.65564064  0.91369636  1
  O  O266  1  0.17456421  0.99738248  0.90633204  1
  O  O267  1  0.81676104  0.28207031  0.91206253  1
  O  O268  1  0.80041860  0.61056264  0.91530217  1
  O  O269  1  0.82088354  0.94300786  0.91036021  1
  O  O270  1  0.96926316  0.05127004  0.58707286  1
  O  O271  1  0.98342073  0.38896214  0.59236164  1
  O  O272  1  0.96800053  0.72233478  0.58551739  1
  O  O273  1  0.19591589  0.00883706  0.58680127  1
  O  O274  1  0.18287126  0.33638607  0.59352350  1
  O  O275  1  0.18484348  0.67617509  0.58467811  1
  O  O276  1  0.83386850  0.27200034  0.58645305  1
  O  O277  1  0.83047624  0.60547866  0.59289837  1
  O  O278  1  0.83603653  0.93481890  0.58684002  1
  O  O279  1  0.97903001  0.27223624  0.08460993  1
  O  O280  1  0.97507971  0.59923444  0.08652339  1
  O  O281  1  0.97001850  0.93774048  0.09083040  1
  O  O282  1  0.83594137  0.01099928  0.09018704  1
  O  O283  1  0.82669388  0.33525910  0.09032293  1
  O  O284  1  0.83304716  0.67421961  0.08305697  1
  O  O285  1  0.18607439  0.05275523  0.09102862  1
  O  O286  1  0.18364098  0.38978810  0.09512593  1
  O  O287  1  0.20116143  0.72424223  0.07972264  1
  O  O288  1  0.68860023  0.05596490  0.74867849  1
  O  O289  1  0.70313688  0.39215733  0.74516935  1
  O  O290  1  0.69682391  0.72009550  0.75166627  1
  O  O291  1  0.45853563  0.09999432  0.75044166  1
  O  O292  1  0.47703324  0.43195782  0.74560667  1
  O  O293  1  0.47091105  0.76761544  0.75333520  1
  O  O294  1  0.83269504  0.17973861  0.75455220  1
  O  O295  1  0.82414251  0.50818349  0.74428426  1
  O  O296  1  0.82762753  0.84245388  0.74877125  1
  O  O297  1  0.68674660  0.17310126  0.25426627  1
  O  O298  1  0.70979489  0.51082341  0.24580842  1
  O  O299  1  0.66977116  0.83812080  0.23857202  1
  O  O300  1  0.84938970  0.10611316  0.24874367  1
  O  O301  1  0.82840400  0.43753729  0.24309606  1
  O  O302  1  0.82286089  0.76763752  0.24756650  1
  O  O303  1  0.47008615  0.05240277  0.24211781  1
  O  O304  1  0.47494587  0.39137210  0.24277347  1
  O  O305  1  0.47475935  0.72513572  0.24688032  1
  O  O306  1  0.65003579  0.16744929  0.92940141  1
  O  O307  1  0.65901826  0.50514657  0.92175532  1
  O  O308  1  0.64048521  0.83203661  0.91996850  1
  O  O309  1  0.85167512  0.11583566  0.92736024  1
  O  O310  1  0.86437010  0.45008859  0.91779079  1
  O  O311  1  0.85668707  0.78840141  0.92204974  1
  O  O312  1  0.50377463  0.05079151  0.92155119  1
  O  O313  1  0.49287224  0.37995943  0.91801909  1
  O  O314  1  0.48678322  0.71699260  0.92721500  1
  O  O315  1  0.62473048  0.04469923  0.42126035  1
  O  O316  1  0.64505097  0.38192644  0.41293866  1
  O  O317  1  0.66148025  0.71701444  0.42946502  1
  O  O318  1  0.50563832  0.11797572  0.42382316  1
  O  O319  1  0.48621448  0.45224234  0.41957297  1
  O  O320  1  0.51402647  0.78847446  0.42193328  1
  O  O321  1  0.86142898  0.16395968  0.42521021  1
  O  O322  1  0.85817431  0.50383910  0.41902832  1
  O  O323  1  0.85534957  0.83104755  0.42256947  1
  O  O324  1  0.35039142  0.16632121  0.07086860  1
  O  O325  1  0.36488046  0.50321640  0.07671765  1
  O  O326  1  0.36997075  0.83187965  0.08780852  1
  O  O327  1  0.15459202  0.22030008  0.07193701  1
  O  O328  1  0.13684265  0.54472879  0.07703671  1
  O  O329  1  0.14491994  0.88137287  0.08550856  1
  O  O330  1  0.49333691  0.28433460  0.07991151  1
  O  O331  1  0.49443544  0.61738136  0.07338409  1
  O  O332  1  0.51665929  0.95479355  0.08085473  1
  O  O333  1  0.36577093  0.28495873  0.58179783  1
  O  O334  1  0.34072925  0.61693229  0.57076709  1
  O  O335  1  0.35857680  0.95446786  0.57985739  1
  O  O336  1  0.50394296  0.21798551  0.57663548  1
  O  O337  1  0.49240528  0.54691438  0.57654708  1
  O  O338  1  0.51772801  0.88518890  0.57844462  1
  O  O339  1  0.14854606  0.16493334  0.57293902  1
  O  O340  1  0.14250980  0.50276428  0.57555964  1
  O  O341  1  0.14380743  0.82768511  0.58220678  1
  O  O342  1  0.30057011  0.27528085  0.25629377  1
  O  O343  1  0.32509138  0.61214284  0.25228907  1
  O  O344  1  0.30308761  0.94456081  0.25444954  1
  O  O345  1  0.51509843  0.22955912  0.25291761  1
  O  O346  1  0.53116225  0.55786215  0.25569990  1
  O  O347  1  0.51020951  0.89592717  0.25273821  1
  O  O348  1  0.17081199  0.15584236  0.25094814  1
  O  O349  1  0.16642340  0.49254006  0.24952188  1
  O  O350  1  0.16584421  0.82635545  0.26187433  1
  O  O351  1  0.29394482  0.15374508  0.74651745  1
  O  O352  1  0.31616169  0.49277252  0.75124646  1
  O  O353  1  0.30471489  0.82583205  0.75669185  1
  O  O354  1  0.15857235  0.23349133  0.75028887  1
  O  O355  1  0.16702880  0.56371775  0.74712553  1
  O  O356  1  0.18049003  0.90183297  0.75429597  1
  O  O357  1  0.52038687  0.27720723  0.75292491  1
  O  O358  1  0.54207583  0.61204272  0.74710224  1
  O  O359  1  0.52534963  0.94130749  0.75453897  1
