# generated using pymatgen
data_MgH2
_symmetry_space_group_name_H-M   'P 1'
_cell_length_a   4.47907187
_cell_length_b   4.89550378
_cell_length_c   5.39262234
_cell_angle_alpha   90.00000000
_cell_angle_beta   90.00000000
_cell_angle_gamma   90.00000000
_symmetry_Int_Tables_number   1
_chemical_formula_structural   MgH2
_chemical_formula_sum   'Mg4 H8'
_cell_volume   118.24571940
_cell_formula_units_Z   4
loop_
 _symmetry_equiv_pos_site_id
 _symmetry_equiv_pos_as_xyz
  1  'x, y, z'
loop_
 _atom_site_type_symbol
 _atom_site_label
 _atom_site_symmetry_multiplicity
 _atom_site_fract_x
 _atom_site_fract_y
 _atom_site_fract_z
 _atom_site_occupancy
  Mg  Mg0  1  0.50000000  0.75000000  0.16847243  1
  Mg  Mg1  1  -0.00000000  0.25000000  0.33152757  1
  Mg  Mg2  1  0.50000000  0.25000000  0.83152757  1
  Mg  Mg3  1  -0.00000000  0.75000000  0.66847243  1
  H  H4  1  0.72769253  0.41981232  0.10893128  1
  H  H5  1  0.22769253  0.58018768  0.39106872  1
  H  H6  1  0.77230747  0.91981232  0.39106872  1
  H  H7  1  0.27230747  0.08018768  0.10893128  1
  H  H8  1  0.72769253  0.91981232  0.89106872  1
  H  H9  1  0.22769253  0.08018768  0.60893128  1
  H  H10  1  0.77230747  0.41981232  0.60893128  1
  H  H11  1  0.27230747  0.58018768  0.89106872  1
