# generated using pymatgen
data_Dy2MgW2(ClO4)2
_symmetry_space_group_name_H-M   'P 1'
_cell_length_a   6.54482457
_cell_length_b   6.54482457
_cell_length_c   6.97639493
_cell_angle_alpha   72.33452921
_cell_angle_beta   72.33452921
_cell_angle_gamma   65.71732641
_symmetry_Int_Tables_number   1
_chemical_formula_structural   Dy2MgW2(ClO4)2
_chemical_formula_sum   'Dy2 Mg1 W2 Cl2 O8'
_cell_volume   253.99801720
_cell_formula_units_Z   1
loop_
 _symmetry_equiv_pos_site_id
 _symmetry_equiv_pos_as_xyz
  1  'x, y, z'
loop_
 _atom_site_type_symbol
 _atom_site_label
 _atom_site_symmetry_multiplicity
 _atom_site_fract_x
 _atom_site_fract_y
 _atom_site_fract_z
 _atom_site_occupancy
  Dy  Dy0  1  0.75599800  0.76379800  0.10757300  1
  Dy  Dy1  1  0.23620200  0.24400200  0.89242700  1
  Mg  Mg2  1  0.68932900  0.31067100  0.50000000  1
  W  W3  1  0.64676600  0.63545100  0.73480400  1
  W  W4  1  0.36454900  0.35323400  0.26519600  1
  Cl  Cl5  1  0.95283000  0.05656800  0.75150600  1
  Cl  Cl6  1  0.94343200  0.04717000  0.24849400  1
  O  O7  1  0.54802600  0.52982000  0.21970300  1
  O  O8  1  0.47018000  0.45197400  0.78029700  1
  O  O9  1  0.75817800  0.60854200  0.45601900  1
  O  O10  1  0.39145800  0.24182200  0.54398100  1
  O  O11  1  0.11994300  0.51250500  0.12889000  1
  O  O12  1  0.45138800  0.08660800  0.16388400  1
  O  O13  1  0.91339200  0.54861200  0.83611600  1
  O  O14  1  0.48749500  0.88005700  0.87111000  1
