# generated using pymatgen
data_Ge7F16
_symmetry_space_group_name_H-M   'P 1'
_cell_length_a   9.67766986
_cell_length_b   9.67766986
_cell_length_c   10.10598415
_cell_angle_alpha   89.73993713
_cell_angle_beta   89.73993713
_cell_angle_gamma   45.38655891
_symmetry_Int_Tables_number   1
_chemical_formula_structural   Ge7F16
_chemical_formula_sum   'Ge14 F32'
_cell_volume   673.76795156
_cell_formula_units_Z   2
loop_
 _symmetry_equiv_pos_site_id
 _symmetry_equiv_pos_as_xyz
  1  'x, y, z'
loop_
 _atom_site_type_symbol
 _atom_site_label
 _atom_site_symmetry_multiplicity
 _atom_site_fract_x
 _atom_site_fract_y
 _atom_site_fract_z
 _atom_site_occupancy
  Ge  Ge0  1  0.93705512  0.76508212  0.02976780  1
  Ge  Ge1  1  0.76508212  0.93705512  0.52976780  1
  Ge  Ge2  1  0.73265416  0.39441523  0.59923363  1
  Ge  Ge3  1  0.39441523  0.73265416  0.09923363  1
  Ge  Ge4  1  0.26924161  0.56688344  0.40651266  1
  Ge  Ge5  1  0.56688344  0.26924161  0.90651266  1
  Ge  Ge6  1  0.34070214  0.22361091  0.19522622  1
  Ge  Ge7  1  0.22361091  0.34070214  0.69522622  1
  Ge  Ge8  1  0.24275525  0.02653357  0.46230573  1
  Ge  Ge9  1  0.02653357  0.24275525  0.96230573  1
  Ge  Ge10  1  0.77438697  0.63648165  0.30647703  1
  Ge  Ge11  1  0.63648165  0.77438697  0.80647703  1
  Ge  Ge12  1  0.17577703  0.82346292  0.74990345  1
  Ge  Ge13  1  0.82346292  0.17577703  0.24990345  1
  F  F14  1  0.96465746  0.87417876  0.79741071  1
  F  F15  1  0.87417876  0.96465746  0.29741071  1
  F  F16  1  0.05500177  0.06683794  0.80988701  1
  F  F17  1  0.06683794  0.05500177  0.30988701  1
  F  F18  1  0.29946076  0.58425175  0.69437659  1
  F  F19  1  0.58425175  0.29946076  0.19437659  1
  F  F20  1  0.27497799  0.72724040  0.91668802  1
  F  F21  1  0.72724040  0.27497799  0.41668802  1
  F  F22  1  0.07384131  0.92550763  0.58871045  1
  F  F23  1  0.92550763  0.07384131  0.08871045  1
  F  F24  1  0.38506373  0.77935326  0.70880761  1
  F  F25  1  0.77935326  0.38506373  0.20880761  1
  F  F26  1  0.76509383  0.78249218  0.65128328  1
  F  F27  1  0.78249218  0.76509383  0.15128328  1
  F  F28  1  0.20139852  0.48517351  0.26120127  1
  F  F29  1  0.48517351  0.20139852  0.76120127  1
  F  F30  1  0.02032161  0.67979008  0.48015436  1
  F  F31  1  0.67979008  0.02032161  0.98015436  1
  F  F32  1  0.38003788  0.34041248  0.48694392  1
  F  F33  1  0.34041248  0.38003788  0.98694392  1
  F  F34  1  0.21839404  0.20569810  0.34880266  1
  F  F35  1  0.20569810  0.21839404  0.84880266  1
  F  F36  1  0.64348087  0.59616593  0.49356043  1
  F  F37  1  0.59616593  0.64348087  0.99356043  1
  F  F38  1  0.65691779  0.88285171  0.40404865  1
  F  F39  1  0.88285171  0.65691779  0.90404865  1
  F  F40  1  0.51754082  0.78966315  0.24803234  1
  F  F41  1  0.78966315  0.51754082  0.74803234  1
  F  F42  1  0.10856351  0.34767286  0.10713815  1
  F  F43  1  0.34767286  0.10856351  0.60713815  1
  F  F44  1  0.99520677  0.26396447  0.53899506  1
  F  F45  1  0.26396447  0.99520677  0.03899506  1
