# generated using pymatgen
data_NaGe
_symmetry_space_group_name_H-M   'P 1'
_cell_length_a   6.67806269
_cell_length_b   11.34028505
_cell_length_c   11.68349405
_cell_angle_alpha   115.75061047
_cell_angle_beta   90.00000000
_cell_angle_gamma   90.00000000
_symmetry_Int_Tables_number   1
_chemical_formula_structural   NaGe
_chemical_formula_sum   'Na16 Ge16'
_cell_volume   796.93754329
_cell_formula_units_Z   16
loop_
 _symmetry_equiv_pos_site_id
 _symmetry_equiv_pos_as_xyz
  1  'x, y, z'
loop_
 _atom_site_type_symbol
 _atom_site_label
 _atom_site_symmetry_multiplicity
 _atom_site_fract_x
 _atom_site_fract_y
 _atom_site_fract_z
 _atom_site_occupancy
  Na  Na0  1  0.13899192  0.45139751  0.85762979  1
  Na  Na1  1  0.63899192  0.04860249  0.14237021  1
  Na  Na2  1  0.86100808  0.54860249  0.14237021  1
  Na  Na3  1  0.36100808  0.95139751  0.85762979  1
  Na  Na4  1  0.18543996  0.60173957  0.60672737  1
  Na  Na5  1  0.68543996  0.89826043  0.39327263  1
  Na  Na6  1  0.81456004  0.39826043  0.39327263  1
  Na  Na7  1  0.31456004  0.10173957  0.60672737  1
  Na  Na8  1  0.83865882  0.23438111  0.60140077  1
  Na  Na9  1  0.33865882  0.26561889  0.39859923  1
  Na  Na10  1  0.16134118  0.76561889  0.39859923  1
  Na  Na11  1  0.66134118  0.73438111  0.60140077  1
  Na  Na12  1  0.92826559  0.77001226  0.90544243  1
  Na  Na13  1  0.42826559  0.72998774  0.09455757  1
  Na  Na14  1  0.07173441  0.22998774  0.09455757  1
  Na  Na15  1  0.57173441  0.27001226  0.90544243  1
  Ge  Ge16  1  0.68691279  0.51111188  0.87889322  1
  Ge  Ge17  1  0.18691279  0.98888812  0.12110678  1
  Ge  Ge18  1  0.31308721  0.48888812  0.12110678  1
  Ge  Ge19  1  0.81308721  0.01111188  0.87889322  1
  Ge  Ge20  1  0.79103438  0.52379792  0.67595864  1
  Ge  Ge21  1  0.29103438  0.97620208  0.32404136  1
  Ge  Ge22  1  0.20896562  0.47620208  0.32404136  1
  Ge  Ge23  1  0.70896562  0.02379792  0.67595864  1
  Ge  Ge24  1  0.47002141  0.40359545  0.67869321  1
  Ge  Ge25  1  0.97002141  0.09640455  0.32130679  1
  Ge  Ge26  1  0.52997859  0.59640455  0.32130679  1
  Ge  Ge27  1  0.02997859  0.90359545  0.67869321  1
  Ge  Ge28  1  0.48617213  0.65520833  0.80526582  1
  Ge  Ge29  1  0.98617213  0.84479167  0.19473418  1
  Ge  Ge30  1  0.51382787  0.34479167  0.19473418  1
  Ge  Ge31  1  0.01382787  0.15520833  0.80526582  1
