# generated using pymatgen
data_Na7Zr2Zn2SiP5O24
_symmetry_space_group_name_H-M   'P 1'
_cell_length_a   9.12058698
_cell_length_b   9.11503115
_cell_length_c   22.57680087
_cell_angle_alpha   90.20273104
_cell_angle_beta   89.62751173
_cell_angle_gamma   120.08483692
_symmetry_Int_Tables_number   1
_chemical_formula_structural   Na7Zr2Zn2SiP5O24
_chemical_formula_sum   'Na21 Zr6 Zn6 Si3 P15 O72'
_cell_volume   1624.02562864
_cell_formula_units_Z   3
loop_
 _symmetry_equiv_pos_site_id
 _symmetry_equiv_pos_as_xyz
  1  'x, y, z'
loop_
 _atom_site_type_symbol
 _atom_site_label
 _atom_site_symmetry_multiplicity
 _atom_site_fract_x
 _atom_site_fract_y
 _atom_site_fract_z
 _atom_site_occupancy
  Na  Na0  1  0.35935535  0.37219539  0.25344264  1
  Na  Na1  1  0.01130485  0.63916800  0.25184034  1
  Na  Na2  1  0.62787453  0.64466554  0.75178783  1
  Na  Na3  1  0.00936560  0.36951918  0.75348527  1
  Na  Na4  1  0.36289874  0.98457253  0.75238503  1
  Na  Na5  1  0.29338771  0.31466798  0.58436004  1
  Na  Na6  1  0.02807556  0.71097719  0.58585049  1
  Na  Na7  1  0.67925426  0.97298003  0.58863567  1
  Na  Na8  1  0.28942788  0.97192989  0.08618391  1
  Na  Na9  1  0.68498705  0.70644073  0.08509053  1
  Na  Na10  1  0.02586850  0.32279831  0.08671039  1
  Na  Na11  1  0.95743582  0.65208388  0.92161899  1
  Na  Na12  1  0.69343155  0.03873225  0.91837527  1
  Na  Na13  1  0.96131820  0.30671702  0.41892830  1
  Na  Na14  1  0.34934612  0.04267721  0.42106605  1
  Na  Na15  1  0.99716206  0.99217400  0.50594978  1
  Na  Na16  1  0.00837177  0.00253898  0.00552375  1
  Na  Na17  1  0.65701398  0.33114478  0.84076050  1
  Na  Na18  1  0.66539949  0.33439356  0.34007854  1
  Na  Na19  1  0.34079497  0.67691738  0.17414741  1
  Na  Na20  1  0.33906003  0.67347611  0.67287985  1
  Zr  Zr21  1  0.99333725  0.99379454  0.35123517  1
  Zr  Zr22  1  0.00229716  0.00614864  0.85135855  1
  Zr  Zr23  1  0.66435557  0.32545121  0.68372052  1
  Zr  Zr24  1  0.67083296  0.32980506  0.18486944  1
  Zr  Zr25  1  0.32959745  0.66389489  0.01702999  1
  Zr  Zr26  1  0.33709098  0.67092949  0.51642523  1
  Zn  Zn27  1  0.00022623  0.99787158  0.65329716  1
  Zn  Zn28  1  0.99796868  0.99216757  0.15328729  1
  Zn  Zn29  1  0.66220487  0.34000990  0.98665187  1
  Zn  Zn30  1  0.65915361  0.33727837  0.48609942  1
  Zn  Zn31  1  0.34354168  0.67470082  0.31928057  1
  Zn  Zn32  1  0.34248358  0.67271174  0.81972570  1
  Si  Si33  1  0.70282495  0.99631353  0.74778416  1
  Si  Si34  1  0.36471380  0.03668900  0.58050236  1
  Si  Si35  1  0.96135499  0.63239415  0.08098458  1
  P  P36  1  0.29324417  0.99650478  0.24912777  1
  P  P37  1  0.70017970  0.70478646  0.24711759  1
  P  P38  1  0.00190760  0.29396577  0.24845187  1
  P  P39  1  0.29390262  0.29689382  0.74750235  1
  P  P40  1  0.00153955  0.70562060  0.74900195  1
  P  P41  1  0.96136558  0.33278932  0.58012700  1
  P  P42  1  0.66806593  0.62652816  0.58201372  1
  P  P43  1  0.66881484  0.04023031  0.07988667  1
  P  P44  1  0.37307548  0.33133016  0.08297564  1
  P  P45  1  0.62799151  0.66224644  0.91430229  1
  P  P46  1  0.03800790  0.37284362  0.91408993  1
  P  P47  1  0.33713380  0.96531751  0.91538923  1
  P  P48  1  0.62775962  0.96354217  0.41496561  1
  P  P49  1  0.33586237  0.37242461  0.41337793  1
  P  P50  1  0.03608994  0.66206972  0.41450193  1
  O  O51  1  0.20599765  0.02637762  0.30473842  1
  O  O52  1  0.82156328  0.79450208  0.30084853  1
  O  O53  1  0.97738597  0.18289424  0.30457867  1
  O  O54  1  0.20833362  0.17552659  0.80154098  1
  O  O55  1  0.97349699  0.79245630  0.80471718  1
  O  O56  1  0.82674688  0.03261398  0.80655305  1
  O  O57  1  0.78751745  0.96619179  0.68968884  1
  O  O58  1  0.18967852  0.21898504  0.69166589  1
  O  O59  1  0.03299704  0.81375719  0.69365775  1
  O  O60  1  0.78055713  0.80584017  0.19085885  1
  O  O61  1  0.02721460  0.21156798  0.19309924  1
  O  O62  1  0.18766667  0.97167933  0.19345284  1
  O  O63  1  0.88079749  0.36731846  0.63688850  1
  O  O64  1  0.48944519  0.12260221  0.63963727  1
  O  O65  1  0.63616980  0.51687981  0.63947410  1
  O  O66  1  0.87443880  0.50697578  0.13985961  1
  O  O67  1  0.63266611  0.12465749  0.13459404  1
  O  O68  1  0.48508512  0.36324274  0.13962209  1
  O  O69  1  0.45359025  0.29670458  0.02987628  1
  O  O70  1  0.84758514  0.54838271  0.02315375  1
  O  O71  1  0.69538590  0.14554029  0.02433716  1
  O  O72  1  0.45020580  0.15190730  0.52290565  1
  O  O73  1  0.70016623  0.54290411  0.52941313  1
  O  O74  1  0.85322210  0.30762254  0.52579152  1
  O  O75  1  0.54456290  0.69407645  0.97042541  1
  O  O76  1  0.14783824  0.45874877  0.97076379  1
  O  O77  1  0.30665888  0.84776722  0.97111426  1
  O  O78  1  0.54761712  0.85479800  0.47256826  1
  O  O79  1  0.30474323  0.45503317  0.46999984  1
  O  O80  1  0.15319299  0.69538908  0.47046273  1
  O  O81  1  0.11896697  0.63713695  0.35914485  1
  O  O82  1  0.51170131  0.87611319  0.36318082  1
  O  O83  1  0.35194235  0.47521921  0.35830392  1
  O  O84  1  0.12306554  0.48227347  0.85956485  1
  O  O85  1  0.36167379  0.88296161  0.85974980  1
  O  O86  1  0.52596248  0.64505145  0.85900566  1
  O  O87  1  0.03065442  0.83194278  0.41061909  1
  O  O88  1  0.80866587  0.98275664  0.41041106  1
  O  O89  1  0.16641012  0.19212493  0.41040890  1
  O  O90  1  0.02036938  0.19231587  0.91233310  1
  O  O91  1  0.16754718  0.96923867  0.91216724  1
  O  O92  1  0.80794228  0.83134059  0.91137105  1
  O  O93  1  0.98264250  0.17740115  0.58711034  1
  O  O94  1  0.17675221  0.01280710  0.58815585  1
  O  O95  1  0.82057081  0.80663888  0.58689043  1
  O  O96  1  0.98726666  0.82173279  0.08767605  1
  O  O97  1  0.82509604  0.02106135  0.08854011  1
  O  O98  1  0.19178600  0.18075895  0.08963366  1
  O  O99  1  0.69289538  0.17490906  0.74612876  1
  O  O100  1  0.47452530  0.31463891  0.74455276  1
  O  O101  1  0.83393954  0.52930526  0.74524520  1
  O  O102  1  0.69013156  0.52567308  0.24483902  1
  O  O103  1  0.83984905  0.31344097  0.24594538  1
  O  O104  1  0.46764881  0.16595885  0.24549676  1
  O  O105  1  0.65782923  0.51236093  0.91941489  1
  O  O106  1  0.85927621  0.34896110  0.91983202  1
  O  O107  1  0.49741200  0.13755115  0.92317253  1
  O  O108  1  0.65285626  0.14288329  0.42049214  1
  O  O109  1  0.48536213  0.34197373  0.41869827  1
  O  O110  1  0.86302395  0.50332589  0.42299785  1
  O  O111  1  0.36358855  0.49911912  0.07720601  1
  O  O112  1  0.15080646  0.64474508  0.07810336  1
  O  O113  1  0.50520821  0.85926673  0.07686938  1
  O  O114  1  0.35339549  0.84799844  0.57777094  1
  O  O115  1  0.50064558  0.63664991  0.57669024  1
  O  O116  1  0.14158105  0.49710473  0.57664080  1
  O  O117  1  0.30605683  0.83638389  0.25641887  1
  O  O118  1  0.51987491  0.67272716  0.25508274  1
  O  O119  1  0.15799133  0.47307036  0.25440131  1
  O  O120  1  0.31250115  0.47255029  0.75596021  1
  O  O121  1  0.15404545  0.67880454  0.75588405  1
  O  O122  1  0.51328811  0.83272104  0.75408407  1
