# generated using pymatgen
data_Na6Zr4Si7Sn4S5O48
_symmetry_space_group_name_H-M   'P 1'
_cell_length_a   17.98282924
_cell_length_b   8.97033673
_cell_length_c   23.26903676
_cell_angle_alpha   89.93933829
_cell_angle_beta   89.90040139
_cell_angle_gamma   119.95712167
_symmetry_Int_Tables_number   1
_chemical_formula_structural   Na6Zr4Si7Sn4S5O48
_chemical_formula_sum   'Na18 Zr12 Si21 Sn12 S15 O144'
_cell_volume   3252.08252344
_cell_formula_units_Z   3
loop_
 _symmetry_equiv_pos_site_id
 _symmetry_equiv_pos_as_xyz
  1  'x, y, z'
loop_
 _atom_site_type_symbol
 _atom_site_label
 _atom_site_symmetry_multiplicity
 _atom_site_fract_x
 _atom_site_fract_y
 _atom_site_fract_z
 _atom_site_occupancy
  Na  Na0  1  0.00043524  0.63150270  0.25221822  1
  Na  Na1  1  0.49716902  0.64646944  0.24607293  1
  Na  Na2  1  0.99851840  0.34817068  0.75296113  1
  Na  Na3  1  0.50007575  0.37092842  0.75426008  1
  Na  Na4  1  0.66387170  0.31476709  0.91826004  1
  Na  Na5  1  0.16502237  0.01607945  0.41467632  1
  Na  Na6  1  0.99862211  0.98262968  0.50365691  1
  Na  Na7  1  0.49430773  0.98798429  0.49445891  1
  Na  Na8  1  0.99515270  0.00153641  0.99644711  1
  Na  Na9  1  0.49723569  0.00232108  0.00817676  1
  Na  Na10  1  0.33510543  0.33699206  0.83340354  1
  Na  Na11  1  0.83340643  0.33012004  0.83579242  1
  Na  Na12  1  0.33267769  0.33670790  0.32892969  1
  Na  Na13  1  0.83473345  0.33173383  0.32910403  1
  Na  Na14  1  0.17590720  0.67496647  0.17037247  1
  Na  Na15  1  0.66984665  0.66520687  0.16019766  1
  Na  Na16  1  0.17694847  0.68441944  0.66556925  1
  Na  Na17  1  0.67358574  0.67534870  0.67250399  1
  Zr  Zr18  1  0.99857347  0.99355776  0.34817988  1
  Zr  Zr19  1  0.49774331  0.00095950  0.84966609  1
  Zr  Zr20  1  0.32346707  0.32256304  0.69125963  1
  Zr  Zr21  1  0.82534713  0.33374399  0.68726349  1
  Zr  Zr22  1  0.33218805  0.32739042  0.18308675  1
  Zr  Zr23  1  0.82373860  0.32305990  0.19086899  1
  Zr  Zr24  1  0.83425271  0.34142498  0.98043686  1
  Zr  Zr25  1  0.33463782  0.32735239  0.47933207  1
  Zr  Zr26  1  0.16825761  0.67569791  0.30915197  1
  Zr  Zr27  1  0.66617107  0.67477397  0.31082943  1
  Zr  Zr28  1  0.16884822  0.65944376  0.81360636  1
  Zr  Zr29  1  0.66824135  0.66274163  0.81115482  1
  Si  Si30  1  0.14799386  0.00806320  0.24865097  1
  Si  Si31  1  0.63882372  0.00385565  0.25142564  1
  Si  Si32  1  0.35557207  0.70989213  0.24755507  1
  Si  Si33  1  0.85253801  0.70819778  0.24792391  1
  Si  Si34  1  0.00008974  0.29146590  0.24919977  1
  Si  Si35  1  0.13832078  0.27640850  0.75104080  1
  Si  Si36  1  0.64421045  0.28784002  0.74958159  1
  Si  Si37  1  0.50064785  0.70886530  0.74891571  1
  Si  Si38  1  0.35177039  0.99548516  0.74842741  1
  Si  Si39  1  0.85609648  0.99952224  0.74700116  1
  Si  Si40  1  0.18448598  0.03698895  0.58319999  1
  Si  Si41  1  0.83142330  0.63249027  0.58260497  1
  Si  Si42  1  0.48337496  0.62724525  0.08223467  1
  Si  Si43  1  0.33029810  0.03035689  0.08282408  1
  Si  Si44  1  0.68541084  0.33115584  0.08362398  1
  Si  Si45  1  0.81421391  0.67642428  0.91738785  1
  Si  Si46  1  0.02326876  0.37969680  0.91869781  1
  Si  Si47  1  0.51657290  0.37136103  0.91494280  1
  Si  Si48  1  0.31744399  0.95732084  0.41512609  1
  Si  Si49  1  0.01728757  0.66139930  0.41620095  1
  Si  Si50  1  0.52384287  0.67023435  0.41860348  1
  Sn  Sn51  1  0.49560098  0.97489150  0.35328114  1
  Sn  Sn52  1  0.99557314  0.01693942  0.85566974  1
  Sn  Sn53  1  0.99909247  0.99777386  0.64576004  1
  Sn  Sn54  1  0.49685598  0.99330605  0.65563885  1
  Sn  Sn55  1  0.99851468  0.00334003  0.15446635  1
  Sn  Sn56  1  0.49726206  0.98502083  0.14159614  1
  Sn  Sn57  1  0.34608742  0.33390128  0.98499303  1
  Sn  Sn58  1  0.83859075  0.35241033  0.48222923  1
  Sn  Sn59  1  0.16699840  0.66955023  0.01878735  1
  Sn  Sn60  1  0.66411705  0.64471303  0.01982497  1
  Sn  Sn61  1  0.17202294  0.69383324  0.51578256  1
  Sn  Sn62  1  0.66627712  0.66251078  0.51801174  1
  S  S63  1  0.50019131  0.28542877  0.25071340  1
  S  S64  1  0.00097588  0.71122563  0.75088373  1
  S  S65  1  0.48144019  0.32928818  0.58426586  1
  S  S66  1  0.98147699  0.33677106  0.58211943  1
  S  S67  1  0.68548662  0.04077452  0.58129938  1
  S  S68  1  0.33401715  0.63134332  0.58279624  1
  S  S69  1  0.98148260  0.63339811  0.08423623  1
  S  S70  1  0.83622687  0.03988326  0.08311886  1
  S  S71  1  0.18440549  0.32851314  0.08078879  1
  S  S72  1  0.31196249  0.65983283  0.91918714  1
  S  S73  1  0.16722358  0.96281014  0.91704673  1
  S  S74  1  0.66598088  0.95507891  0.91841519  1
  S  S75  1  0.81199326  0.96272361  0.41954185  1
  S  S76  1  0.16571997  0.37958404  0.41931204  1
  S  S77  1  0.66665252  0.37169419  0.41713042  1
  O  O78  1  0.10473430  0.03137039  0.30827958  1
  O  O79  1  0.60286207  0.04309781  0.31045429  1
  O  O80  1  0.41503370  0.77988675  0.30606559  1
  O  O81  1  0.91376176  0.79338008  0.30448994  1
  O  O82  1  0.48780899  0.18552079  0.30434260  1
  O  O83  1  0.98367528  0.17065323  0.30588837  1
  O  O84  1  0.09981609  0.15902673  0.80846590  1
  O  O85  1  0.60402848  0.17618865  0.80796163  1
  O  O86  1  0.48362645  0.79644640  0.80474544  1
  O  O87  1  0.98565483  0.78542511  0.80261337  1
  O  O88  1  0.41397979  0.03333833  0.80376743  1
  O  O89  1  0.91738636  0.05141000  0.80420166  1
  O  O90  1  0.38904317  0.95936666  0.68919680  1
  O  O91  1  0.89816256  0.96470115  0.69029266  1
  O  O92  1  0.07908038  0.20442537  0.69350743  1
  O  O93  1  0.58508229  0.21007195  0.69149519  1
  O  O94  1  0.01542164  0.81308621  0.69768013  1
  O  O95  1  0.52098769  0.82318589  0.68935868  1
  O  O96  1  0.39810118  0.83483164  0.19270366  1
  O  O97  1  0.89108166  0.82163683  0.18967918  1
  O  O98  1  0.02024420  0.21755665  0.19047311  1
  O  O99  1  0.51453111  0.21353566  0.19913960  1
  O  O100  1  0.08410164  0.95934880  0.19256667  1
  O  O101  1  0.57908990  0.95668563  0.19523659  1
  O  O102  1  0.44348889  0.35655990  0.63629577  1
  O  O103  1  0.94168745  0.36175268  0.63417513  1
  O  O104  1  0.24683206  0.13423844  0.63744105  1
  O  O105  1  0.73899125  0.12158649  0.63317400  1
  O  O106  1  0.32392561  0.52933942  0.63505260  1
  O  O107  1  0.81697063  0.50669192  0.63743837  1
  O  O108  1  0.43926684  0.50980026  0.14011834  1
  O  O109  1  0.94354264  0.53071735  0.13654784  1
  O  O110  1  0.31187123  0.12052445  0.13759505  1
  O  O111  1  0.82687246  0.12341024  0.13533399  1
  O  O112  1  0.23686258  0.35470812  0.13319099  1
  O  O113  1  0.74870218  0.35682365  0.13740047  1
  O  O114  1  0.22481431  0.30532490  0.02853268  1
  O  O115  1  0.73082424  0.30569225  0.02525174  1
  O  O116  1  0.41946324  0.54606857  0.02598529  1
  O  O117  1  0.92823425  0.54723137  0.03255863  1
  O  O118  1  0.34269729  0.13841021  0.02340985  1
  O  O119  1  0.84898270  0.14776973  0.03152742  1
  O  O120  1  0.22925692  0.15061042  0.52481081  1
  O  O121  1  0.72825572  0.14696588  0.52877253  1
  O  O122  1  0.34653775  0.54950744  0.53118366  1
  O  O123  1  0.84714458  0.54554046  0.52536434  1
  O  O124  1  0.42833003  0.30917096  0.53253957  1
  O  O125  1  0.92556378  0.30610322  0.53028973  1
  O  O126  1  0.27330361  0.69189438  0.97058746  1
  O  O127  1  0.77209808  0.71153106  0.97433154  1
  O  O128  1  0.08470455  0.47356614  0.97447420  1
  O  O129  1  0.57941287  0.45433543  0.97062661  1
  O  O130  1  0.15410646  0.85661675  0.96968666  1
  O  O131  1  0.65499855  0.85356554  0.97061561  1
  O  O132  1  0.28029728  0.84267541  0.47440697  1
  O  O133  1  0.77355445  0.85494272  0.47190244  1
  O  O134  1  0.15393893  0.45796292  0.47266505  1
  O  O135  1  0.65526160  0.45125745  0.47079066  1
  O  O136  1  0.07765300  0.69753022  0.47389211  1
  O  O137  1  0.58421395  0.69890789  0.47563583  1
  O  O138  1  0.06063161  0.63630353  0.35882473  1
  O  O139  1  0.56658453  0.63774248  0.36159019  1
  O  O140  1  0.25124904  0.87127332  0.36263099  1
  O  O141  1  0.75986434  0.88126076  0.36792582  1
  O  O142  1  0.17842804  0.48112698  0.36791941  1
  O  O143  1  0.68257431  0.48303051  0.36681540  1
  O  O144  1  0.06548071  0.49314371  0.86006199  1
  O  O145  1  0.56048095  0.48402889  0.85682344  1
  O  O146  1  0.18161625  0.88039111  0.86597047  1
  O  O147  1  0.67886290  0.87799799  0.86584129  1
  O  O148  1  0.25958099  0.64169082  0.86679347  1
  O  O149  1  0.75240407  0.63407907  0.86176076  1
  O  O150  1  0.01262958  0.84115838  0.41426341  1
  O  O151  1  0.51767243  0.84546083  0.41633129  1
  O  O152  1  0.41573160  0.99528463  0.40931052  1
  O  O153  1  0.89868054  0.98457228  0.41397853  1
  O  O154  1  0.08991143  0.20231578  0.41530386  1
  O  O155  1  0.58852751  0.20318902  0.41214067  1
  O  O156  1  0.01829167  0.19253704  0.91662570  1
  O  O157  1  0.51190414  0.18252252  0.91156552  1
  O  O158  1  0.08773043  0.97219254  0.91090912  1
  O  O159  1  0.59077555  0.98011794  0.91310400  1
  O  O160  1  0.39804564  0.81244586  0.91252869  1
  O  O161  1  0.91339641  0.83578104  0.91027893  1
  O  O162  1  0.49023851  0.17243458  0.58730630  1
  O  O163  1  0.98839777  0.17887987  0.58576843  1
  O  O164  1  0.08976191  0.02056531  0.58943622  1
  O  O165  1  0.60008333  0.02639963  0.58618445  1
  O  O166  1  0.41211613  0.80766644  0.58682247  1
  O  O167  1  0.91692075  0.82093445  0.58809187  1
  O  O168  1  0.48992112  0.81353270  0.08395065  1
  O  O169  1  0.99006515  0.80758420  0.08707671  1
  O  O170  1  0.41677364  0.01968174  0.08851336  1
  O  O171  1  0.91543668  0.02246121  0.08702227  1
  O  O172  1  0.09755142  0.17195711  0.08646579  1
  O  O173  1  0.59078882  0.16445731  0.09009129  1
  O  O174  1  0.35065973  0.17578994  0.74324419  1
  O  O175  1  0.85415485  0.18134614  0.73752426  1
  O  O176  1  0.23570097  0.31172510  0.74547475  1
  O  O177  1  0.73967478  0.30781671  0.74470662  1
  O  O178  1  0.41750347  0.51706148  0.73982675  1
  O  O179  1  0.92557522  0.53309393  0.74328472  1
  O  O180  1  0.35134056  0.52269317  0.24111997  1
  O  O181  1  0.85117500  0.52564696  0.24341300  1
  O  O182  1  0.42458818  0.31275043  0.24618683  1
  O  O183  1  0.91769483  0.31879970  0.24131281  1
  O  O184  1  0.24248013  0.17580945  0.24462127  1
  O  O185  1  0.73701543  0.16153460  0.24682422  1
  O  O186  1  0.31479640  0.49852092  0.92368752  1
  O  O187  1  0.81827786  0.49574039  0.92476212  1
  O  O188  1  0.42030112  0.35280592  0.91796334  1
  O  O189  1  0.92764339  0.35504264  0.92601566  1
  O  O190  1  0.24335803  0.13712278  0.92333788  1
  O  O191  1  0.74396096  0.13255180  0.92276691  1
  O  O192  1  0.31920687  0.14316625  0.42448562  1
  O  O193  1  0.81675230  0.13328450  0.42657550  1
  O  O194  1  0.24326544  0.35712300  0.42494289  1
  O  O195  1  0.74403917  0.35013901  0.42371222  1
  O  O196  1  0.42827283  0.50256145  0.42784132  1
  O  O197  1  0.92156419  0.48362094  0.42047489  1
  O  O198  1  0.17601810  0.48621533  0.07670586  1
  O  O199  1  0.68367081  0.51183002  0.08122625  1
  O  O200  1  0.06788664  0.64974934  0.07698515  1
  O  O201  1  0.57999262  0.65160801  0.07547476  1
  O  O202  1  0.24186917  0.83683933  0.07593076  1
  O  O203  1  0.75794418  0.86994052  0.07782773  1
  O  O204  1  0.17643154  0.84371407  0.58112051  1
  O  O205  1  0.67813585  0.86800988  0.57681837  1
  O  O206  1  0.25366007  0.64181837  0.57741906  1
  O  O207  1  0.74311574  0.64669937  0.57505935  1
  O  O208  1  0.06801827  0.48993155  0.57508859  1
  O  O209  1  0.56837314  0.48611641  0.57705794  1
  O  O210  1  0.14996678  0.82868584  0.25354509  1
  O  O211  1  0.64689909  0.82688779  0.25887295  1
  O  O212  1  0.26066861  0.68444062  0.25638153  1
  O  O213  1  0.75782258  0.68343748  0.25844011  1
  O  O214  1  0.08287712  0.48237857  0.25606216  1
  O  O215  1  0.57712225  0.46448098  0.25745559  1
  O  O216  1  0.14633086  0.46881052  0.75810377  1
  O  O217  1  0.65053287  0.47407141  0.75324651  1
  O  O218  1  0.07720780  0.68847319  0.75672557  1
  O  O219  1  0.58335281  0.68315607  0.75508146  1
  O  O220  1  0.25640040  0.83108938  0.75719281  1
  O  O221  1  0.76096417  0.83808644  0.75520546  1
