# generated using pymatgen
data_Na9Ca4Nb2(PO4)9
_symmetry_space_group_name_H-M   'P 1'
_cell_length_a   16.10450276
_cell_length_b   27.91412275
_cell_length_c   9.15567346
_cell_angle_alpha   89.94931772
_cell_angle_beta   125.82196887
_cell_angle_gamma   90.13423968
_symmetry_Int_Tables_number   1
_chemical_formula_structural   Na9Ca4Nb2(PO4)9
_chemical_formula_sum   'Na36 Ca16 Nb8 P36 O144'
_cell_volume   3337.29970290
_cell_formula_units_Z   4
loop_
 _symmetry_equiv_pos_site_id
 _symmetry_equiv_pos_as_xyz
  1  'x, y, z'
loop_
 _atom_site_type_symbol
 _atom_site_label
 _atom_site_symmetry_multiplicity
 _atom_site_fract_x
 _atom_site_fract_y
 _atom_site_fract_z
 _atom_site_occupancy
  Na  Na0  1  0.25811935  0.24971112  0.01491517  1
  Na  Na1  1  0.25439134  0.58180825  0.01232441  1
  Na  Na2  1  0.24891772  0.91570628  0.01079819  1
  Na  Na3  1  0.75259417  0.24994034  0.50324750  1
  Na  Na4  1  0.76207305  0.59926585  0.52197868  1
  Na  Na5  1  0.74417956  0.90515049  0.51133244  1
  Na  Na6  1  0.75439134  0.08180825  0.01232441  1
  Na  Na7  1  0.74891772  0.41570628  0.01079819  1
  Na  Na8  1  0.75811935  0.74971112  0.01491517  1
  Na  Na9  1  0.26207305  0.09926585  0.52197868  1
  Na  Na10  1  0.24417956  0.40515049  0.51133244  1
  Na  Na11  1  0.25259417  0.74994034  0.50324750  1
  Na  Na12  1  0.49818749  0.03912714  0.76252912  1
  Na  Na13  1  0.50021416  0.37502191  0.76282470  1
  Na  Na14  1  0.50159098  0.70108154  0.77742665  1
  Na  Na15  1  0.50383583  0.30293979  0.27098209  1
  Na  Na16  1  0.49441463  0.63322491  0.26019273  1
  Na  Na17  1  0.49831718  0.97171782  0.26576234  1
  Na  Na18  1  0.00159098  0.20108154  0.77742665  1
  Na  Na19  1  0.99818749  0.53912714  0.76252912  1
  Na  Na20  1  0.00021416  0.87502191  0.76282470  1
  Na  Na21  1  0.99441463  0.13322491  0.26019273  1
  Na  Na22  1  0.99831718  0.47171782  0.26576234  1
  Na  Na23  1  0.00383583  0.80293979  0.27098209  1
  Na  Na24  1  0.82403249  0.97672821  0.21216634  1
  Na  Na25  1  0.18165944  0.63761225  0.27983026  1
  Na  Na26  1  0.18750857  0.97045260  0.29941547  1
  Na  Na27  1  0.18604752  0.68867963  0.75146437  1
  Na  Na28  1  0.80919534  0.01921317  0.73149127  1
  Na  Na29  1  0.81101336  0.35702240  0.71027131  1
  Na  Na30  1  0.32403249  0.47672821  0.21216634  1
  Na  Na31  1  0.68165944  0.13761225  0.27983026  1
  Na  Na32  1  0.68750857  0.47045260  0.29941547  1
  Na  Na33  1  0.68604752  0.18867963  0.75146437  1
  Na  Na34  1  0.30919534  0.51921317  0.73149127  1
  Na  Na35  1  0.31101336  0.85702240  0.71027131  1
  Ca  Ca36  1  0.09396727  0.58371882  0.55241078  1
  Ca  Ca37  1  0.10148215  0.92061141  0.56345959  1
  Ca  Ca38  1  0.89579217  0.25242141  0.94759650  1
  Ca  Ca39  1  0.89598498  0.58354182  0.94965460  1
  Ca  Ca40  1  0.89131002  0.91730949  0.94193851  1
  Ca  Ca41  1  0.90354326  0.08012193  0.45793967  1
  Ca  Ca42  1  0.89637131  0.41429155  0.44256140  1
  Ca  Ca43  1  0.89749078  0.74666373  0.43746360  1
  Ca  Ca44  1  0.59396727  0.08371882  0.55241078  1
  Ca  Ca45  1  0.60148215  0.42061141  0.56345959  1
  Ca  Ca46  1  0.39598498  0.08354182  0.94965460  1
  Ca  Ca47  1  0.39131002  0.41730949  0.94193851  1
  Ca  Ca48  1  0.39579217  0.75242141  0.94759650  1
  Ca  Ca49  1  0.39749078  0.24666373  0.43746360  1
  Ca  Ca50  1  0.40354326  0.58012193  0.45793967  1
  Ca  Ca51  1  0.39637131  0.91429155  0.44256140  1
  Nb  Nb52  1  0.10359694  0.25299686  0.55075749  1
  Nb  Nb53  1  0.10095560  0.08574480  0.04212735  1
  Nb  Nb54  1  0.10761139  0.41025697  0.05449573  1
  Nb  Nb55  1  0.10091034  0.74976987  0.05285333  1
  Nb  Nb56  1  0.60359694  0.75299686  0.55075749  1
  Nb  Nb57  1  0.60091034  0.24976987  0.05285333  1
  Nb  Nb58  1  0.60095560  0.58574480  0.04212735  1
  Nb  Nb59  1  0.60761139  0.91025697  0.05449573  1
  P  P60  1  0.00158772  0.31505485  0.74014900  1
  P  P61  1  0.01139915  0.64992317  0.76399554  1
  P  P62  1  0.00280438  0.98394612  0.74191516  1
  P  P63  1  0.99723318  0.02012816  0.22482494  1
  P  P64  1  0.00285906  0.35081815  0.23531982  1
  P  P65  1  0.01366111  0.68547019  0.26168833  1
  P  P66  1  0.51139915  0.14992317  0.76399554  1
  P  P67  1  0.50280438  0.48394612  0.74191516  1
  P  P68  1  0.50158772  0.81505485  0.74014900  1
  P  P69  1  0.51366111  0.18547019  0.26168833  1
  P  P70  1  0.49723318  0.52012816  0.22482494  1
  P  P71  1  0.50285906  0.85081815  0.23531982  1
  P  P72  1  0.34964510  0.29574922  0.74499426  1
  P  P73  1  0.34454436  0.63055931  0.74507997  1
  P  P74  1  0.35319941  0.95976423  0.76004941  1
  P  P75  1  0.64114947  0.30149679  0.73669029  1
  P  P76  1  0.64264054  0.63979446  0.73392333  1
  P  P77  1  0.64322952  0.96761192  0.74285067  1
  P  P78  1  0.64902739  0.02647490  0.23810950  1
  P  P79  1  0.64330568  0.36449620  0.23352936  1
  P  P80  1  0.64027070  0.69813750  0.23712938  1
  P  P81  1  0.34812125  0.03538641  0.26728438  1
  P  P82  1  0.35648996  0.36966404  0.27488962  1
  P  P83  1  0.34541365  0.70415600  0.24649903  1
  P  P84  1  0.84454436  0.13055931  0.74507997  1
  P  P85  1  0.85319941  0.45976423  0.76004941  1
  P  P86  1  0.84964510  0.79574922  0.74499426  1
  P  P87  1  0.14264054  0.13979446  0.73392333  1
  P  P88  1  0.14322952  0.46761192  0.74285067  1
  P  P89  1  0.14114947  0.80149679  0.73669029  1
  P  P90  1  0.14027070  0.19813750  0.23712938  1
  P  P91  1  0.14902739  0.52647490  0.23810950  1
  P  P92  1  0.14330568  0.86449620  0.23352936  1
  P  P93  1  0.84541365  0.20415600  0.24649903  1
  P  P94  1  0.84812125  0.53538641  0.26728438  1
  P  P95  1  0.85648996  0.86966404  0.27488962  1
  O  O96  1  0.14331477  0.19726357  0.73785513  1
  O  O97  1  0.15964346  0.52141511  0.79169999  1
  O  O98  1  0.15795892  0.85496525  0.78426646  1
  O  O99  1  0.83478418  0.18573500  0.73533962  1
  O  O100  1  0.85798415  0.51428461  0.76710518  1
  O  O101  1  0.84208081  0.84977644  0.76157455  1
  O  O102  1  0.83823433  0.15085130  0.27847547  1
  O  O103  1  0.81752438  0.48275310  0.26189730  1
  O  O104  1  0.84525058  0.81575519  0.23573477  1
  O  O105  1  0.14484896  0.14136297  0.24951363  1
  O  O106  1  0.15193780  0.46889741  0.22098017  1
  O  O107  1  0.14974080  0.80763151  0.21424993  1
  O  O108  1  0.65964346  0.02141511  0.79169999  1
  O  O109  1  0.65795892  0.35496525  0.78426646  1
  O  O110  1  0.64331477  0.69726357  0.73785513  1
  O  O111  1  0.35798415  0.01428461  0.76710518  1
  O  O112  1  0.34208081  0.34977644  0.76157455  1
  O  O113  1  0.33478418  0.68573500  0.73533962  1
  O  O114  1  0.34525058  0.31575519  0.23573477  1
  O  O115  1  0.33823433  0.65085130  0.27847547  1
  O  O116  1  0.31752438  0.98275310  0.26189730  1
  O  O117  1  0.64974080  0.30763151  0.21424993  1
  O  O118  1  0.64484896  0.64136297  0.24951363  1
  O  O119  1  0.65193780  0.96889741  0.22098017  1
  O  O120  1  0.46523963  0.18067389  0.59804596  1
  O  O121  1  0.45114502  0.50518018  0.55466448  1
  O  O122  1  0.42916035  0.84449171  0.57564519  1
  O  O123  1  0.56349008  0.18731784  0.93474570  1
  O  O124  1  0.54851097  0.53040085  0.88302573  1
  O  O125  1  0.56585143  0.84855938  0.91247248  1
  O  O126  1  0.58640011  0.16196109  0.44915932  1
  O  O127  1  0.56954844  0.48638910  0.38206900  1
  O  O128  1  0.55983812  0.81063582  0.39558717  1
  O  O129  1  0.47172093  0.14824388  0.11523665  1
  O  O130  1  0.42307709  0.49386893  0.04833515  1
  O  O131  1  0.43201430  0.82612264  0.05667694  1
  O  O132  1  0.95114502  0.00518018  0.55466448  1
  O  O133  1  0.92916035  0.34449171  0.57564519  1
  O  O134  1  0.96523963  0.68067389  0.59804596  1
  O  O135  1  0.04851097  0.03040085  0.88302573  1
  O  O136  1  0.06585143  0.34855938  0.91247248  1
  O  O137  1  0.06349008  0.68731784  0.93474570  1
  O  O138  1  0.05983812  0.31063582  0.39558717  1
  O  O139  1  0.08640011  0.66196109  0.44915932  1
  O  O140  1  0.06954844  0.98638910  0.38206900  1
  O  O141  1  0.93201430  0.32612264  0.05667694  1
  O  O142  1  0.97172093  0.64824388  0.11523665  1
  O  O143  1  0.92307709  0.99386893  0.04833515  1
  O  O144  1  0.25324190  0.27092399  0.72708787  1
  O  O145  1  0.27506289  0.60594370  0.78647127  1
  O  O146  1  0.28190742  0.93595469  0.79889589  1
  O  O147  1  0.73228280  0.27881745  0.74800991  1
  O  O148  1  0.73772292  0.62020948  0.76084379  1
  O  O149  1  0.72904729  0.94736061  0.73536397  1
  O  O150  1  0.74190198  0.04652306  0.24815264  1
  O  O151  1  0.72992773  0.38975179  0.24105336  1
  O  O152  1  0.73161791  0.71895418  0.25484055  1
  O  O153  1  0.24376776  0.06509819  0.19806656  1
  O  O154  1  0.25088160  0.38936614  0.23522662  1
  O  O155  1  0.25792573  0.73125237  0.24113371  1
  O  O156  1  0.77506289  0.10594370  0.78647127  1
  O  O157  1  0.78190742  0.43595469  0.79889589  1
  O  O158  1  0.75324190  0.77092399  0.72708787  1
  O  O159  1  0.23772292  0.12020948  0.76084379  1
  O  O160  1  0.22904729  0.44736061  0.73536397  1
  O  O161  1  0.23228280  0.77881745  0.74800991  1
  O  O162  1  0.23161791  0.21895418  0.25484055  1
  O  O163  1  0.24190198  0.54652306  0.24815264  1
  O  O164  1  0.22992773  0.88975179  0.24105336  1
  O  O165  1  0.75792573  0.23125237  0.24113371  1
  O  O166  1  0.74376776  0.56509819  0.19806656  1
  O  O167  1  0.75088160  0.88936614  0.23522662  1
  O  O168  1  0.34636126  0.28307595  0.58375434  1
  O  O169  1  0.32388281  0.61103208  0.57070355  1
  O  O170  1  0.32759279  0.94113173  0.58115593  1
  O  O171  1  0.62738296  0.27599331  0.88324325  1
  O  O172  1  0.63272307  0.62565841  0.89325691  1
  O  O173  1  0.64470810  0.94150502  0.90483959  1
  O  O174  1  0.65375890  0.03503006  0.41018083  1
  O  O175  1  0.64761984  0.36973918  0.40657500  1
  O  O176  1  0.63113967  0.71469885  0.39921786  1
  O  O177  1  0.37744402  0.04241959  0.13826115  1
  O  O178  1  0.36871302  0.39828821  0.14629482  1
  O  O179  1  0.33400535  0.71047797  0.07068554  1
  O  O180  1  0.82388281  0.11103208  0.57070355  1
  O  O181  1  0.82759279  0.44113173  0.58115593  1
  O  O182  1  0.84636126  0.78307595  0.58375434  1
  O  O183  1  0.13272307  0.12565841  0.89325691  1
  O  O184  1  0.14470810  0.44150502  0.90483959  1
  O  O185  1  0.12738296  0.77599331  0.88324325  1
  O  O186  1  0.13113967  0.21469885  0.39921786  1
  O  O187  1  0.15375890  0.53503006  0.41018083  1
  O  O188  1  0.14761984  0.86973918  0.40657500  1
  O  O189  1  0.83400535  0.21047797  0.07068554  1
  O  O190  1  0.87744402  0.54241959  0.13826115  1
  O  O191  1  0.86871302  0.89828821  0.14629482  1
  O  O192  1  0.45293926  0.27528786  0.92401032  1
  O  O193  1  0.46102635  0.61685667  0.90527153  1
  O  O194  1  0.46763011  0.93731513  0.91327572  1
  O  O195  1  0.54405758  0.29039329  0.55338762  1
  O  O196  1  0.54424419  0.62493910  0.55637708  1
  O  O197  1  0.53890364  0.95868626  0.56673506  1
  O  O198  1  0.55028663  0.04511411  0.07001696  1
  O  O199  1  0.54110304  0.38053984  0.06438755  1
  O  O200  1  0.53907934  0.71136647  0.06226723  1
  O  O201  1  0.43171932  0.05443626  0.45578231  1
  O  O202  1  0.44165695  0.38477014  0.46864434  1
  O  O203  1  0.45389618  0.72639986  0.40840450  1
  O  O204  1  0.96102635  0.11685667  0.90527153  1
  O  O205  1  0.96763011  0.43731513  0.91327572  1
  O  O206  1  0.95293926  0.77528786  0.92401032  1
  O  O207  1  0.04424419  0.12493910  0.55637708  1
  O  O208  1  0.03890364  0.45868626  0.56673506  1
  O  O209  1  0.04405758  0.79039329  0.55338762  1
  O  O210  1  0.03907934  0.21136647  0.06226723  1
  O  O211  1  0.05028663  0.54511411  0.07001696  1
  O  O212  1  0.04110304  0.88053984  0.06438755  1
  O  O213  1  0.95389618  0.22639986  0.40840450  1
  O  O214  1  0.93171932  0.55443626  0.45578231  1
  O  O215  1  0.94165695  0.88477014  0.46864434  1
  O  O216  1  0.08326079  0.28747982  0.72674170  1
  O  O217  1  0.10364711  0.62083418  0.80124968  1
  O  O218  1  0.09424580  0.95211103  0.79917497  1
  O  O219  1  0.93963559  0.27751251  0.76139724  1
  O  O220  1  0.93322578  0.61773097  0.76027017  1
  O  O221  1  0.92358529  0.95787230  0.75567616  1
  O  O222  1  0.93410977  0.05515826  0.25370526  1
  O  O223  1  0.94932027  0.38864044  0.27199922  1
  O  O224  1  0.93331083  0.72032030  0.23925582  1
  O  O225  1  0.07358081  0.05261404  0.20509158  1
  O  O226  1  0.09239975  0.37654277  0.24289029  1
  O  O227  1  0.09132625  0.71951863  0.24518327  1
  O  O228  1  0.60364711  0.12083418  0.80124968  1
  O  O229  1  0.59424580  0.45211103  0.79917497  1
  O  O230  1  0.58326079  0.78747982  0.72674170  1
  O  O231  1  0.43322578  0.11773097  0.76027017  1
  O  O232  1  0.42358529  0.45787230  0.75567616  1
  O  O233  1  0.43963559  0.77751251  0.76139724  1
  O  O234  1  0.43331083  0.22032030  0.23925582  1
  O  O235  1  0.43410977  0.55515826  0.25370526  1
  O  O236  1  0.44932027  0.88864044  0.27199922  1
  O  O237  1  0.59132625  0.21951863  0.24518327  1
  O  O238  1  0.57358081  0.55261404  0.20509158  1
  O  O239  1  0.59239975  0.87654277  0.24289029  1
