# generated using pymatgen
data_NaCaTaP2SO12
_symmetry_space_group_name_H-M   'P 1'
_cell_length_a   8.98893927
_cell_length_b   8.98893897
_cell_length_c   22.96801301
_cell_angle_alpha   90.58867725
_cell_angle_beta   89.41132271
_cell_angle_gamma   120.04266839
_symmetry_Int_Tables_number   1
_chemical_formula_structural   NaCaTaP2SO12
_chemical_formula_sum   'Na6 Ca6 Ta6 P12 S6 O72'
_cell_volume   1606.39926267
_cell_formula_units_Z   6
loop_
 _symmetry_equiv_pos_site_id
 _symmetry_equiv_pos_as_xyz
  1  'x, y, z'
loop_
 _atom_site_type_symbol
 _atom_site_label
 _atom_site_symmetry_multiplicity
 _atom_site_fract_x
 _atom_site_fract_y
 _atom_site_fract_z
 _atom_site_occupancy
  Na  Na0  1  0.98359075  0.97719720  0.49320105  1
  Na  Na1  1  0.02280280  0.01640925  0.99320105  1
  Na  Na2  1  0.65025775  0.31053020  0.82653405  1
  Na  Na3  1  0.68946980  0.34974225  0.32653405  1
  Na  Na4  1  0.31692375  0.64386420  0.15986805  1
  Na  Na5  1  0.35613580  0.68307625  0.65986805  1
  Ca  Ca6  1  0.99370406  0.99575494  0.35511222  1
  Ca  Ca7  1  0.00424506  0.00629594  0.85511222  1
  Ca  Ca8  1  0.66037106  0.32908794  0.68844522  1
  Ca  Ca9  1  0.67091206  0.33962894  0.18844522  1
  Ca  Ca10  1  0.32703706  0.66242194  0.02177922  1
  Ca  Ca11  1  0.33757806  0.67296294  0.52177922  1
  Ta  Ta12  1  0.99891377  0.00491348  0.64698244  1
  Ta  Ta13  1  0.99508652  0.00108623  0.14698244  1
  Ta  Ta14  1  0.66558077  0.33824648  0.98031544  1
  Ta  Ta15  1  0.66175352  0.33441923  0.48031544  1
  Ta  Ta16  1  0.33224677  0.67158048  0.31364944  1
  Ta  Ta17  1  0.32841952  0.66775323  0.81364944  1
  P  P18  1  0.69852182  0.71374959  0.25164070  1
  P  P19  1  0.01428894  0.29942194  0.25263151  1
  P  P20  1  0.28625041  0.30147818  0.75164070  1
  P  P21  1  0.70057806  0.98571106  0.75263151  1
  P  P22  1  0.36518882  0.04708259  0.58497370  1
  P  P23  1  0.68095594  0.63275494  0.58596451  1
  P  P24  1  0.95291741  0.63481118  0.08497370  1
  P  P25  1  0.36724506  0.31904406  0.08596451  1
  P  P26  1  0.03185482  0.38041659  0.91830770  1
  P  P27  1  0.34762194  0.96608894  0.91929851  1
  P  P28  1  0.61958341  0.96814518  0.41830770  1
  P  P29  1  0.03391106  0.65237806  0.41929851  1
  S  S30  1  0.28302618  0.98463423  0.24976032  1
  S  S31  1  0.01536577  0.71697382  0.74976032  1
  S  S32  1  0.94969318  0.31796723  0.58309332  1
  S  S33  1  0.68203277  0.05030682  0.08309332  1
  S  S34  1  0.61635918  0.65130123  0.91642732  1
  S  S35  1  0.34869877  0.38364082  0.41642732  1
  O  O36  1  0.21123533  0.00908964  0.30272108  1
  O  O37  1  0.80295944  0.79193826  0.30448555  1
  O  O38  1  0.00204145  0.20155219  0.30566919  1
  O  O39  1  0.20806174  0.19704056  0.80448555  1
  O  O40  1  0.99091036  0.78876467  0.80272108  1
  O  O41  1  0.79844781  0.99795855  0.80566919  1
  O  O42  1  0.80059345  0.96635910  0.69577552  1
  O  O43  1  0.16448805  0.19947435  0.69586206  1
  O  O44  1  0.03745227  0.82841611  0.69697159  1
  O  O45  1  0.80052565  0.83551195  0.19586206  1
  O  O46  1  0.03364090  0.19940655  0.19577552  1
  O  O47  1  0.17158389  0.96254773  0.19697159  1
  O  O48  1  0.87790233  0.34242264  0.63605408  1
  O  O49  1  0.46962644  0.12527126  0.63781855  1
  O  O50  1  0.66870845  0.53488519  0.63900219  1
  O  O51  1  0.87472874  0.53037356  0.13781855  1
  O  O52  1  0.65757736  0.12209767  0.13605408  1
  O  O53  1  0.46511481  0.33129155  0.13900219  1
  O  O54  1  0.46726045  0.29969210  0.02910852  1
  O  O55  1  0.83115505  0.53280735  0.02919506  1
  O  O56  1  0.70411927  0.16174911  0.03030459  1
  O  O57  1  0.46719265  0.16884495  0.52919506  1
  O  O58  1  0.70030790  0.53273955  0.52910852  1
  O  O59  1  0.83825089  0.29588073  0.53030459  1
  O  O60  1  0.54456833  0.67575664  0.96938808  1
  O  O61  1  0.13629244  0.45860526  0.97115255  1
  O  O62  1  0.33537445  0.86821919  0.97233619  1
  O  O63  1  0.54139474  0.86370756  0.47115255  1
  O  O64  1  0.32424336  0.45543167  0.46938808  1
  O  O65  1  0.13178081  0.66462555  0.47233619  1
  O  O66  1  0.13392645  0.63302610  0.36244252  1
  O  O67  1  0.49782105  0.86614135  0.36252906  1
  O  O68  1  0.37078527  0.49508311  0.36363859  1
  O  O69  1  0.13385865  0.50217895  0.86252906  1
  O  O70  1  0.36697390  0.86607355  0.86244252  1
  O  O71  1  0.50491689  0.62921473  0.86363859  1
  O  O72  1  0.00136550  0.80012640  0.41209304  1
  O  O73  1  0.80392966  0.01335945  0.41057842  1
  O  O74  1  0.21326860  0.20751064  0.40819138  1
  O  O75  1  0.98664055  0.19607034  0.91057842  1
  O  O76  1  0.19987360  0.99863450  0.91209304  1
  O  O77  1  0.79248936  0.78673140  0.90819138  1
  O  O78  1  0.95014958  0.14699079  0.58720718  1
  O  O79  1  0.18785350  0.04797914  0.59075850  1
  O  O80  1  0.85570352  0.81461841  0.59035824  1
  O  O81  1  0.95202086  0.81214650  0.09075850  1
  O  O82  1  0.85300921  0.04985042  0.08720718  1
  O  O83  1  0.18538159  0.14429648  0.09035824  1
  O  O84  1  0.66803250  0.13345940  0.74542604  1
  O  O85  1  0.47059666  0.34669245  0.74391142  1
  O  O86  1  0.87993560  0.54084364  0.74152438  1
  O  O87  1  0.65330755  0.52940334  0.24391142  1
  O  O88  1  0.86654060  0.33196750  0.24542604  1
  O  O89  1  0.45915636  0.12006440  0.24152438  1
  O  O90  1  0.61681658  0.48032379  0.92054018  1
  O  O91  1  0.85452050  0.38131214  0.92409150  1
  O  O92  1  0.52237052  0.14795141  0.92369124  1
  O  O93  1  0.61868786  0.14547950  0.42409150  1
  O  O94  1  0.51967621  0.38318342  0.42054018  1
  O  O95  1  0.85204859  0.47762948  0.42369124  1
  O  O96  1  0.33469850  0.46679340  0.07876004  1
  O  O97  1  0.13726266  0.68002645  0.07724542  1
  O  O98  1  0.54660160  0.87417764  0.07485838  1
  O  O99  1  0.31997355  0.86273734  0.57724542  1
  O  O100  1  0.53320660  0.66530150  0.57876004  1
  O  O101  1  0.12582236  0.45339840  0.57485838  1
  O  O102  1  0.28348258  0.81365779  0.25387418  1
  O  O103  1  0.52118650  0.71464614  0.25742550  1
  O  O104  1  0.18903652  0.48128541  0.25702524  1
  O  O105  1  0.28535386  0.47881350  0.75742550  1
  O  O106  1  0.18634221  0.71651742  0.75387418  1
  O  O107  1  0.51871459  0.81096348  0.75702524  1
