# generated using pymatgen
data_Mg2Ta10Si9(SO8)9
_symmetry_space_group_name_H-M   'P 1'
_cell_length_a   8.83228615
_cell_length_b   8.86103652
_cell_length_c   22.79532949
_cell_angle_alpha   90.28072556
_cell_angle_beta   89.83141932
_cell_angle_gamma   119.83691298
_symmetry_Int_Tables_number   1
_chemical_formula_structural   Mg2Ta10Si9(SO8)9
_chemical_formula_sum   'Mg2 Ta10 Si9 S9 O72'
_cell_volume   1547.53415042
_cell_formula_units_Z   1
loop_
 _symmetry_equiv_pos_site_id
 _symmetry_equiv_pos_as_xyz
  1  'x, y, z'
loop_
 _atom_site_type_symbol
 _atom_site_label
 _atom_site_symmetry_multiplicity
 _atom_site_fract_x
 _atom_site_fract_y
 _atom_site_fract_z
 _atom_site_occupancy
  Mg  Mg0  1  0.68147126  0.34207969  0.69240267  1
  Mg  Mg1  1  0.66217774  0.33683576  0.18823618  1
  Ta  Ta2  1  -0.00005591  0.00075382  0.36056350  1
  Ta  Ta3  1  -0.00023183  0.99001011  0.85962063  1
  Ta  Ta4  1  0.00204410  -0.00000770  0.64489022  1
  Ta  Ta5  1  0.00485627  0.00439680  0.14047441  1
  Ta  Ta6  1  0.65220162  0.33049077  0.97164279  1
  Ta  Ta7  1  0.67756757  0.33009644  0.47539641  1
  Ta  Ta8  1  0.33257704  0.65574471  0.01803812  1
  Ta  Ta9  1  0.32560184  0.65981774  0.52270450  1
  Ta  Ta10  1  0.33407286  0.66430314  0.31380923  1
  Ta  Ta11  1  0.32380240  0.66547804  0.81016995  1
  Si  Si12  1  0.99346590  0.70726734  0.74925566  1
  Si  Si13  1  0.94979902  0.33095220  0.58716180  1
  Si  Si14  1  0.39211287  0.34351387  0.08695678  1
  Si  Si15  1  0.61507401  0.66747151  0.91334584  1
  Si  Si16  1  0.04483933  0.37974699  0.91468191  1
  Si  Si17  1  0.33222533  0.94492400  0.91717622  1
  Si  Si18  1  0.61262740  0.94711283  0.41790828  1
  Si  Si19  1  0.33907473  0.38440524  0.41733498  1
  Si  Si20  1  0.05039178  0.66650444  0.41695705  1
  S  S21  1  0.28452882  0.99818451  0.24930536  1
  S  S22  1  0.71633990  0.71547759  0.24960490  1
  S  S23  1  0.99811223  0.28436296  0.24891392  1
  S  S24  1  0.28648445  0.28437798  0.74943913  1
  S  S25  1  0.71352624  -0.00153923  0.75029003  1
  S  S26  1  0.38273097  0.04907471  0.58476434  1
  S  S27  1  0.66539527  0.61916886  0.58471119  1
  S  S28  1  0.95429787  0.61811223  0.08581531  1
  S  S29  1  0.66387907  0.04600187  0.08558549  1
  O  O30  1  0.19497114  0.02193646  0.30123233  1
  O  O31  1  0.82559925  0.80746359  0.30204305  1
  O  O32  1  0.97578838  0.17440106  0.30093431  1
  O  O33  1  0.19926215  0.17857965  0.80170238  1
  O  O34  1  0.98682636  0.82435282  0.80522086  1
  O  O35  1  0.82528714  0.02699957  0.80227756  1
  O  O36  1  0.80343385  0.97305582  0.69677284  1
  O  O37  1  0.16827554  0.20162846  0.69590843  1
  O  O38  1  0.02921903  0.84101668  0.69226594  1
  O  O39  1  0.79936879  0.82814879  0.19739077  1
  O  O40  1  0.02566286  0.19588195  0.19642868  1
  O  O41  1  0.16870385  0.97042875  0.19694375  1
  O  O42  1  0.86402959  0.36491307  0.64119543  1
  O  O43  1  0.48348107  0.12522487  0.63688345  1
  O  O44  1  0.62893013  0.51322674  0.63596676  1
  O  O45  1  0.88116439  0.51528252  0.13813727  1
  O  O46  1  0.64324322  0.12532378  0.13836270  1
  O  O47  1  0.49630068  0.36670738  0.14479971  1
  O  O48  1  0.47735654  0.30492792  0.02827583  1
  O  O49  1  0.84600897  0.54685444  0.03327106  1
  O  O50  1  0.70502669  0.15515711  0.03307429  1
  O  O51  1  0.45930675  0.15744291  0.53105709  1
  O  O52  1  0.69693879  0.54211056  0.53091601  1
  O  O53  1  0.83194515  0.30423769  0.52611908  1
  O  O54  1  0.52781240  0.69703356  0.97316506  1
  O  O55  1  0.16989097  0.47031691  0.97261771  1
  O  O56  1  0.30194717  0.83075992  0.97601600  1
  O  O57  1  0.53000791  0.82786060  0.47424342  1
  O  O58  1  0.29949558  0.47329269  0.47270001  1
  O  O59  1  0.17373195  0.70445647  0.47323149  1
  O  O60  1  0.13981676  0.63401269  0.35783623  1
  O  O61  1  0.49381306  0.85676249  0.35808008  1
  O  O62  1  0.36598589  0.50403956  0.35801459  1
  O  O63  1  0.13535254  0.50622801  0.85846799  1
  O  O64  1  0.36691015  0.85792087  0.85954826  1
  O  O65  1  0.49427057  0.63141306  0.85680626  1
  O  O66  1  0.02920406  0.83569066  0.40171632  1
  O  O67  1  0.80604633  0.97440279  0.40172676  1
  O  O68  1  0.16720811  0.19610334  0.40095604  1
  O  O69  1  0.02647525  0.19392180  0.90096256  1
  O  O70  1  0.16876930  0.97660765  0.90683897  1
  O  O71  1  0.80572003  0.83839401  0.90612722  1
  O  O72  1  0.97879335  0.16083406  0.59458784  1
  O  O73  1  0.20168660  0.02670398  0.59079323  1
  O  O74  1  0.82409674  0.79787125  0.59215963  1
  O  O75  1  0.97137826  0.80006607  0.09617781  1
  O  O76  1  0.82477940  0.02023331  0.09548765  1
  O  O77  1  0.18732111  0.16384044  0.09629224  1
  O  O78  1  0.68676781  0.14383363  0.74199720  1
  O  O79  1  0.45198115  0.29580022  0.73899073  1
  O  O80  1  0.82258925  0.52749257  0.74632038  1
  O  O81  1  0.70251487  0.54670977  0.24431252  1
  O  O82  1  0.84654921  0.30306472  0.24022500  1
  O  O83  1  0.45559212  0.14777469  0.24238376  1
  O  O84  1  0.64143026  0.50080047  0.92742107  1
  O  O85  1  0.85984587  0.36176900  0.93413659  1
  O  O86  1  0.50579517  0.13627499  0.92693840  1
  O  O87  1  0.63236311  0.13763673  0.42644502  1
  O  O88  1  0.50263348  0.36001324  0.43131363  1
  O  O89  1  0.85845745  0.50141374  0.42734767  1
  O  O90  1  0.35001630  0.50043151  0.07327134  1
  O  O91  1  0.13395697  0.65293070  0.07657211  1
  O  O92  1  0.51461200  0.87035557  0.07674884  1
  O  O93  1  0.35814691  0.87129746  0.57417157  1
  O  O94  1  0.51532754  0.64993321  0.57333353  1
  O  O95  1  0.14662470  0.49859967  0.57137465  1
  O  O96  1  0.29215777  0.83423862  0.25582324  1
  O  O97  1  0.54110850  0.70181178  0.25702190  1
  O  O98  1  0.16099880  0.45634714  0.25536954  1
  O  O99  1  0.29897930  0.45762331  0.75562053  1
  O  O100  1  0.17843108  0.70261307  0.75789705  1
  O  O101  1  0.54548642  0.83204618  0.75607397  1
