# generated using pymatgen
data_Hf3ZnP2(SO6)4
_symmetry_space_group_name_H-M   'P 1'
_cell_length_a   8.84347075
_cell_length_b   8.87138150
_cell_length_c   22.83662204
_cell_angle_alpha   90.03557372
_cell_angle_beta   89.93005766
_cell_angle_gamma   119.95987069
_symmetry_Int_Tables_number   1
_chemical_formula_structural   Hf3ZnP2(SO6)4
_chemical_formula_sum   'Hf9 Zn3 P6 S12 O72'
_cell_volume   1552.21417565
_cell_formula_units_Z   3
loop_
 _symmetry_equiv_pos_site_id
 _symmetry_equiv_pos_as_xyz
  1  'x, y, z'
loop_
 _atom_site_type_symbol
 _atom_site_label
 _atom_site_symmetry_multiplicity
 _atom_site_fract_x
 _atom_site_fract_y
 _atom_site_fract_z
 _atom_site_occupancy
  Hf  Hf0  1  0.00107366  0.00053230  0.85905632  1
  Hf  Hf1  1  0.99892529  0.00498163  0.64365253  1
  Hf  Hf2  1  0.00550286  0.00598473  0.14461871  1
  Hf  Hf3  1  0.65885002  0.33128222  0.97669507  1
  Hf  Hf4  1  0.67238609  0.32590294  0.47599084  1
  Hf  Hf5  1  0.33331132  0.66103811  0.02187625  1
  Hf  Hf6  1  0.33509610  0.66633829  0.52071826  1
  Hf  Hf7  1  0.33962132  0.67365180  0.30864796  1
  Hf  Hf8  1  0.33186793  0.66606662  0.81377302  1
  Zn  Zn9  1  0.99012772  0.99968808  0.35307158  1
  Zn  Zn10  1  0.67668179  0.33634447  0.68627811  1
  Zn  Zn11  1  0.65988698  0.33531465  0.18607505  1
  P  P12  1  0.95412697  0.33686016  0.58494000  1
  P  P13  1  0.38259466  0.33473154  0.08542599  1
  P  P14  1  0.61993691  0.66613372  0.91658621  1
  P  P15  1  0.04405233  0.37992484  0.91697536  1
  P  P16  1  0.33423724  0.95224984  0.91724538  1
  P  P17  1  0.62668179  0.95170615  0.41559185  1
  S  S18  1  0.29046781  0.00594429  0.25147299  1
  S  S19  1  0.71574827  0.70815880  0.25050924  1
  S  S20  1  0.99421685  0.28837436  0.25083387  1
  S  S21  1  0.29378243  0.28899517  0.74948704  1
  S  S22  1  0.99649787  0.70904909  0.74957139  1
  S  S23  1  0.71062598  0.00294852  0.75003777  1
  S  S24  1  0.37986534  0.04571673  0.58438275  1
  S  S25  1  0.66603482  0.61894542  0.58422671  1
  S  S26  1  0.95393076  0.62055053  0.08467083  1
  S  S27  1  0.66588661  0.04553973  0.08461146  1
  S  S28  1  0.33068686  0.37482136  0.41603124  1
  S  S29  1  0.04643707  0.67178868  0.41585710  1
  O  O30  1  0.20795174  0.02821179  0.30359787  1
  O  O31  1  0.81916613  0.78861005  0.30289188  1
  O  O32  1  0.97032656  0.18295218  0.30269868  1
  O  O33  1  0.20586949  0.17894999  0.80139826  1
  O  O34  1  0.97499754  0.79720514  0.80172979  1
  O  O35  1  0.82179907  0.02596280  0.80164983  1
  O  O36  1  0.79498959  0.97186971  0.69743046  1
  O  O37  1  0.17746315  0.20410117  0.69713428  1
  O  O38  1  0.02737312  0.82311314  0.69715321  1
  O  O39  1  0.79345867  0.82275270  0.19778773  1
  O  O40  1  0.02954201  0.20698595  0.19788601  1
  O  O41  1  0.17596918  0.97034116  0.19827514  1
  O  O42  1  0.87595706  0.36814826  0.63874466  1
  O  O43  1  0.48418151  0.11950172  0.63663296  1
  O  O44  1  0.63265465  0.51422513  0.63663049  1
  O  O45  1  0.88107126  0.51473673  0.13670163  1
  O  O46  1  0.63663292  0.12050708  0.13682760  1
  O  O47  1  0.49209984  0.36664038  0.13909691  1
  O  O48  1  0.46379504  0.30281944  0.02966087  1
  O  O49  1  0.84636809  0.54241971  0.03138619  1
  O  O50  1  0.69847459  0.15429474  0.03139515  1
  O  O51  1  0.45706442  0.15551043  0.53132422  1
  O  O52  1  0.69522119  0.54108313  0.53109662  1
  O  O53  1  0.83832389  0.30411488  0.52951700  1
  O  O54  1  0.53745792  0.69869632  0.97056328  1
  O  O55  1  0.16079061  0.46363779  0.97055155  1
  O  O56  1  0.30286140  0.83862665  0.97108618  1
  O  O57  1  0.53098254  0.83905945  0.47045591  1
  O  O58  1  0.30658130  0.46165787  0.46911646  1
  O  O59  1  0.15409915  0.69168162  0.46907522  1
  O  O60  1  0.12554360  0.63473800  0.36438771  1
  O  O61  1  0.50190946  0.86400751  0.36264055  1
  O  O62  1  0.36262035  0.48965196  0.36455688  1
  O  O63  1  0.13010328  0.49364848  0.86194069  1
  O  O64  1  0.36294356  0.86817123  0.86183281  1
  O  O65  1  0.50561876  0.63643881  0.86173364  1
  O  O66  1  0.02805629  0.82335027  0.40895941  1
  O  O67  1  0.80468408  0.97485919  0.40818493  1
  O  O68  1  0.17992726  0.20391144  0.40906270  1
  O  O69  1  0.02589104  0.20002876  0.90584118  1
  O  O70  1  0.17437008  0.97446309  0.90611442  1
  O  O71  1  0.80087204  0.82682775  0.90592890  1
  O  O72  1  0.97572406  0.17337277  0.59342969  1
  O  O73  1  0.20154337  0.02324664  0.59201972  1
  O  O74  1  0.82245096  0.79641581  0.59225544  1
  O  O75  1  0.97345250  0.79728203  0.09255664  1
  O  O76  1  0.82202956  0.02296939  0.09224775  1
  O  O77  1  0.19655888  0.17188660  0.09358526  1
  O  O78  1  0.69088517  0.15419550  0.74212411  1
  O  O79  1  0.46451742  0.30723425  0.74056984  1
  O  O80  1  0.84327512  0.53859294  0.74253975  1
  O  O81  1  0.69065786  0.53535091  0.24156355  1
  O  O82  1  0.84555591  0.31179687  0.23985688  1
  O  O83  1  0.46438056  0.15139199  0.24176483  1
  O  O84  1  0.64262688  0.50769893  0.92574557  1
  O  O85  1  0.86416857  0.35867954  0.92715086  1
  O  O86  1  0.49473166  0.13308094  0.92545553  1
  O  O87  1  0.63570390  0.13079599  0.42621057  1
  O  O88  1  0.49168762  0.36432036  0.42682330  1
  O  O89  1  0.87165703  0.51258583  0.42570510  1
  O  O90  1  0.35497763  0.49109734  0.07344465  1
  O  O91  1  0.13145963  0.64660850  0.07432217  1
  O  O92  1  0.51310660  0.87006441  0.07427427  1
  O  O93  1  0.35541948  0.86940257  0.57357267  1
  O  O94  1  0.51370246  0.64483701  0.57400237  1
  O  O95  1  0.13745088  0.49223756  0.57143791  1
  O  O96  1  0.30245199  0.84142137  0.25833202  1
  O  O97  1  0.53720180  0.69290122  0.25831130  1
  O  O98  1  0.15714141  0.46366662  0.25912036  1
  O  O99  1  0.30528698  0.46083902  0.75721521  1
  O  O100  1  0.15655851  0.69546425  0.75737946  1
  O  O101  1  0.53843052  0.84248448  0.75739249  1
