# generated using pymatgen
data_Na7Mg3Nb(PO4)6
_symmetry_space_group_name_H-M   'P 1'
_cell_length_a   9.01353067
_cell_length_b   8.99146479
_cell_length_c   22.17891855
_cell_angle_alpha   90.05164410
_cell_angle_beta   90.07341179
_cell_angle_gamma   119.97707499
_symmetry_Int_Tables_number   1
_chemical_formula_structural   Na7Mg3Nb(PO4)6
_chemical_formula_sum   'Na21 Mg9 Nb3 P18 O72'
_cell_volume   1557.02512758
_cell_formula_units_Z   3
loop_
 _symmetry_equiv_pos_site_id
 _symmetry_equiv_pos_as_xyz
  1  'x, y, z'
loop_
 _atom_site_type_symbol
 _atom_site_label
 _atom_site_symmetry_multiplicity
 _atom_site_fract_x
 _atom_site_fract_y
 _atom_site_fract_z
 _atom_site_occupancy
  Na  Na0  1  0.63497939  0.99977089  0.24912330  1
  Na  Na1  1  0.36463130  0.36496001  0.24907040  1
  Na  Na2  1  0.00022620  0.63536836  0.24919699  1
  Na  Na3  1  0.64724378  0.63567042  0.74834007  1
  Na  Na4  1  0.99120723  0.35483072  0.74837234  1
  Na  Na5  1  0.29687712  0.33390536  0.58586932  1
  Na  Na6  1  0.03703947  0.70369453  0.58608629  1
  Na  Na7  1  0.66596047  0.96384251  0.58605567  1
  Na  Na8  1  0.29632125  0.96309879  0.08671902  1
  Na  Na9  1  0.66593143  0.70326481  0.08675414  1
  Na  Na10  1  0.03800168  0.33321435  0.08725924  1
  Na  Na11  1  0.32296688  0.29658748  0.91318635  1
  Na  Na12  1  0.97808086  0.29974494  0.40839272  1
  Na  Na13  1  0.32129904  0.02148436  0.40843862  1
  Na  Na14  1  0.70068854  0.67837866  0.40835402  1
  Na  Na15  1  0.00008752  0.99990706  0.49900010  1
  Na  Na16  1  0.99048828  0.99113675  0.99707082  1
  Na  Na17  1  0.66547845  0.32408247  0.82829129  1
  Na  Na18  1  0.66687184  0.33347215  0.32318328  1
  Na  Na19  1  0.33341238  0.66644428  0.16983209  1
  Na  Na20  1  0.33425300  0.67589255  0.66404827  1
  Mg  Mg21  1  0.00039381  0.99997974  0.34554200  1
  Mg  Mg22  1  0.99519556  0.99465488  0.85104972  1
  Mg  Mg23  1  0.00130651  0.99935957  0.65257200  1
  Mg  Mg24  1  0.00015253  0.99984874  0.15235491  1
  Mg  Mg25  1  0.66098274  0.32722783  0.68630084  1
  Mg  Mg26  1  0.66645477  0.33341899  0.18503508  1
  Mg  Mg27  1  0.33423108  0.66788032  0.01710830  1
  Mg  Mg28  1  0.33328064  0.66693275  0.51596278  1
  Mg  Mg29  1  0.33326077  0.66661270  0.31458486  1
  Nb  Nb30  1  0.67181364  0.33458498  0.97934896  1
  Nb  Nb31  1  0.66594785  0.33277969  0.48151642  1
  Nb  Nb32  1  0.33357941  0.67364148  0.81436208  1
  P  P33  1  0.29566810  0.99944441  0.24999122  1
  P  P34  1  0.70383825  0.70442131  0.24995515  1
  P  P35  1  0.00045816  0.29612532  0.25001647  1
  P  P36  1  0.29474485  0.29139166  0.75138565  1
  P  P37  1  0.99861667  0.70825786  0.74936912  1
  P  P38  1  0.71023929  0.00303234  0.74980941  1
  P  P39  1  0.96244151  0.33516530  0.58592374  1
  P  P40  1  0.37349406  0.03813750  0.58532438  1
  P  P41  1  0.66507462  0.62776576  0.58590703  1
  P  P42  1  0.96179915  0.62659941  0.08523693  1
  P  P43  1  0.66483113  0.03861394  0.08512281  1
  P  P44  1  0.37425545  0.33479277  0.08412807  1
  P  P45  1  0.62986422  0.67252685  0.91905053  1
  P  P46  1  0.04196845  0.37288415  0.91852630  1
  P  P47  1  0.32942209  0.95895698  0.92012900  1
  P  P48  1  0.62704691  0.95756651  0.41791299  1
  P  P49  1  0.33082403  0.37308779  0.41791166  1
  P  P50  1  0.04182880  0.66899994  0.41794688  1
  O  O51  1  0.21489761  0.02902206  0.30729489  1
  O  O52  1  0.81407929  0.78532315  0.30736310  1
  O  O53  1  0.97124933  0.18585064  0.30734003  1
  O  O54  1  0.21068054  0.18968259  0.80798932  1
  O  O55  1  0.97062054  0.79378406  0.80314089  1
  O  O56  1  0.82334203  0.02826347  0.80371303  1
  O  O57  1  0.77314535  0.95649898  0.69144754  1
  O  O58  1  0.18300861  0.22288598  0.69387633  1
  O  O59  1  0.03459790  0.80971061  0.69012486  1
  O  O60  1  0.78637994  0.81634720  0.19338276  1
  O  O61  1  0.02960268  0.21341049  0.19333308  1
  O  O62  1  0.18376719  0.97005930  0.19332187  1
  O  O63  1  0.87711391  0.36339483  0.64016725  1
  O  O64  1  0.49235219  0.12772105  0.63727283  1
  O  O65  1  0.63805106  0.51446927  0.64018257  1
  O  O66  1  0.87785314  0.51361111  0.13993593  1
  O  O67  1  0.63634773  0.12253347  0.14004724  1
  O  O68  1  0.48761837  0.36339266  0.13887001  1
  O  O69  1  0.47118513  0.31121972  0.02638860  1
  O  O70  1  0.83735724  0.52559461  0.02842584  1
  O  O71  1  0.68828151  0.16342548  0.02857969  1
  O  O72  1  0.46788760  0.15633916  0.52656488  1
  O  O73  1  0.68749431  0.52973848  0.52829460  1
  O  O74  1  0.84158489  0.31160008  0.52832109  1
  O  O75  1  0.54170764  0.68681521  0.97518116  1
  O  O76  1  0.15042957  0.45756398  0.97409070  1
  O  O77  1  0.31055800  0.85554585  0.97614786  1
  O  O78  1  0.54677057  0.85255514  0.47510282  1
  O  O79  1  0.30619980  0.45340140  0.47520829  1
  O  O80  1  0.14709315  0.69391158  0.47516707  1
  O  O81  1  0.11338345  0.62717827  0.36223646  1
  O  O82  1  0.51366123  0.88585922  0.36216070  1
  O  O83  1  0.37215002  0.48642285  0.36223360  1
  O  O84  1  0.13111479  0.49203717  0.86138420  1
  O  O85  1  0.35751364  0.86456641  0.86392450  1
  O  O86  1  0.50598468  0.63710749  0.86212661  1
  O  O87  1  0.01221630  0.82339048  0.41242217  1
  O  O88  1  0.81068384  0.98747508  0.41247100  1
  O  O89  1  0.17696893  0.18903362  0.41237489  1
  O  O90  1  0.02394909  0.19701888  0.90945004  1
  O  O91  1  0.18115022  0.99109274  0.91046172  1
  O  O92  1  0.80661142  0.82293665  0.90997978  1
  O  O93  1  0.97250257  0.16860164  0.58577205  1
  O  O94  1  0.19753334  0.02890496  0.58547530  1
  O  O95  1  0.83118000  0.80407644  0.58528518  1
  O  O96  1  0.97082214  0.80217586  0.08490045  1
  O  O97  1  0.83060328  0.02879124  0.08472269  1
  O  O98  1  0.19788466  0.16887168  0.08438079  1
  O  O99  1  0.68758857  0.16047443  0.74390509  1
  O  O100  1  0.48049824  0.32990768  0.74553960  1
  O  O101  1  0.84473526  0.52202309  0.74479676  1
  O  O102  1  0.68484542  0.52267438  0.24500272  1
  O  O103  1  0.83813003  0.31519678  0.24509184  1
  O  O104  1  0.47688288  0.16212136  0.24511045  1
  O  O105  1  0.63370299  0.49542524  0.92187224  1
  O  O106  1  0.86039341  0.35991526  0.92243011  1
  O  O107  1  0.49978753  0.14249638  0.92203478  1
  O  O108  1  0.64801627  0.14685253  0.42547317  1
  O  O109  1  0.49927329  0.35292284  0.42547043  1
  O  O110  1  0.85319063  0.50084461  0.42568187  1
  O  O111  1  0.35535689  0.49499528  0.07635154  1
  O  O112  1  0.13907596  0.64402107  0.07636160  1
  O  O113  1  0.50511574  0.86059761  0.07644217  1
  O  O114  1  0.35394003  0.85881862  0.57689603  1
  O  O115  1  0.50473042  0.64535990  0.57728738  1
  O  O116  1  0.14045462  0.49532949  0.57718301  1
  O  O117  1  0.31437983  0.83677071  0.25553175  1
  O  O118  1  0.52278248  0.68556841  0.25550499  1
  O  O119  1  0.16287418  0.47745046  0.25557478  1
  O  O120  1  0.31236156  0.48207295  0.75876003  1
  O  O121  1  0.16409057  0.68359302  0.75859865  1
  O  O122  1  0.52359568  0.83327871  0.75969707  1
