# generated using pymatgen
data_Na4AlInSi(PO6)2
_symmetry_space_group_name_H-M   'P 1'
_cell_length_a   8.99522806
_cell_length_b   8.99926786
_cell_length_c   21.93726306
_cell_angle_alpha   89.99908118
_cell_angle_beta   89.85013931
_cell_angle_gamma   120.08889431
_symmetry_Int_Tables_number   1
_chemical_formula_structural   Na4AlInSi(PO6)2
_chemical_formula_sum   'Na24 Al6 In6 Si6 P12 O72'
_cell_volume   1536.52883650
_cell_formula_units_Z   6
loop_
 _symmetry_equiv_pos_site_id
 _symmetry_equiv_pos_as_xyz
  1  'x, y, z'
loop_
 _atom_site_type_symbol
 _atom_site_label
 _atom_site_symmetry_multiplicity
 _atom_site_fract_x
 _atom_site_fract_y
 _atom_site_fract_z
 _atom_site_occupancy
  Na  Na0  1  0.63473301  0.00253683  0.25350410  1
  Na  Na1  1  0.36564035  0.36796682  0.25037804  1
  Na  Na2  1  0.00037521  0.62324898  0.25068692  1
  Na  Na3  1  0.63599780  0.63738764  0.74559105  1
  Na  Na4  1  0.99384319  0.36032906  0.74907893  1
  Na  Na5  1  0.37680740  0.00455844  0.74726921  1
  Na  Na6  1  0.29775316  0.33059718  0.58230215  1
  Na  Na7  1  0.04332763  0.70958851  0.58128856  1
  Na  Na8  1  0.66281617  0.96306869  0.58737599  1
  Na  Na9  1  0.29815434  0.96639624  0.08283212  1
  Na  Na10  1  0.67378547  0.69642087  0.08404819  1
  Na  Na11  1  0.02950518  0.33763787  0.08986678  1
  Na  Na12  1  0.97365122  0.67372573  0.92054624  1
  Na  Na13  1  0.69368791  0.03293840  0.91149323  1
  Na  Na14  1  0.33312250  0.29726565  0.91620452  1
  Na  Na15  1  0.96717364  0.30284127  0.41222861  1
  Na  Na16  1  0.32787956  0.02713250  0.41985743  1
  Na  Na17  1  0.70141481  0.66806738  0.41631997  1
  Na  Na18  1  0.00388028  0.99579769  0.49932338  1
  Na  Na19  1  0.00335801  0.99506920  0.00143797  1
  Na  Na20  1  0.66332743  0.32380164  0.83147537  1
  Na  Na21  1  0.67344882  0.33493382  0.33625946  1
  Na  Na22  1  0.32540852  0.66260510  0.16918663  1
  Na  Na23  1  0.33707659  0.67385692  0.66443799  1
  Al  Al24  1  0.99840477  0.99642767  0.35025146  1
  Al  Al25  1  0.00404014  0.99988649  0.64697944  1
  Al  Al26  1  0.00156623  0.00153582  0.15224868  1
  Al  Al27  1  0.66505689  0.32669741  0.68217312  1
  Al  Al28  1  0.66792613  0.33658577  0.48356789  1
  Al  Al29  1  0.31885606  0.65514122  0.31688021  1
  In  In30  1  0.99905013  0.99972274  0.84409912  1
  In  In31  1  0.67127297  0.33295581  0.18776094  1
  In  In32  1  0.66999642  0.33664381  0.98819513  1
  In  In33  1  0.32941829  0.67034751  0.01622953  1
  In  In34  1  0.32966372  0.67270312  0.51504929  1
  In  In35  1  0.33885958  0.67579743  0.81226026  1
  Si  Si36  1  0.00853988  0.28679112  0.25323219  1
  Si  Si37  1  0.71236149  0.01000409  0.74323330  1
  Si  Si38  1  0.37784638  0.05263673  0.58378008  1
  Si  Si39  1  0.96981125  0.64624247  0.08775641  1
  Si  Si40  1  0.33387791  0.97349840  0.91557339  1
  Si  Si41  1  0.03023940  0.66709713  0.41477176  1
  P  P42  1  0.28028182  0.99212588  0.25245765  1
  P  P43  1  0.70911436  0.71945518  0.25256175  1
  P  P44  1  0.30033832  0.29266718  0.74420066  1
  P  P45  1  0.98929385  0.69852632  0.74360903  1
  P  P46  1  0.94704455  0.32637136  0.58360417  1
  P  P47  1  0.67322421  0.61822281  0.58423834  1
  P  P48  1  0.67581886  0.03095314  0.08693637  1
  P  P49  1  0.35818808  0.32499452  0.08713763  1
  P  P50  1  0.63194679  0.66489645  0.91586111  1
  P  P51  1  0.03521337  0.36665938  0.91540663  1
  P  P52  1  0.62946381  0.96002384  0.41353612  1
  P  P53  1  0.33266152  0.37038224  0.41463607  1
  O  O54  1  0.19319583  0.01732179  0.30880476  1
  O  O55  1  0.82460818  0.80465005  0.30829748  1
  O  O56  1  0.98235520  0.16558263  0.31156177  1
  O  O57  1  0.23720728  0.19127176  0.80498231  1
  O  O58  1  0.95544046  0.76261507  0.80498742  1
  O  O59  1  0.81596759  0.04861798  0.80818505  1
  O  O60  1  0.81858492  0.97951361  0.68868822  1
  O  O61  1  0.17609936  0.19390632  0.69134594  1
  O  O62  1  0.02200849  0.82655896  0.69126261  1
  O  O63  1  0.79475264  0.82624615  0.19431085  1
  O  O64  1  0.03355485  0.19719378  0.19192435  1
  O  O65  1  0.17264022  0.96722679  0.19438678  1
  O  O66  1  0.86357095  0.35691737  0.64000368  1
  O  O67  1  0.49712446  0.14347566  0.64268914  1
  O  O68  1  0.65003887  0.50675870  0.64044358  1
  O  O69  1  0.88773239  0.51773042  0.14588827  1
  O  O70  1  0.62832710  0.10701001  0.14182221  1
  O  O71  1  0.47533104  0.35990963  0.14308864  1
  O  O72  1  0.43364523  0.28981305  0.02880291  1
  O  O73  1  0.85152392  0.57110643  0.02588209  1
  O  O74  1  0.70925243  0.14069289  0.02842735  1
  O  O75  1  0.46895086  0.17080876  0.52227430  1
  O  O76  1  0.69775792  0.53458868  0.52583910  1
  O  O77  1  0.83804582  0.30370228  0.52568610  1
  O  O78  1  0.54933898  0.68766149  0.97441144  1
  O  O79  1  0.14393839  0.44410827  0.97350914  1
  O  O80  1  0.29652627  0.85857811  0.97712873  1
  O  O81  1  0.56693022  0.85078346  0.47322672  1
  O  O82  1  0.29232957  0.43908770  0.47403798  1
  O  O83  1  0.14762597  0.72235628  0.47701110  1
  O  O84  1  0.12870026  0.62815110  0.35882457  1
  O  O85  1  0.50292576  0.86399870  0.36026055  1
  O  O86  1  0.36469302  0.49623087  0.36083139  1
  O  O87  1  0.11888948  0.47447559  0.85734337  1
  O  O88  1  0.37084973  0.89376372  0.85431958  1
  O  O89  1  0.52113108  0.63333705  0.85838333  1
  O  O90  1  0.00637457  0.83671886  0.40460145  1
  O  O91  1  0.81330693  0.98586089  0.40547623  1
  O  O92  1  0.17387009  0.18702483  0.40683042  1
  O  O93  1  0.01251801  0.18562240  0.91296606  1
  O  O94  1  0.16038047  0.98857004  0.91175444  1
  O  O95  1  0.80900096  0.82998645  0.91252256  1
  O  O96  1  0.96597399  0.16263983  0.58830602  1
  O  O97  1  0.18016658  0.02789450  0.59029397  1
  O  O98  1  0.83572969  0.80233146  0.58870215  1
  O  O99  1  0.98534350  0.83426265  0.09620138  1
  O  O100  1  0.84133230  0.02178368  0.09540626  1
  O  O101  1  0.17920658  0.16332402  0.09384748  1
  O  O102  1  0.68871420  0.18017777  0.73816565  1
  O  O103  1  0.48527777  0.32293016  0.73727098  1
  O  O104  1  0.82757436  0.51835684  0.73570666  1
  O  O105  1  0.68290005  0.53389318  0.25073559  1
  O  O106  1  0.83386556  0.30633681  0.25324149  1
  O  O107  1  0.46235565  0.15771740  0.24966674  1
  O  O108  1  0.65351484  0.50530072  0.91886149  1
  O  O109  1  0.85812822  0.35573679  0.91967406  1
  O  O110  1  0.50761830  0.16228466  0.92044844  1
  O  O111  1  0.64225168  0.13907212  0.42035767  1
  O  O112  1  0.49889865  0.35723873  0.42018138  1
  O  O113  1  0.83969748  0.48945403  0.42459231  1
  O  O114  1  0.34223784  0.48814204  0.08157910  1
  O  O115  1  0.15952876  0.66223687  0.08453168  1
  O  O116  1  0.52061478  0.84648434  0.08161384  1
  O  O117  1  0.35862215  0.85876594  0.58285162  1
  O  O118  1  0.50811987  0.63491874  0.58117534  1
  O  O119  1  0.13233491  0.48692446  0.58106050  1
  O  O120  1  0.30477272  0.83184164  0.25790383  1
  O  O121  1  0.52761024  0.70330336  0.25854965  1
  O  O122  1  0.18281541  0.48328802  0.25818068  1
  O  O123  1  0.30855354  0.46983902  0.74702820  1
  O  O124  1  0.15128638  0.67810245  0.74583886  1
  O  O125  1  0.52236285  0.83211768  0.74378247  1
