# generated using pymatgen
data_AlPS4
_symmetry_space_group_name_H-M   'P 1'
_cell_length_a   5.65406846
_cell_length_b   5.65501113
_cell_length_c   10.20667017
_cell_angle_alpha   90.00000000
_cell_angle_beta   90.00000000
_cell_angle_gamma   90.00000000
_symmetry_Int_Tables_number   1
_chemical_formula_structural   AlPS4
_chemical_formula_sum   'Al2 P2 S8'
_cell_volume   326.34623554
_cell_formula_units_Z   2
loop_
 _symmetry_equiv_pos_site_id
 _symmetry_equiv_pos_as_xyz
  1  'x, y, z'
loop_
 _atom_site_type_symbol
 _atom_site_label
 _atom_site_symmetry_multiplicity
 _atom_site_fract_x
 _atom_site_fract_y
 _atom_site_fract_z
 _atom_site_occupancy
  Al  Al0  1  0.00000000  0.00000000  -0.00000000  1
  Al  Al1  1  0.50000000  0.00000000  0.50000000  1
  P  P2  1  0.00000000  0.50000000  -0.00000000  1
  P  P3  1  0.00000000  0.00000000  0.50000000  1
  S  S4  1  0.20375568  0.27667968  0.11124951  1
  S  S5  1  0.20375568  0.72332032  0.88875049  1
  S  S6  1  0.79624432  0.27667968  0.88875049  1
  S  S7  1  0.79624432  0.72332032  0.11124951  1
  S  S8  1  0.77604536  0.79821037  0.61240226  1
  S  S9  1  0.77604536  0.20178963  0.38759774  1
  S  S10  1  0.22395464  0.79821037  0.38759774  1
  S  S11  1  0.22395464  0.20178963  0.61240226  1
