# generated using pymatgen
data_Na14Ta2Al6Si9(SO16)3
_symmetry_space_group_name_H-M   'P 1'
_cell_length_a   17.69624323
_cell_length_b   8.85958769
_cell_length_c   21.81612957
_cell_angle_alpha   89.82309371
_cell_angle_beta   90.22125356
_cell_angle_gamma   119.96916493
_symmetry_Int_Tables_number   1
_chemical_formula_structural   Na14Ta2Al6Si9(SO16)3
_chemical_formula_sum   'Na42 Ta6 Al18 Si27 S9 O144'
_cell_volume   2963.01709665
_cell_formula_units_Z   3
loop_
 _symmetry_equiv_pos_site_id
 _symmetry_equiv_pos_as_xyz
  1  'x, y, z'
loop_
 _atom_site_type_symbol
 _atom_site_label
 _atom_site_symmetry_multiplicity
 _atom_site_fract_x
 _atom_site_fract_y
 _atom_site_fract_z
 _atom_site_occupancy
  Na  Na0  1  0.81434383  0.99969375  0.24635248  1
  Na  Na1  1  0.68723687  0.37068386  0.24567791  1
  Na  Na2  1  0.50161525  0.62597682  0.24773223  1
  Na  Na3  1  0.31325492  0.62767771  0.74634297  1
  Na  Na4  1  0.99765637  0.36970741  0.74909048  1
  Na  Na5  1  0.18529313  0.00302383  0.74531987  1
  Na  Na6  1  0.15258576  0.33788970  0.58347337  1
  Na  Na7  1  0.65473708  0.34217542  0.58459836  1
  Na  Na8  1  0.01735741  0.69587289  0.58412445  1
  Na  Na9  1  0.51438568  0.68968741  0.58304960  1
  Na  Na10  1  0.32828058  0.97044765  0.58545220  1
  Na  Na11  1  0.83162206  0.96905189  0.58595941  1
  Na  Na12  1  0.15247549  0.96436229  0.08114659  1
  Na  Na13  1  0.65518507  0.96669358  0.07961611  1
  Na  Na14  1  0.33105184  0.69253885  0.08095312  1
  Na  Na15  1  0.82979332  0.69120261  0.08266189  1
  Na  Na16  1  0.01411339  0.33862236  0.07992429  1
  Na  Na17  1  0.51768171  0.34192541  0.07879723  1
  Na  Na18  1  0.48621941  0.66745238  0.91679939  1
  Na  Na19  1  0.98272045  0.65855201  0.91306393  1
  Na  Na20  1  0.35385266  0.04212439  0.91357985  1
  Na  Na21  1  0.85393493  0.04884375  0.91514891  1
  Na  Na22  1  0.16348827  0.29848487  0.91666548  1
  Na  Na23  1  0.66535569  0.29620593  0.92190970  1
  Na  Na24  1  0.48298194  0.31024751  0.41742925  1
  Na  Na25  1  0.98441605  0.30123046  0.42094642  1
  Na  Na26  1  0.16458635  0.03480441  0.42568688  1
  Na  Na27  1  0.66488828  0.02683646  0.42055708  1
  Na  Na28  1  0.35201943  0.65629991  0.42236367  1
  Na  Na29  1  0.85306730  0.66527908  0.41682076  1
  Na  Na30  1  0.00270196  0.00100478  0.50012407  1
  Na  Na31  1  0.50160415  0.99485259  0.49997084  1
  Na  Na32  1  0.00112346  0.00811320  0.99642975  1
  Na  Na33  1  0.50267776  0.00377430  0.99508484  1
  Na  Na34  1  0.34107024  0.33458192  0.82592838  1
  Na  Na35  1  0.83410046  0.32799877  0.82894244  1
  Na  Na36  1  0.33286398  0.33189247  0.33305823  1
  Na  Na37  1  0.84142844  0.34712493  0.32695535  1
  Na  Na38  1  0.16343761  0.66179662  0.16166752  1
  Na  Na39  1  0.66854785  0.66659120  0.16547394  1
  Na  Na40  1  0.16596868  0.66844487  0.66660279  1
  Na  Na41  1  0.66847364  0.67140456  0.66466233  1
  Ta  Ta42  1  0.99998597  0.99860713  0.64704347  1
  Ta  Ta43  1  0.49576963  0.99249807  0.64505427  1
  Ta  Ta44  1  0.99576450  0.99947743  0.14433910  1
  Ta  Ta45  1  0.50691125  0.01234503  0.14361998  1
  Ta  Ta46  1  0.15830316  0.64859210  0.31386412  1
  Ta  Ta47  1  0.66263780  0.67791372  0.81122709  1
  Al  Al48  1  0.00052590  0.99908920  0.35240543  1
  Al  Al49  1  0.50539278  0.00185770  0.34832673  1
  Al  Al50  1  0.00029132  0.01675897  0.84288953  1
  Al  Al51  1  0.50203837  0.00486688  0.85118793  1
  Al  Al52  1  0.33529102  0.33229540  0.68741146  1
  Al  Al53  1  0.83825099  0.33764108  0.68367741  1
  Al  Al54  1  0.33761734  0.31976824  0.17803628  1
  Al  Al55  1  0.83656420  0.33900521  0.18773155  1
  Al  Al56  1  0.34069593  0.33527358  0.98760950  1
  Al  Al57  1  0.83694140  0.32591676  0.98223583  1
  Al  Al58  1  0.33589997  0.34795517  0.48447647  1
  Al  Al59  1  0.84055124  0.34599495  0.49014508  1
  Al  Al60  1  0.16051882  0.64670046  0.02488109  1
  Al  Al61  1  0.65849412  0.66253716  0.02342662  1
  Al  Al62  1  0.15800115  0.65395746  0.52500138  1
  Al  Al63  1  0.66093560  0.67595807  0.52641713  1
  Al  Al64  1  0.65883639  0.65893536  0.30658380  1
  Al  Al65  1  0.15773222  0.65631493  0.80617334  1
  Si  Si66  1  0.64934599  0.00271537  0.25326709  1
  Si  Si67  1  0.85416904  0.70429005  0.25612243  1
  Si  Si68  1  0.99671432  0.28439486  0.25205711  1
  Si  Si69  1  0.49219398  0.28475085  0.25512899  1
  Si  Si70  1  0.14935502  0.29512688  0.75270997  1
  Si  Si71  1  0.99378726  0.70428903  0.75556239  1
  Si  Si72  1  0.49520379  0.70692587  0.75271684  1
  Si  Si73  1  0.35363774  0.00334272  0.75622725  1
  Si  Si74  1  0.85227987  0.00512761  0.75041595  1
  Si  Si75  1  0.47430040  0.33896376  0.58127330  1
  Si  Si76  1  0.97752467  0.33568037  0.58303295  1
  Si  Si77  1  0.19407503  0.04843780  0.58133066  1
  Si  Si78  1  0.69564030  0.05581161  0.58202486  1
  Si  Si79  1  0.32816658  0.61319150  0.58262285  1
  Si  Si80  1  0.82894193  0.61575828  0.58216565  1
  Si  Si81  1  0.47679333  0.61726382  0.08370765  1
  Si  Si82  1  0.97429783  0.60956144  0.08157542  1
  Si  Si83  1  0.32812285  0.03693211  0.08085923  1
  Si  Si84  1  0.82798674  0.04424178  0.08288942  1
  Si  Si85  1  0.19686318  0.33630809  0.08319419  1
  Si  Si86  1  0.69797821  0.34575041  0.08116544  1
  Si  Si87  1  0.02327572  0.37723599  0.91604463  1
  Si  Si88  1  0.51813343  0.37096459  0.92008753  1
  Si  Si89  1  0.66666824  0.96518865  0.92092906  1
  Si  Si90  1  0.16645069  0.36759807  0.42107532  1
  Si  Si91  1  0.01603313  0.66524032  0.42173190  1
  Si  Si92  1  0.52290888  0.66870612  0.41497266  1
  S  S93  1  0.14858042  0.00669948  0.25186801  1
  S  S94  1  0.35416064  0.71184466  0.25142291  1
  S  S95  1  0.64677235  0.28864361  0.75195363  1
  S  S96  1  0.30938690  0.66398476  0.91754782  1
  S  S97  1  0.81192767  0.66722093  0.91824166  1
  S  S98  1  0.16734519  0.95446873  0.91758860  1
  S  S99  1  0.31341736  0.95613184  0.41578613  1
  S  S100  1  0.80923764  0.95306474  0.41612767  1
  S  S101  1  0.66571189  0.37753452  0.41560950  1
  O  O102  1  0.10497955  0.02238038  0.30697375  1
  O  O103  1  0.60113158  0.03584035  0.31069299  1
  O  O104  1  0.40899131  0.79707475  0.30626995  1
  O  O105  1  0.91655526  0.80743311  0.31382147  1
  O  O106  1  0.48129553  0.16113150  0.31386453  1
  O  O107  1  0.98779403  0.16800537  0.31154399  1
  O  O108  1  0.10393847  0.16903924  0.81163098  1
  O  O109  1  0.60311512  0.18268507  0.80714998  1
  O  O110  1  0.48612888  0.80644832  0.81187043  1
  O  O111  1  0.98524546  0.80817647  0.81463138  1
  O  O112  1  0.41621321  0.02584792  0.81410822  1
  O  O113  1  0.91299796  0.03633660  0.81054744  1
  O  O114  1  0.39983778  0.96573584  0.69429163  1
  O  O115  1  0.89819565  0.97196389  0.68967164  1
  O  O116  1  0.08384163  0.20427359  0.69231656  1
  O  O117  1  0.59142076  0.21132995  0.69551249  1
  O  O118  1  0.01517882  0.83186753  0.69344429  1
  O  O119  1  0.51627143  0.83201851  0.69115770  1
  O  O120  1  0.39380540  0.81408871  0.19504383  1
  O  O121  1  0.90030094  0.83502418  0.19440889  1
  O  O122  1  0.01788440  0.20266144  0.19109310  1
  O  O123  1  0.51015659  0.19183556  0.19401154  1
  O  O124  1  0.09372401  0.97125107  0.19563013  1
  O  O125  1  0.58229044  0.96255066  0.19313097  1
  O  O126  1  0.43166993  0.37705168  0.63961119  1
  O  O127  1  0.93626434  0.37298740  0.64281909  1
  O  O128  1  0.25204436  0.13195675  0.64249413  1
  O  O129  1  0.75677736  0.14405947  0.64039941  1
  O  O130  1  0.31242610  0.49819306  0.64322567  1
  O  O131  1  0.80991389  0.48828911  0.64003636  1
  O  O132  1  0.43507238  0.50004498  0.14489519  1
  O  O133  1  0.93223973  0.48755369  0.14054747  1
  O  O134  1  0.30854902  0.11935813  0.14039847  1
  O  O135  1  0.81236875  0.12592636  0.14412123  1
  O  O136  1  0.25856676  0.36943212  0.14263319  1
  O  O137  1  0.75131456  0.36993894  0.14369158  1
  O  O138  1  0.23648912  0.29649641  0.02111964  1
  O  O139  1  0.73501551  0.29761912  0.02117594  1
  O  O140  1  0.41566775  0.54045205  0.02308844  1
  O  O141  1  0.91389481  0.53940556  0.02009551  1
  O  O142  1  0.35489009  0.16454780  0.02142512  1
  O  O143  1  0.85503553  0.16726005  0.02279224  1
  O  O144  1  0.23524962  0.17147271  0.52037786  1
  O  O145  1  0.73472666  0.17253927  0.51870169  1
  O  O146  1  0.35552858  0.54569816  0.52200446  1
  O  O147  1  0.85203787  0.54294667  0.51990825  1
  O  O148  1  0.41461973  0.29009658  0.51892921  1
  O  O149  1  0.91691697  0.29182422  0.52151624  1
  O  O150  1  0.27001586  0.69300888  0.97305010  1
  O  O151  1  0.77099069  0.69402303  0.97308848  1
  O  O152  1  0.08619118  0.46489544  0.97668829  1
  O  O153  1  0.58175068  0.46295343  0.97880738  1
  O  O154  1  0.15716940  0.84807635  0.97277198  1
  O  O155  1  0.64776164  0.83219889  0.97779034  1
  O  O156  1  0.27337005  0.84815600  0.47083685  1
  O  O157  1  0.77000414  0.84541847  0.47163645  1
  O  O158  1  0.14885287  0.46706202  0.47619166  1
  O  O159  1  0.65377082  0.45884353  0.47078958  1
  O  O160  1  0.08378586  0.70187132  0.47688401  1
  O  O161  1  0.58698902  0.70991851  0.47481941  1
  O  O162  1  0.06696284  0.63454377  0.36057971  1
  O  O163  1  0.56972513  0.63586111  0.35587408  1
  O  O164  1  0.25801577  0.87027185  0.36060325  1
  O  O165  1  0.75600422  0.86811102  0.36117790  1
  O  O166  1  0.18465586  0.50342565  0.36016747  1
  O  O167  1  0.67865271  0.48524804  0.36046595  1
  O  O168  1  0.07109073  0.50567418  0.85754139  1
  O  O169  1  0.56883948  0.50149158  0.86114808  1
  O  O170  1  0.18127832  0.87494944  0.86228325  1
  O  O171  1  0.68461096  0.86862561  0.86110968  1
  O  O172  1  0.25640223  0.64262899  0.86247834  1
  O  O173  1  0.75661520  0.64147868  0.86306588  1
  O  O174  1  0.01010927  0.84156849  0.41067849  1
  O  O175  1  0.50859770  0.84367335  0.40699130  1
  O  O176  1  0.40103114  0.97107715  0.41044253  1
  O  O177  1  0.89882006  0.97577232  0.41318658  1
  O  O178  1  0.07892625  0.17841572  0.40883898  1
  O  O179  1  0.58463228  0.20019910  0.41223027  1
  O  O180  1  0.01169494  0.17708643  0.90998353  1
  O  O181  1  0.50972215  0.17854841  0.91118078  1
  O  O182  1  0.08739253  0.96964169  0.91503986  1
  O  O183  1  0.57862154  0.97966379  0.90939496  1
  O  O184  1  0.39861667  0.81954491  0.91472102  1
  O  O185  1  0.89991294  0.82492603  0.91363062  1
  O  O186  1  0.48901173  0.16685044  0.58992338  1
  O  O187  1  0.98875264  0.16118661  0.58622357  1
  O  O188  1  0.09425107  0.02429068  0.58711303  1
  O  O189  1  0.59570994  0.03283381  0.58840649  1
  O  O190  1  0.41772392  0.81484755  0.58785201  1
  O  O191  1  0.91742582  0.81216810  0.58802554  1
  O  O192  1  0.48577115  0.81275139  0.08983117  1
  O  O193  1  0.98956856  0.81200738  0.09088578  1
  O  O194  1  0.41573857  0.01538395  0.09065154  1
  O  O195  1  0.91796102  0.02202642  0.08800900  1
  O  O196  1  0.09729419  0.15978435  0.08997050  1
  O  O197  1  0.59571749  0.16687386  0.08742627  1
  O  O198  1  0.34279283  0.17082061  0.74512225  1
  O  O199  1  0.84361965  0.17656298  0.74279622  1
  O  O200  1  0.24307888  0.30965651  0.74443477  1
  O  O201  1  0.73158445  0.30371518  0.74629516  1
  O  O202  1  0.40977301  0.52101470  0.74451312  1
  O  O203  1  0.90982126  0.51246303  0.74542411  1
  O  O204  1  0.34455531  0.53778751  0.24822550  1
  O  O205  1  0.84289984  0.51465448  0.24546553  1
  O  O206  1  0.40814183  0.31302516  0.24488758  1
  O  O207  1  0.91161447  0.30160270  0.24482534  1
  O  O208  1  0.23383155  0.16388230  0.24607669  1
  O  O209  1  0.74271538  0.17558199  0.24520688  1
  O  O210  1  0.31745560  0.50474881  0.92124925  1
  O  O211  1  0.81949261  0.50859984  0.92029738  1
  O  O212  1  0.42115747  0.35811247  0.92315600  1
  O  O213  1  0.92606529  0.36034076  0.92204438  1
  O  O214  1  0.24525035  0.13298036  0.92099690  1
  O  O215  1  0.75433443  0.15680839  0.92249660  1
  O  O216  1  0.32108216  0.12834556  0.41730004  1
  O  O217  1  0.81776423  0.12839234  0.41910385  1
  O  O218  1  0.25448535  0.35235637  0.42143735  1
  O  O219  1  0.74277213  0.35366624  0.41844181  1
  O  O220  1  0.42553511  0.49269482  0.42095562  1
  O  O221  1  0.92080420  0.48497376  0.42277064  1
  O  O222  1  0.18130935  0.50405743  0.07781324  1
  O  O223  1  0.67970691  0.50826219  0.07514509  1
  O  O224  1  0.07480030  0.64516225  0.07444484  1
  O  O225  1  0.57453093  0.64478244  0.07938983  1
  O  O226  1  0.24506227  0.84122222  0.07123821  1
  O  O227  1  0.74751369  0.84540900  0.07433980  1
  O  O228  1  0.18004544  0.85134467  0.57379850  1
  O  O229  1  0.68018462  0.85703320  0.57667749  1
  O  O230  1  0.24739395  0.64959668  0.57316137  1
  O  O231  1  0.74510590  0.64622650  0.57106385  1
  O  O232  1  0.07498830  0.50539993  0.57848567  1
  O  O233  1  0.57438397  0.50426901  0.57355438  1
  O  O234  1  0.15958147  0.84887177  0.25727044  1
  O  O235  1  0.65564325  0.82539673  0.25664965  1
  O  O236  1  0.26796829  0.70194946  0.25570793  1
  O  O237  1  0.75710136  0.68883137  0.26175746  1
  O  O238  1  0.08765718  0.48400068  0.25438694  1
  O  O239  1  0.58372444  0.47319874  0.25670455  1
  O  O240  1  0.15622565  0.48561116  0.75704826  1
  O  O241  1  0.65424943  0.46431420  0.75723837  1
  O  O242  1  0.08493693  0.69496049  0.75728248  1
  O  O243  1  0.58431108  0.68896781  0.75469328  1
  O  O244  1  0.25737453  0.82466570  0.76234347  1
  O  O245  1  0.75895259  0.81884540  0.75602415  1
