# generated using pymatgen
data_InSe
_symmetry_space_group_name_H-M   'P 1'
_cell_length_a   4.10929791
_cell_length_b   5.07299639
_cell_length_c   11.01643218
_cell_angle_alpha   95.80738112
_cell_angle_beta   90.00000000
_cell_angle_gamma   90.00000000
_symmetry_Int_Tables_number   1
_chemical_formula_structural   InSe
_chemical_formula_sum   'In4 Se4'
_cell_volume   228.47488595
_cell_formula_units_Z   4
loop_
 _symmetry_equiv_pos_site_id
 _symmetry_equiv_pos_as_xyz
  1  'x, y, z'
loop_
 _atom_site_type_symbol
 _atom_site_label
 _atom_site_symmetry_multiplicity
 _atom_site_fract_x
 _atom_site_fract_y
 _atom_site_fract_z
 _atom_site_occupancy
  In  In0  1  0.50000000  0.34136189  0.38820325  1
  In  In1  1  0.50000000  0.65863811  0.61179675  1
  In  In2  1  -0.00000000  0.15863811  0.11179675  1
  In  In3  1  0.00000000  0.84136189  0.88820325  1
  Se  Se4  1  0.50000000  0.49197197  0.16092759  1
  Se  Se5  1  0.50000000  0.50802803  0.83907241  1
  Se  Se6  1  -0.00000000  0.00802803  0.33907241  1
  Se  Se7  1  0.00000000  -0.00802803  0.66092759  1
