# generated using pymatgen
data_Na4Ga2Si3Ge2(SO8)3
_symmetry_space_group_name_H-M   'P 1'
_cell_length_a   8.69263073
_cell_length_b   8.70724638
_cell_length_c   22.07635934
_cell_angle_alpha   89.93662506
_cell_angle_beta   87.50457748
_cell_angle_gamma   119.74005821
_symmetry_Int_Tables_number   1
_chemical_formula_structural   Na4Ga2Si3Ge2(SO8)3
_chemical_formula_sum   'Na12 Ga6 Si9 Ge6 S9 O72'
_cell_volume   1448.97510712
_cell_formula_units_Z   3
loop_
 _symmetry_equiv_pos_site_id
 _symmetry_equiv_pos_as_xyz
  1  'x, y, z'
loop_
 _atom_site_type_symbol
 _atom_site_label
 _atom_site_symmetry_multiplicity
 _atom_site_fract_x
 _atom_site_fract_y
 _atom_site_fract_z
 _atom_site_occupancy
  Na  Na0  1  0.99611672  0.63647973  0.25218518  1
  Na  Na1  1  0.99587391  0.36256333  0.74436808  1
  Na  Na2  1  0.66364867  0.97081317  0.58674794  1
  Na  Na3  1  0.66776805  0.70034627  0.08229517  1
  Na  Na4  1  0.33364405  0.30005867  0.90867953  1
  Na  Na5  1  0.32606595  0.02964529  0.41922959  1
  Na  Na6  1  0.00446553  0.99874015  0.50162344  1
  Na  Na7  1  0.99229316  0.98917450  0.99726659  1
  Na  Na8  1  0.65939579  0.32792365  0.82615160  1
  Na  Na9  1  0.66114816  0.33770491  0.33312137  1
  Na  Na10  1  0.33071791  0.67173070  0.16841645  1
  Na  Na11  1  0.32800285  0.66690922  0.66275211  1
  Ga  Ga12  1  0.99736443  0.97491390  0.35030308  1
  Ga  Ga13  1  0.98311966  0.98949785  0.84474584  1
  Ga  Ga14  1  0.64955507  0.30543835  0.68570476  1
  Ga  Ga15  1  0.66935309  0.34261234  0.19010967  1
  Ga  Ga16  1  0.33007501  0.67445204  0.01604194  1
  Ga  Ga17  1  0.30306329  0.66686149  0.52213301  1
  Si  Si18  1  0.29919861  0.00650566  0.25145508  1
  Si  Si19  1  0.69940202  0.70850669  0.25259772  1
  Si  Si20  1  0.29397463  0.28454279  0.75293592  1
  Si  Si21  1  0.71533947  0.00124845  0.74905748  1
  Si  Si22  1  0.95828855  0.33814025  0.58616633  1
  Si  Si23  1  0.37380758  0.04603517  0.58260872  1
  Si  Si24  1  0.96572645  0.62471318  0.08489883  1
  Si  Si25  1  0.63089388  0.67475994  0.91892350  1
  Si  Si26  1  0.03367240  0.65792801  0.41764616  1
  Ge  Ge27  1  0.01986304  0.03749560  0.64681030  1
  Ge  Ge28  1  0.00042269  0.97160791  0.15519365  1
  Ge  Ge29  1  0.68517078  0.36280760  0.98296306  1
  Ge  Ge30  1  0.68573687  0.34208984  0.49008476  1
  Ge  Ge31  1  0.33597363  0.67854129  0.31502072  1
  Ge  Ge32  1  0.36915600  0.66258317  0.80798703  1
  S  S33  1  0.00153253  0.27990665  0.24969729  1
  S  S34  1  0.00415287  0.71269934  0.75070949  1
  S  S35  1  0.66698805  0.62215860  0.58366802  1
  S  S36  1  0.67010451  0.05273402  0.08260645  1
  S  S37  1  0.36841760  0.32577043  0.08421732  1
  S  S38  1  0.04044775  0.37873920  0.91855817  1
  S  S39  1  0.33687698  0.95683873  0.91686736  1
  S  S40  1  0.62743392  0.95538689  0.41611980  1
  S  S41  1  0.33156874  0.38302892  0.41633502  1
  O  O42  1  0.21763112  0.04636948  0.31221488  1
  O  O43  1  0.83261323  0.79619021  0.30576905  1
  O  O44  1  0.97358111  0.17491816  0.30497234  1
  O  O45  1  0.20712469  0.17088046  0.81609352  1
  O  O46  1  0.97342138  0.78639935  0.80758857  1
  O  O47  1  0.83058803  0.03980779  0.80797430  1
  O  O48  1  0.80270112  0.95770413  0.68767865  1
  O  O49  1  0.16173029  0.20917118  0.69597449  1
  O  O50  1  0.03950352  0.82674621  0.69624322  1
  O  O51  1  0.77967479  0.83059439  0.18735900  1
  O  O52  1  0.03323582  0.19941176  0.19257323  1
  O  O53  1  0.16502169  0.95257265  0.19309718  1
  O  O54  1  0.87205520  0.37407327  0.64644987  1
  O  O55  1  0.49889838  0.12513766  0.63831818  1
  O  O56  1  0.63523752  0.51188058  0.63766448  1
  O  O57  1  0.87181064  0.50183998  0.14431773  1
  O  O58  1  0.63871195  0.13014590  0.13665489  1
  O  O59  1  0.48406882  0.35806060  0.13483573  1
  O  O60  1  0.44815165  0.29316866  0.02560158  1
  O  O61  1  0.83027757  0.54523605  0.02691074  1
  O  O62  1  0.69605912  0.16224153  0.02481100  1
  O  O63  1  0.46423017  0.17373959  0.51830701  1
  O  O64  1  0.70280390  0.54445755  0.52607119  1
  O  O65  1  0.82935141  0.28711054  0.52731445  1
  O  O66  1  0.53603660  0.69456766  0.98110030  1
  O  O67  1  0.14887440  0.46126476  0.97074876  1
  O  O68  1  0.30398620  0.85068101  0.97275383  1
  O  O69  1  0.54872944  0.84626134  0.47157681  1
  O  O70  1  0.31216700  0.46744038  0.47111004  1
  O  O71  1  0.17136565  0.71055271  0.47023983  1
  O  O72  1  0.12389736  0.62273820  0.35386854  1
  O  O73  1  0.51074316  0.87508992  0.36232542  1
  O  O74  1  0.36524630  0.49542465  0.35939601  1
  O  O75  1  0.11499676  0.48769934  0.86163661  1
  O  O76  1  0.36499167  0.87387733  0.86187755  1
  O  O77  1  0.49110677  0.61843990  0.86277214  1
  O  O78  1  0.01931992  0.83819392  0.41230543  1
  O  O79  1  0.80632724  0.98266894  0.40685136  1
  O  O80  1  0.17024416  0.20639242  0.41258578  1
  O  O81  1  0.02380301  0.20278229  0.91496353  1
  O  O82  1  0.18134250  0.98261310  0.91409400  1
  O  O83  1  0.82681064  0.84324118  0.91031387  1
  O  O84  1  0.96492575  0.15030431  0.58880048  1
  O  O85  1  0.17212089  0.01811816  0.59189333  1
  O  O86  1  0.82807228  0.79902164  0.58524681  1
  O  O87  1  0.97502550  0.82342287  0.09016693  1
  O  O88  1  0.83244680  0.03590930  0.08384383  1
  O  O89  1  0.18981739  0.16831460  0.09070141  1
  O  O90  1  0.69691883  0.17622058  0.74537858  1
  O  O91  1  0.49374134  0.32501996  0.74382753  1
  O  O92  1  0.84729162  0.53682510  0.74693937  1
  O  O93  1  0.69264467  0.52007102  0.24410714  1
  O  O94  1  0.84422701  0.30324435  0.24527336  1
  O  O95  1  0.49422418  0.17123816  0.23948385  1
  O  O96  1  0.63586383  0.48135368  0.92503990  1
  O  O97  1  0.85529118  0.35686325  0.92535466  1
  O  O98  1  0.49998797  0.13716111  0.92164892  1
  O  O99  1  0.63414492  0.13090006  0.41957065  1
  O  O100  1  0.48929723  0.35732101  0.41719052  1
  O  O101  1  0.83422634  0.47707050  0.42638354  1
  O  O102  1  0.35587163  0.48862219  0.07749505  1
  O  O103  1  0.16046685  0.64610833  0.07489927  1
  O  O104  1  0.51449335  0.87074347  0.07850323  1
  O  O105  1  0.36896116  0.85776278  0.57412755  1
  O  O106  1  0.51208968  0.64501742  0.57570484  1
  O  O107  1  0.15807625  0.49949219  0.57902028  1
  O  O108  1  0.30174799  0.81718532  0.25766848  1
  O  O109  1  0.50062704  0.68451600  0.26020170  1
  O  O110  1  0.16078534  0.46053017  0.25088939  1
  O  O111  1  0.29374520  0.47857192  0.75909939  1
  O  O112  1  0.16451204  0.68987851  0.75657140  1
  O  O113  1  0.51406296  0.82477143  0.75465001  1
