# generated using pymatgen
data_MgSc4(FeO3)4
_symmetry_space_group_name_H-M   'P 1'
_cell_length_a   5.34341095
_cell_length_b   5.92400392
_cell_length_c   7.74265710
_cell_angle_alpha   83.51849354
_cell_angle_beta   89.92585063
_cell_angle_gamma   90.06371318
_symmetry_Int_Tables_number   1
_chemical_formula_structural   MgSc4(FeO3)4
_chemical_formula_sum   'Mg1 Sc4 Fe4 O12'
_cell_volume   243.52214298
_cell_formula_units_Z   1
loop_
 _symmetry_equiv_pos_site_id
 _symmetry_equiv_pos_as_xyz
  1  'x, y, z'
loop_
 _atom_site_type_symbol
 _atom_site_label
 _atom_site_symmetry_multiplicity
 _atom_site_fract_x
 _atom_site_fract_y
 _atom_site_fract_z
 _atom_site_occupancy
  Mg  Mg0  1  0.99991300  0.32467300  0.95834300  1
  Sc  Sc1  1  0.99465400  0.80204300  0.68686700  1
  Sc  Sc2  1  0.49471800  0.52204500  0.80434400  1
  Sc  Sc3  1  0.48968100  0.53563400  0.30077400  1
  Sc  Sc4  1  0.98264100  0.05729400  0.29972600  1
  Fe  Fe5  1  0.99407400  0.70626300  0.12674900  1
  Fe  Fe6  1  0.99218600  0.40772200  0.50486300  1
  Fe  Fe7  1  0.49426800  0.94648900  0.98194900  1
  Fe  Fe8  1  0.48877500  0.95482900  0.49680600  1
  O  O9  1  0.14068500  0.39371800  0.24317800  1
  O  O10  1  0.13305600  0.08795900  0.54562200  1
  O  O11  1  0.34063200  0.22795400  0.90378900  1
  O  O12  1  0.29812300  0.59241500  0.55915300  1
  O  O13  1  0.20309300  0.72299200  0.90254200  1
  O  O14  1  0.32386000  0.87770100  0.23009000  1
  O  O15  1  0.63823800  0.87830200  0.74129000  1
  O  O16  1  0.65589700  0.58030700  0.05705500  1
  O  O17  1  0.69202600  0.25514600  0.40243400  1
  O  O18  1  0.82975600  0.04116600  0.06046200  1
  O  O19  1  0.82108400  0.73364900  0.40421300  1
  O  O20  1  0.85514000  0.45170200  0.73141900  1
