# generated using pymatgen
data_Na2CaHf3Si2(SO6)4
_symmetry_space_group_name_H-M   'P 1'
_cell_length_a   8.98940845
_cell_length_b   8.97907228
_cell_length_c   23.56932082
_cell_angle_alpha   89.59327854
_cell_angle_beta   90.10893216
_cell_angle_gamma   120.12058014
_symmetry_Int_Tables_number   1
_chemical_formula_structural   Na2CaHf3Si2(SO6)4
_chemical_formula_sum   'Na6 Ca3 Hf9 Si6 S12 O72'
_cell_volume   1645.50636711
_cell_formula_units_Z   3
loop_
 _symmetry_equiv_pos_site_id
 _symmetry_equiv_pos_as_xyz
  1  'x, y, z'
loop_
 _atom_site_type_symbol
 _atom_site_label
 _atom_site_symmetry_multiplicity
 _atom_site_fract_x
 _atom_site_fract_y
 _atom_site_fract_z
 _atom_site_occupancy
  Na  Na0  1  0.97654176  0.98195218  0.50777639  1
  Na  Na1  1  0.03427391  0.02738622  0.99960608  1
  Na  Na2  1  0.67263084  0.31009458  0.83525076  1
  Na  Na3  1  0.66273657  0.30993617  0.33547967  1
  Na  Na4  1  0.33596203  0.65626869  0.16285501  1
  Na  Na5  1  0.36670091  0.68144784  0.67281553  1
  Ca  Ca6  1  0.98011158  0.98752473  0.64757012  1
  Ca  Ca7  1  0.01050865  0.01040134  0.14166992  1
  Ca  Ca8  1  0.34158963  0.67719786  0.31841440  1
  Hf  Hf9  1  0.98955637  0.99859479  0.35333558  1
  Hf  Hf10  1  0.99820575  0.01468559  0.85442732  1
  Hf  Hf11  1  0.66598954  0.33493660  0.68869565  1
  Hf  Hf12  1  0.65617591  0.33484845  0.18278363  1
  Hf  Hf13  1  0.65386996  0.32240276  0.97534754  1
  Hf  Hf14  1  0.66904200  0.33662143  0.48215015  1
  Hf  Hf15  1  0.32115273  0.65506926  0.01699212  1
  Hf  Hf16  1  0.35541982  0.67537878  0.52059753  1
  Hf  Hf17  1  0.33208338  0.67763780  0.81822742  1
  Si  Si18  1  0.69880375  0.99625034  0.74960868  1
  Si  Si19  1  0.66775991  0.62261268  0.58239959  1
  Si  Si20  1  0.37872897  0.34447940  0.07935284  1
  Si  Si21  1  0.03931771  0.37668638  0.91622803  1
  Si  Si22  1  0.32279744  0.95335779  0.91796641  1
  Si  Si23  1  0.63166840  0.96977790  0.41589400  1
  S  S24  1  0.29707782  0.00690978  0.24981949  1
  S  S25  1  0.71225411  0.70154282  0.24920366  1
  S  S26  1  0.99247844  0.29138689  0.25021279  1
  S  S27  1  0.29681370  0.29795510  0.75079150  1
  S  S28  1  0.00058606  0.70289120  0.75121946  1
  S  S29  1  0.95986102  0.34483017  0.58171943  1
  S  S30  1  0.38317797  0.04337482  0.58206566  1
  S  S31  1  0.95352143  0.61248544  0.08160098  1
  S  S32  1  0.65709915  0.04455680  0.08232306  1
  S  S33  1  0.62300895  0.66817931  0.91677806  1
  S  S34  1  0.33089849  0.36589240  0.41803903  1
  S  S35  1  0.03697876  0.66870492  0.41757993  1
  O  O36  1  0.21220675  0.02741826  0.30180066  1
  O  O37  1  0.81973501  0.79203444  0.30148950  1
  O  O38  1  0.97607814  0.18049473  0.30224714  1
  O  O39  1  0.21186335  0.18425230  0.80122857  1
  O  O40  1  0.97524103  0.78563540  0.80111107  1
  O  O41  1  0.82398519  0.02203000  0.80513030  1
  O  O42  1  0.76794164  0.96444764  0.69191265  1
  O  O43  1  0.20033876  0.22610662  0.69868102  1
  O  O44  1  0.03568631  0.80282219  0.69907051  1
  O  O45  1  0.79272403  0.80214511  0.19873482  1
  O  O46  1  0.01009020  0.20996322  0.19957181  1
  O  O47  1  0.19884828  0.99336879  0.19900160  1
  O  O48  1  0.87410664  0.35889738  0.63340156  1
  O  O49  1  0.48773485  0.12100694  0.63373665  1
  O  O50  1  0.64696470  0.50357794  0.63872314  1
  O  O51  1  0.87043595  0.50776781  0.13515189  1
  O  O52  1  0.64539416  0.13558901  0.13475868  1
  O  O53  1  0.49409556  0.35850519  0.13874446  1
  O  O54  1  0.49401721  0.33808631  0.02759956  1
  O  O55  1  0.85405773  0.52217099  0.03160669  1
  O  O56  1  0.67862950  0.15058786  0.03154408  1
  O  O57  1  0.47626340  0.14372704  0.53082128  1
  O  O58  1  0.66465183  0.51094702  0.52733322  1
  O  O59  1  0.85110689  0.32344954  0.53094078  1
  O  O60  1  0.54270177  0.69349690  0.96812870  1
  O  O61  1  0.16095623  0.46309871  0.97284757  1
  O  O62  1  0.30929675  0.84035356  0.97465946  1
  O  O63  1  0.53539304  0.84070617  0.47148507  1
  O  O64  1  0.30056658  0.44959496  0.46769201  1
  O  O65  1  0.14547350  0.69275161  0.46771407  1
  O  O66  1  0.10135892  0.63190799  0.36593878  1
  O  O67  1  0.52696414  0.90211099  0.35882448  1
  O  O68  1  0.36369934  0.46669607  0.36604358  1
  O  O69  1  0.13513213  0.48907787  0.86053064  1
  O  O70  1  0.36020941  0.86769240  0.86298240  1
  O  O71  1  0.51603495  0.63979758  0.86611497  1
  O  O72  1  0.02293689  0.82778358  0.40956124  1
  O  O73  1  0.82480910  0.98408285  0.40834882  1
  O  O74  1  0.17563152  0.19044544  0.41115655  1
  O  O75  1  0.01626823  0.18369365  0.91018246  1
  O  O76  1  0.15130772  0.96705255  0.90748178  1
  O  O77  1  0.79518465  0.82138165  0.90969858  1
  O  O78  1  0.98565106  0.19679026  0.58341785  1
  O  O79  1  0.21640302  0.03254364  0.58439458  1
  O  O80  1  0.83441003  0.80819240  0.57808285  1
  O  O81  1  0.96722649  0.78064374  0.08589766  1
  O  O82  1  0.80758609  0.02345115  0.08641649  1
  O  O83  1  0.19319669  0.17529646  0.07890794  1
  O  O84  1  0.67966818  0.17218063  0.74385070  1
  O  O85  1  0.47203629  0.31378989  0.74621169  1
  O  O86  1  0.84094871  0.52751384  0.74476021  1
  O  O87  1  0.70679344  0.52990332  0.24673427  1
  O  O88  1  0.83017769  0.29954686  0.24796900  1
  O  O89  1  0.47375033  0.16888241  0.24565177  1
  O  O90  1  0.64358665  0.51538787  0.92340596  1
  O  O91  1  0.85364544  0.36343729  0.92523671  1
  O  O92  1  0.49329910  0.14693178  0.92346527  1
  O  O93  1  0.66733893  0.16329162  0.42837625  1
  O  O94  1  0.47984433  0.34016750  0.42790567  1
  O  O95  1  0.85852105  0.52238015  0.42688615  1
  O  O96  1  0.37441104  0.52567414  0.07832259  1
  O  O97  1  0.12755094  0.62878930  0.07964995  1
  O  O98  1  0.49623229  0.87759888  0.07995795  1
  O  O99  1  0.36250752  0.86711450  0.57573959  1
  O  O100  1  0.48459373  0.63029549  0.57639003  1
  O  O101  1  0.12575686  0.50769488  0.57384325  1
  O  O102  1  0.31979908  0.85711940  0.25394536  1
  O  O103  1  0.53669677  0.66954353  0.25586427  1
  O  O104  1  0.14181791  0.46334711  0.25709704  1
  O  O105  1  0.32257645  0.47148529  0.76040561  1
  O  O106  1  0.14664356  0.67054294  0.75993729  1
  O  O107  1  0.50582495  0.82944829  0.76074581  1
