# generated using pymatgen
data_Na3TiGaSi(PO6)2
_symmetry_space_group_name_H-M   'P 1'
_cell_length_a   8.81750375
_cell_length_b   8.81750347
_cell_length_c   22.11526330
_cell_angle_alpha   89.98898780
_cell_angle_beta   90.01101219
_cell_angle_gamma   120.00229968
_symmetry_Int_Tables_number   1
_chemical_formula_structural   Na3TiGaSi(PO6)2
_chemical_formula_sum   'Na18 Ti6 Ga6 Si6 P12 O72'
_cell_volume   1489.03176754
_cell_formula_units_Z   6
loop_
 _symmetry_equiv_pos_site_id
 _symmetry_equiv_pos_as_xyz
  1  'x, y, z'
loop_
 _atom_site_type_symbol
 _atom_site_label
 _atom_site_symmetry_multiplicity
 _atom_site_fract_x
 _atom_site_fract_y
 _atom_site_fract_z
 _atom_site_occupancy
  Na  Na0  1  0.00050762  0.99796428  0.49843679  1
  Na  Na1  1  0.00203572  0.99949238  0.99843679  1
  Na  Na2  1  0.66700721  0.33043742  0.83188096  1
  Na  Na3  1  0.66956258  0.33299279  0.33188096  1
  Na  Na4  1  0.34325421  0.67252479  0.16511997  1
  Na  Na5  1  0.32747521  0.65674579  0.66511997  1
  Na  Na6  1  0.36534747  0.36509129  0.24909913  1
  Na  Na7  1  0.99516889  0.62968401  0.24844912  1
  Na  Na8  1  0.63490871  0.63465253  0.74909913  1
  Na  Na9  1  0.37031599  0.00483111  0.74844912  1
  Na  Na10  1  0.03597710  0.70006495  0.58206256  1
  Na  Na11  1  0.66089787  0.96513658  0.58353990  1
  Na  Na12  1  0.29993505  0.96402290  0.08206256  1
  Na  Na13  1  0.03486342  0.33910213  0.08353990  1
  Na  Na14  1  0.96992301  0.66971932  0.91706886  1
  Na  Na15  1  0.70106560  0.03173288  0.91494422  1
  Na  Na16  1  0.96826712  0.29893440  0.41494422  1
  Na  Na17  1  0.33028068  0.03007699  0.41706886  1
  Ti  Ti18  1  0.00650645  0.00843299  0.64812166  1
  Ti  Ti19  1  0.99156701  0.99349355  0.14812166  1
  Ti  Ti20  1  0.66182286  0.33613579  0.98119094  1
  Ti  Ti21  1  0.66386421  0.33817714  0.48119094  1
  Ti  Ti22  1  0.32546821  0.66244070  0.31457931  1
  Ti  Ti23  1  0.33755930  0.67453179  0.81457931  1
  Ga  Ga24  1  0.99124195  0.99263392  0.35089246  1
  Ga  Ga25  1  0.00736608  0.00875805  0.85089246  1
  Ga  Ga26  1  0.67032165  0.32563368  0.68411761  1
  Ga  Ga27  1  0.67436632  0.32967835  0.18411761  1
  Ga  Ga28  1  0.33084905  0.66829696  0.01726876  1
  Ga  Ga29  1  0.33170304  0.66915095  0.51726876  1
  Si  Si30  1  0.99195113  0.28332461  0.25123775  1
  Si  Si31  1  0.71667539  0.00804887  0.75123775  1
  Si  Si32  1  0.37534460  0.04345543  0.58377348  1
  Si  Si33  1  0.95654457  0.62465540  0.08377348  1
  Si  Si34  1  0.32967734  0.96155905  0.91749639  1
  Si  Si35  1  0.03844095  0.67032266  0.41749639  1
  P  P36  1  0.29382707  0.00319749  0.25026712  1
  P  P37  1  0.70822576  0.71069775  0.25080724  1
  P  P38  1  0.28930225  0.29177424  0.75080724  1
  P  P39  1  0.99680251  0.70617293  0.75026712  1
  P  P40  1  0.95902261  0.33570782  0.58332367  1
  P  P41  1  0.66093028  0.61903416  0.58487681  1
  P  P42  1  0.66429218  0.04097739  0.08332367  1
  P  P43  1  0.38096584  0.33906972  0.08487681  1
  P  P44  1  0.61932173  0.66476285  0.91745216  1
  P  P45  1  0.04785033  0.37612900  0.91739871  1
  P  P46  1  0.62387100  0.95214967  0.41739871  1
  P  P47  1  0.33523715  0.38067827  0.41745216  1
  O  O48  1  0.21273226  0.03653771  0.30693422  1
  O  O49  1  0.82949613  0.78920480  0.30539143  1
  O  O50  1  0.97116753  0.17152197  0.31152806  1
  O  O51  1  0.21079520  0.17050387  0.80539143  1
  O  O52  1  0.96346229  0.78726774  0.80693422  1
  O  O53  1  0.82847803  0.02883247  0.81152806  1
  O  O54  1  0.80237861  0.96527144  0.69119177  1
  O  O55  1  0.17081126  0.19998603  0.69423852  1
  O  O56  1  0.03500891  0.82814931  0.69369298  1
  O  O57  1  0.80001397  0.82918874  0.19423852  1
  O  O58  1  0.03472856  0.19762139  0.19119177  1
  O  O59  1  0.17185069  0.96499109  0.19369298  1
  O  O60  1  0.87783297  0.37394578  0.63842550  1
  O  O61  1  0.49822259  0.12650739  0.64274250  1
  O  O62  1  0.63664806  0.51125557  0.64207172  1
  O  O63  1  0.87349261  0.50177741  0.14274250  1
  O  O64  1  0.62605422  0.12216703  0.13842550  1
  O  O65  1  0.48874443  0.36335194  0.14207172  1
  O  O66  1  0.46705601  0.30068224  0.02893931  1
  O  O67  1  0.83279539  0.53002416  0.02359411  1
  O  O68  1  0.70072586  0.16063790  0.02637109  1
  O  O69  1  0.46997584  0.16720461  0.52359411  1
  O  O70  1  0.69931776  0.53294399  0.52893931  1
  O  O71  1  0.83936210  0.29927414  0.52637109  1
  O  O72  1  0.53606806  0.70020305  0.97240122  1
  O  O73  1  0.15505244  0.45504724  0.97540190  1
  O  O74  1  0.29399849  0.83704620  0.97598181  1
  O  O75  1  0.54495276  0.84494756  0.47540190  1
  O  O76  1  0.29979695  0.46393194  0.47240122  1
  O  O77  1  0.16295380  0.70600151  0.47598181  1
  O  O78  1  0.13359882  0.63242353  0.35812178  1
  O  O79  1  0.50078427  0.86473186  0.36219686  1
  O  O80  1  0.36516482  0.49322114  0.35929162  1
  O  O81  1  0.13526814  0.49921573  0.86219686  1
  O  O82  1  0.36757647  0.86640118  0.85812178  1
  O  O83  1  0.50677886  0.63483518  0.85929162  1
  O  O84  1  0.02863587  0.84766598  0.40814999  1
  O  O85  1  0.81053755  0.98195732  0.41117105  1
  O  O86  1  0.17245201  0.19573548  0.41121528  1
  O  O87  1  0.01804268  0.18946245  0.91117105  1
  O  O88  1  0.15233402  0.97136413  0.90814999  1
  O  O89  1  0.80426452  0.82754799  0.91121528  1
  O  O90  1  0.96838324  0.16412926  0.58990034  1
  O  O91  1  0.17687093  0.01685834  0.59040592  1
  O  O92  1  0.83091485  0.80434215  0.58890102  1
  O  O93  1  0.98314166  0.82312907  0.09040592  1
  O  O94  1  0.83587074  0.03161676  0.08990034  1
  O  O95  1  0.19565785  0.16908515  0.08890102  1
  O  O96  1  0.68251575  0.17188123  0.74491204  1
  O  O97  1  0.47426407  0.31466337  0.74319606  1
  O  O98  1  0.83017257  0.52684818  0.74205646  1
  O  O99  1  0.68533663  0.52573593  0.24319606  1
  O  O100  1  0.82811877  0.31748425  0.24491204  1
  O  O101  1  0.47315182  0.16982743  0.24205646  1
  O  O102  1  0.64250604  0.50087094  0.92269465  1
  O  O103  1  0.86197137  0.36060504  0.92236725  1
  O  O104  1  0.51282417  0.14998627  0.92383490  1
  O  O105  1  0.63939496  0.13802863  0.42236725  1
  O  O106  1  0.49912906  0.35749396  0.42269465  1
  O  O107  1  0.85001373  0.48717583  0.42383490  1
  O  O108  1  0.35501896  0.49730580  0.07626553  1
  O  O109  1  0.15149929  0.64418944  0.07735077  1
  O  O110  1  0.50193972  0.85865046  0.07618141  1
  O  O111  1  0.35581056  0.84850071  0.57735077  1
  O  O112  1  0.50269420  0.64498104  0.57626553  1
  O  O113  1  0.14134954  0.49806028  0.57618141  1
  O  O114  1  0.30682454  0.83405402  0.25646994  1
  O  O115  1  0.52508559  0.69165808  0.25621022  1
  O  O116  1  0.17523075  0.48180334  0.25679517  1
  O  O117  1  0.30834192  0.47491441  0.75621022  1
  O  O118  1  0.16594598  0.69317546  0.75646994  1
  O  O119  1  0.51819666  0.82476925  0.75679517  1
