# generated using pymatgen
data_MgV2(PO5)2
_symmetry_space_group_name_H-M   'P 1'
_cell_length_a   4.90959804
_cell_length_b   6.37635660
_cell_length_c   6.34564119
_cell_angle_alpha   91.68574814
_cell_angle_beta   88.88175115
_cell_angle_gamma   91.65386653
_symmetry_Int_Tables_number   1
_chemical_formula_structural   MgV2(PO5)2
_chemical_formula_sum   'Mg1 V2 P2 O10'
_cell_volume   198.44916888
_cell_formula_units_Z   1
loop_
 _symmetry_equiv_pos_site_id
 _symmetry_equiv_pos_as_xyz
  1  'x, y, z'
loop_
 _atom_site_type_symbol
 _atom_site_label
 _atom_site_symmetry_multiplicity
 _atom_site_fract_x
 _atom_site_fract_y
 _atom_site_fract_z
 _atom_site_occupancy
  Mg  Mg0  1  0.50000000  0.00000000  0.50000000  1
  V  V1  1  0.74561900  0.73986100  0.75466600  1
  V  V2  1  0.25438100  0.26013900  0.24533400  1
  P  P3  1  0.99577900  0.24949800  0.74957900  1
  P  P4  1  0.00422100  0.75050200  0.25042100  1
  O  O5  1  0.84321700  0.45143500  0.72020500  1
  O  O6  1  0.78330600  0.06371100  0.73385700  1
  O  O7  1  0.85264400  0.75747100  0.04350200  1
  O  O8  1  0.79085300  0.77838800  0.43364900  1
  O  O9  1  0.15678300  0.54856500  0.27979500  1
  O  O10  1  0.21669400  0.93628900  0.26614300  1
  O  O11  1  0.14735600  0.24252900  0.95649800  1
  O  O12  1  0.20914700  0.22161200  0.56635100  1
  O  O13  1  0.41052900  0.75936100  0.73387400  1
  O  O14  1  0.58947100  0.24063900  0.26612600  1
