# generated using pymatgen
data_MgMoOs(PbO3)2
_symmetry_space_group_name_H-M   'P 1'
_cell_length_a   6.86224318
_cell_length_b   6.20197040
_cell_length_c   6.75764050
_cell_angle_alpha   89.61879019
_cell_angle_beta   127.19037946
_cell_angle_gamma   118.19444060
_symmetry_Int_Tables_number   1
_chemical_formula_structural   MgMoOs(PbO3)2
_chemical_formula_sum   'Mg1 Mo1 Os1 Pb2 O6'
_cell_volume   185.30860303
_cell_formula_units_Z   1
loop_
 _symmetry_equiv_pos_site_id
 _symmetry_equiv_pos_as_xyz
  1  'x, y, z'
loop_
 _atom_site_type_symbol
 _atom_site_label
 _atom_site_symmetry_multiplicity
 _atom_site_fract_x
 _atom_site_fract_y
 _atom_site_fract_z
 _atom_site_occupancy
  Mg  Mg0  1  0.84142975  0.41818164  0.58405597  1
  Mo  Mo1  1  0.97417701  0.98935664  0.00194151  1
  Os  Os2  1  0.16696690  0.58047853  0.40489002  1
  Pb  Pb3  1  0.33855279  0.18720084  0.82708431  1
  Pb  Pb4  1  0.55862001  0.73947691  0.30853666  1
  O  O5  1  -0.01516342  0.22729175  0.24888802  1
  O  O6  1  0.96302443  0.76559493  0.74632266  1
  O  O7  1  0.93888333  0.18193654  0.72734832  1
  O  O8  1  0.03466816  0.78594656  0.28035591  1
  O  O9  1  0.49858009  0.72178395  0.77982758  1
  O  O10  1  0.45026095  0.27775171  0.22616602  1
