# generated using pymatgen
data_K2Ti2O5
_symmetry_space_group_name_H-M   'P 1'
_cell_length_a   3.78965654
_cell_length_b   5.99586331
_cell_length_c   6.61952495
_cell_angle_alpha   99.29737369
_cell_angle_beta   90.00000000
_cell_angle_gamma   108.42256790
_symmetry_Int_Tables_number   1
_chemical_formula_structural   K2Ti2O5
_chemical_formula_sum   'K2 Ti2 O5'
_cell_volume   140.61808536
_cell_formula_units_Z   1
loop_
 _symmetry_equiv_pos_site_id
 _symmetry_equiv_pos_as_xyz
  1  'x, y, z'
loop_
 _atom_site_type_symbol
 _atom_site_label
 _atom_site_symmetry_multiplicity
 _atom_site_fract_x
 _atom_site_fract_y
 _atom_site_fract_z
 _atom_site_occupancy
  K  K0  1  0.59620758  0.19241517  0.34914935  1
  K  K1  1  0.40379242  0.80758483  0.65085065  1
  Ti  Ti2  1  0.85232964  0.70465929  0.09336412  1
  Ti  Ti3  1  0.14767036  0.29534071  0.90663588  1
  O  O4  1  0.67749820  0.35499739  0.98525533  1
  O  O5  1  0.32250180  0.64500261  0.01474467  1
  O  O6  1  0.87414917  0.74829833  0.35745119  1
  O  O7  1  0.12585083  0.25170167  0.64254881  1
  O  O8  1  -0.00000000  -0.00000000  0.00000000  1
