# generated using pymatgen
data_NaScGaP(SO6)2
_symmetry_space_group_name_H-M   'P 1'
_cell_length_a   8.63187437
_cell_length_b   8.63134353
_cell_length_c   22.73839811
_cell_angle_alpha   90.09961578
_cell_angle_beta   89.75496898
_cell_angle_gamma   119.86907553
_symmetry_Int_Tables_number   1
_chemical_formula_structural   NaScGaP(SO6)2
_chemical_formula_sum   'Na6 Sc6 Ga6 P6 S12 O72'
_cell_volume   1469.06645289
_cell_formula_units_Z   6
loop_
 _symmetry_equiv_pos_site_id
 _symmetry_equiv_pos_as_xyz
  1  'x, y, z'
loop_
 _atom_site_type_symbol
 _atom_site_label
 _atom_site_symmetry_multiplicity
 _atom_site_fract_x
 _atom_site_fract_y
 _atom_site_fract_z
 _atom_site_occupancy
  Na  Na0  1  0.98740162  0.99138098  0.50006293  1
  Na  Na1  1  0.00577299  0.98995589  0.99969520  1
  Na  Na2  1  0.65917003  0.31628538  0.83118249  1
  Na  Na3  1  0.65711183  0.31833543  0.33572705  1
  Na  Na4  1  0.32244923  0.67141412  0.16583280  1
  Na  Na5  1  0.34718280  0.67061840  0.66397955  1
  Sc  Sc6  1  0.99759564  0.00208402  0.85104010  1
  Sc  Sc7  1  0.00606170  0.99229648  0.14682266  1
  Sc  Sc8  1  0.66680883  0.33224398  0.18573386  1
  Sc  Sc9  1  0.66702754  0.33305563  0.98072233  1
  Sc  Sc10  1  0.33929149  0.68326487  0.31757232  1
  Sc  Sc11  1  0.34364902  0.68280347  0.81088702  1
  Ga  Ga12  1  0.00032210  0.00226832  0.35330485  1
  Ga  Ga13  1  0.98151100  0.98560405  0.64574782  1
  Ga  Ga14  1  0.66445655  0.33075669  0.68144760  1
  Ga  Ga15  1  0.66951090  0.33307840  0.48436302  1
  Ga  Ga16  1  0.32090741  0.67363204  0.01739433  1
  Ga  Ga17  1  0.35972801  0.67430518  0.51766190  1
  P  P18  1  0.28851191  0.00411840  0.25382457  1
  P  P19  1  0.71340298  0.01252692  0.74518291  1
  P  P20  1  0.66656925  0.61681402  0.58297831  1
  P  P21  1  0.96562809  0.62386133  0.08191076  1
  P  P22  1  0.33070721  0.95839127  0.91771715  1
  P  P23  1  0.63641695  0.97000391  0.41936513  1
  S  S24  1  0.71123510  0.71034341  0.25241421  1
  S  S25  1  0.00086523  0.28891692  0.25216138  1
  S  S26  1  0.29191818  0.28630660  0.74518275  1
  S  S27  1  0.99248539  0.70395084  0.74598057  1
  S  S28  1  0.96325767  0.33635271  0.58257745  1
  S  S29  1  0.37154547  0.03919527  0.58332568  1
  S  S30  1  0.66068303  0.03062666  0.08214715  1
  S  S31  1  0.37241760  0.34421794  0.08161831  1
  S  S32  1  0.61891059  0.66787104  0.91869393  1
  S  S33  1  0.04891531  0.37969123  0.91729576  1
  S  S34  1  0.33348119  0.37201366  0.41886561  1
  S  S35  1  0.03937454  0.66599162  0.42060806  1
  O  O36  1  0.19767139  0.02673161  0.30942762  1
  O  O37  1  0.81723219  0.79467454  0.30593938  1
  O  O38  1  0.97259949  0.18006768  0.30587595  1
  O  O39  1  0.21348176  0.18155740  0.79957726  1
  O  O40  1  0.96963029  0.78600038  0.79988800  1
  O  O41  1  0.82202317  0.03908917  0.80158095  1
  O  O42  1  0.79877180  0.97961919  0.69040525  1
  O  O43  1  0.18179797  0.19847976  0.69279644  1
  O  O44  1  0.02587870  0.81809085  0.69341263  1
  O  O45  1  0.79071786  0.81605566  0.19884133  1
  O  O46  1  0.01920293  0.20449829  0.19856297  1
  O  O47  1  0.18059864  0.98027933  0.19770343  1
  O  O48  1  0.88214752  0.36495170  0.63612311  1
  O  O49  1  0.48372692  0.11639110  0.63631470  1
  O  O50  1  0.63571410  0.50341384  0.63869950  1
  O  O51  1  0.87550538  0.51305031  0.13766430  1
  O  O52  1  0.63235864  0.11229598  0.13555113  1
  O  O53  1  0.47762706  0.36495214  0.13523809  1
  O  O54  1  0.45444550  0.31304517  0.02939147  1
  O  O55  1  0.85379081  0.53456515  0.02721079  1
  O  O56  1  0.68327448  0.13851304  0.02954986  1
  O  O57  1  0.45211562  0.14956143  0.53011284  1
  O  O58  1  0.69595863  0.53206931  0.52740412  1
  O  O59  1  0.84879698  0.30024799  0.53007209  1
  O  O60  1  0.53194175  0.68673768  0.97222049  1
  O  O61  1  0.15492496  0.46006882  0.97122330  1
  O  O62  1  0.30415991  0.84723141  0.97382820  1
  O  O63  1  0.55414045  0.85006533  0.47434983  1
  O  O64  1  0.30163735  0.45397710  0.47207623  1
  O  O65  1  0.15219547  0.69142251  0.47274040  1
  O  O66  1  0.11711174  0.63682723  0.36665401  1
  O  O67  1  0.52033390  0.88907977  0.36447809  1
  O  O68  1  0.35871524  0.47935257  0.36588296  1
  O  O69  1  0.13481000  0.48315598  0.86397391  1
  O  O70  1  0.35566050  0.87024358  0.86226195  1
  O  O71  1  0.51530424  0.64481082  0.86483082  1
  O  O72  1  0.02069508  0.82810456  0.41436486  1
  O  O73  1  0.82384564  0.98835263  0.41010011  1
  O  O74  1  0.17299715  0.19100956  0.41364532  1
  O  O75  1  0.02722102  0.19830656  0.91368036  1
  O  O76  1  0.16247753  0.97635753  0.91160759  1
  O  O77  1  0.79750445  0.83061687  0.91417903  1
  O  O78  1  0.98622592  0.17639794  0.58878765  1
  O  O79  1  0.19314324  0.02460439  0.59092759  1
  O  O80  1  0.83580268  0.80603990  0.58851312  1
  O  O81  1  0.98747108  0.81258545  0.08582553  1
  O  O82  1  0.82267038  0.01537704  0.08777261  1
  O  O83  1  0.19000008  0.18770494  0.08683179  1
  O  O84  1  0.69457230  0.18145747  0.73791022  1
  O  O85  1  0.47310006  0.30559928  0.74021447  1
  O  O86  1  0.82815764  0.52749042  0.74006446  1
  O  O87  1  0.69658806  0.53249507  0.24726419  1
  O  O88  1  0.84011432  0.30967596  0.24781218  1
  O  O89  1  0.47530822  0.17111070  0.24805213  1
  O  O90  1  0.64089826  0.50871106  0.92229552  1
  O  O91  1  0.86980973  0.36273638  0.92134098  1
  O  O92  1  0.49925921  0.14400931  0.92217361  1
  O  O93  1  0.65374064  0.15654709  0.42864698  1
  O  O94  1  0.49599720  0.35509322  0.42545657  1
  O  O95  1  0.85837203  0.50535301  0.42618401  1
  O  O96  1  0.36150492  0.50902243  0.07514099  1
  O  O97  1  0.15245660  0.63942568  0.07785516  1
  O  O98  1  0.50153685  0.84959080  0.07677464  1
  O  O99  1  0.34917502  0.85693149  0.57623021  1
  O  O100  1  0.49700477  0.63726746  0.57693753  1
  O  O101  1  0.14056473  0.49957422  0.57483512  1
  O  O102  1  0.30549564  0.83418349  0.25778477  1
  O  O103  1  0.52955572  0.68697765  0.25743515  1
  O  O104  1  0.16320468  0.46639504  0.25776790  1
  O  O105  1  0.31006569  0.46571492  0.75092905  1
  O  O106  1  0.14970715  0.67877977  0.75116709  1
  O  O107  1  0.52546863  0.84464979  0.75060059  1
