# generated using pymatgen
data_MgCrTe(WO6)2
_symmetry_space_group_name_H-M   'P 1'
_cell_length_a   5.38850170
_cell_length_b   10.78119238
_cell_length_c   9.44404942
_cell_angle_alpha   28.65552678
_cell_angle_beta   52.29499820
_cell_angle_gamma   57.57218412
_symmetry_Int_Tables_number   1
_chemical_formula_structural   MgCrTe(WO6)2
_chemical_formula_sum   'Mg1 Cr1 Te1 W2 O12'
_cell_volume   208.15639917
_cell_formula_units_Z   1
loop_
 _symmetry_equiv_pos_site_id
 _symmetry_equiv_pos_as_xyz
  1  'x, y, z'
loop_
 _atom_site_type_symbol
 _atom_site_label
 _atom_site_symmetry_multiplicity
 _atom_site_fract_x
 _atom_site_fract_y
 _atom_site_fract_z
 _atom_site_occupancy
  Mg  Mg0  1  0.20607200  0.00092700  0.19349400  1
  Cr  Cr1  1  0.97820500  0.99294400  0.00489500  1
  Te  Te2  1  0.00583100  0.50139900  0.99032700  1
  W  W3  1  0.48017100  0.99944400  0.50874600  1
  W  W4  1  0.50639300  0.49461400  0.48697400  1
  O  O5  1  0.35432200  0.30345200  0.13929000  1
  O  O6  1  0.24797300  0.09434500  0.65193400  1
  O  O7  1  0.16226400  0.28617500  0.75854300  1
  O  O8  1  0.88180600  0.19447600  0.23645000  1
  O  O9  1  0.33138700  0.79551400  0.16646400  1
  O  O10  1  0.75847100  0.39024300  0.34800300  1
  O  O11  1  0.24993900  0.62973500  0.62021800  1
  O  O12  1  0.62042200  0.19807300  0.86080400  1
  O  O13  1  0.14155600  0.79870700  0.75482400  1
  O  O14  1  0.83207300  0.70875200  0.24601600  1
  O  O15  1  0.76259000  0.91899300  0.33318900  1
  O  O16  1  0.65072800  0.69845900  0.85217400  1
