# generated using pymatgen
data_Ba(GeP)2
_symmetry_space_group_name_H-M   'P 1'
_cell_length_a   7.67630788
_cell_length_b   7.67630788
_cell_length_c   8.55571845
_cell_angle_alpha   90.00000000
_cell_angle_beta   90.00000000
_cell_angle_gamma   90.00000000
_symmetry_Int_Tables_number   1
_chemical_formula_structural   Ba(GeP)2
_chemical_formula_sum   'Ba4 Ge8 P8'
_cell_volume   504.15172150
_cell_formula_units_Z   4
loop_
 _symmetry_equiv_pos_site_id
 _symmetry_equiv_pos_as_xyz
  1  'x, y, z'
loop_
 _atom_site_type_symbol
 _atom_site_label
 _atom_site_symmetry_multiplicity
 _atom_site_fract_x
 _atom_site_fract_y
 _atom_site_fract_z
 _atom_site_occupancy
  Ba  Ba0  1  0.00000000  0.50000000  0.52691334  1
  Ba  Ba1  1  0.50000000  0.00000000  0.02691334  1
  Ba  Ba2  1  0.00000000  0.00000000  0.49761384  1
  Ba  Ba3  1  0.00000000  0.00000000  0.99761384  1
  Ge  Ge4  1  0.50000000  0.16670888  0.61494034  1
  Ge  Ge5  1  0.83329112  0.50000000  0.11494034  1
  Ge  Ge6  1  0.16670888  0.50000000  0.11494034  1
  Ge  Ge7  1  0.50000000  0.83329112  0.61494034  1
  Ge  Ge8  1  0.50000000  0.33230886  0.36665354  1
  Ge  Ge9  1  0.33230886  0.50000000  0.86665354  1
  Ge  Ge10  1  0.66769114  0.50000000  0.86665354  1
  Ge  Ge11  1  0.50000000  0.66769114  0.36665354  1
  P  P12  1  0.25119428  0.23545373  0.75617202  1
  P  P13  1  0.74880572  0.76454627  0.75617202  1
  P  P14  1  0.23545373  0.74880572  0.25617202  1
  P  P15  1  0.76454627  0.25119428  0.25617202  1
  P  P16  1  0.74880572  0.23545373  0.75617202  1
  P  P17  1  0.23545373  0.25119428  0.25617202  1
  P  P18  1  0.76454627  0.74880572  0.25617202  1
  P  P19  1  0.25119428  0.76454627  0.75617202  1
