# generated using pymatgen
data_Na8Y2Si5Ge2SO24
_symmetry_space_group_name_H-M   'P 1'
_cell_length_a   9.19349453
_cell_length_b   9.17561831
_cell_length_c   22.35589695
_cell_angle_alpha   90.62432991
_cell_angle_beta   88.79181501
_cell_angle_gamma   120.39590824
_symmetry_Int_Tables_number   1
_chemical_formula_structural   Na8Y2Si5Ge2SO24
_chemical_formula_sum   'Na24 Y6 Si15 Ge6 S3 O72'
_cell_volume   1626.28128583
_cell_formula_units_Z   3
loop_
 _symmetry_equiv_pos_site_id
 _symmetry_equiv_pos_as_xyz
  1  'x, y, z'
loop_
 _atom_site_type_symbol
 _atom_site_label
 _atom_site_symmetry_multiplicity
 _atom_site_fract_x
 _atom_site_fract_y
 _atom_site_fract_z
 _atom_site_occupancy
  Na  Na0  1  0.64934171  0.00716416  0.25236767  1
  Na  Na1  1  0.34937397  0.35862236  0.24929646  1
  Na  Na2  1  0.99925442  0.64628193  0.24962241  1
  Na  Na3  1  0.63564045  0.63520732  0.74596481  1
  Na  Na4  1  0.99083838  0.35759697  0.74748734  1
  Na  Na5  1  0.36891664  0.01156564  0.74767500  1
  Na  Na6  1  0.29432825  0.33653564  0.58994441  1
  Na  Na7  1  0.04428084  0.70833458  0.58498849  1
  Na  Na8  1  0.66514557  0.95323043  0.58514446  1
  Na  Na9  1  0.28319864  0.96467006  0.08091474  1
  Na  Na10  1  0.67033365  0.68872215  0.09010376  1
  Na  Na11  1  0.04665923  0.33693571  0.09059386  1
  Na  Na12  1  0.97752766  0.66835195  0.91470635  1
  Na  Na13  1  0.70591934  0.04434501  0.90313592  1
  Na  Na14  1  0.31977325  0.28125341  0.91743965  1
  Na  Na15  1  0.95796323  0.29701686  0.41207601  1
  Na  Na16  1  0.33051128  0.02502625  0.41744849  1
  Na  Na17  1  0.70735659  0.67326578  0.42070183  1
  Na  Na18  1  0.98889430  0.98766300  0.50361969  1
  Na  Na19  1  0.02613862  0.00985067  0.99966563  1
  Na  Na20  1  0.66849058  0.32458707  0.82652507  1
  Na  Na21  1  0.66959202  0.33100077  0.33415598  1
  Na  Na22  1  0.32425256  0.65412428  0.17100626  1
  Na  Na23  1  0.33595111  0.66605137  0.66640723  1
  Y  Y24  1  0.99808157  0.99909336  0.34514631  1
  Y  Y25  1  0.00582887  0.00273599  0.84128632  1
  Y  Y26  1  0.00233813  0.00029023  0.15830963  1
  Y  Y27  1  0.66709455  0.32911573  0.97803970  1
  Y  Y28  1  0.31897570  0.65630919  0.02072749  1
  Y  Y29  1  0.33487931  0.67155392  0.52382648  1
  Si  Si30  1  0.31960386  0.00886591  0.24906105  1
  Si  Si31  1  0.67738508  0.68932836  0.25275058  1
  Si  Si32  1  0.99936217  0.32203775  0.25068420  1
  Si  Si33  1  0.30340455  0.30396886  0.74588446  1
  Si  Si34  1  0.99083651  0.69723629  0.74496126  1
  Si  Si35  1  0.69665816  0.99918047  0.74679060  1
  Si  Si36  1  0.94721769  0.31678861  0.58859313  1
  Si  Si37  1  0.38199245  0.06173518  0.58666549  1
  Si  Si38  1  0.68042543  0.61747119  0.58563073  1
  Si  Si39  1  0.95385069  0.62484567  0.08651056  1
  Si  Si40  1  0.37671676  0.33310976  0.08699268  1
  Si  Si41  1  0.04431281  0.37410402  0.90988554  1
  Si  Si42  1  0.33233773  0.95355769  0.91154260  1
  Si  Si43  1  0.62565421  0.96891499  0.41819871  1
  Si  Si44  1  0.03189485  0.65924821  0.41975700  1
  Ge  Ge45  1  0.99921063  0.99964052  0.64851465  1
  Ge  Ge46  1  0.66611546  0.33405101  0.68441434  1
  Ge  Ge47  1  0.66631298  0.35340508  0.19021265  1
  Ge  Ge48  1  0.68748720  0.32729368  0.48934992  1
  Ge  Ge49  1  0.32700955  0.68880802  0.31344109  1
  Ge  Ge50  1  0.31066275  0.66962873  0.80340652  1
  S  S51  1  0.67073095  0.04053804  0.08610282  1
  S  S52  1  0.62629354  0.66796614  0.91387558  1
  S  S53  1  0.33842192  0.37316658  0.41605160  1
  O  O54  1  0.24902215  0.06123584  0.30766272  1
  O  O55  1  0.80854033  0.76591355  0.30730914  1
  O  O56  1  0.95213533  0.19462637  0.30717608  1
  O  O57  1  0.24354924  0.19480554  0.80680926  1
  O  O58  1  0.94542734  0.75565731  0.80730293  1
  O  O59  1  0.80572320  0.04324761  0.80684737  1
  O  O60  1  0.79468725  0.95552819  0.69127528  1
  O  O61  1  0.16231909  0.20526195  0.69164559  1
  O  O62  1  0.03604571  0.83891839  0.69067959  1
  O  O63  1  0.74639416  0.80866961  0.19367927  1
  O  O64  1  0.04802670  0.24776911  0.19211374  1
  O  O65  1  0.19223169  0.95463030  0.19347083  1
  O  O66  1  0.85251195  0.35124681  0.64398711  1
  O  O67  1  0.50080339  0.14873587  0.64429697  1
  O  O68  1  0.65123288  0.50088941  0.64376268  1
  O  O69  1  0.84782281  0.50002506  0.14451732  1
  O  O70  1  0.65339855  0.12814014  0.13924542  1
  O  O71  1  0.49649476  0.34474323  0.14413405  1
  O  O72  1  0.44991332  0.30464171  0.02379184  1
  O  O73  1  0.85993065  0.54398721  0.02404449  1
  O  O74  1  0.68861680  0.13275072  0.02966744  1
  O  O75  1  0.47422995  0.18017937  0.52519615  1
  O  O76  1  0.71150795  0.52788885  0.52378616  1
  O  O77  1  0.83749213  0.28338390  0.52563161  1
  O  O78  1  0.54885577  0.68222844  0.97043475  1
  O  O79  1  0.14599802  0.44689183  0.97189029  1
  O  O80  1  0.32205194  0.86164509  0.97475153  1
  O  O81  1  0.55550156  0.85214505  0.47690088  1
  O  O82  1  0.31608226  0.44821359  0.47145508  1
  O  O83  1  0.14052597  0.68830429  0.47865174  1
  O  O84  1  0.13124316  0.63567777  0.35919406  1
  O  O85  1  0.49746671  0.87374488  0.35974569  1
  O  O86  1  0.35198365  0.47465183  0.36240497  1
  O  O87  1  0.15080666  0.49966297  0.85116824  1
  O  O88  1  0.35180679  0.85028202  0.85160627  1
  O  O89  1  0.52465231  0.65232574  0.86047211  1
  O  O90  1  0.01004494  0.82409305  0.41314037  1
  O  O91  1  0.81691351  0.00299375  0.41072981  1
  O  O92  1  0.18656913  0.20007730  0.41376487  1
  O  O93  1  0.01375147  0.18276327  0.90950475  1
  O  O94  1  0.16093040  0.96586583  0.91116004  1
  O  O95  1  0.79613517  0.81954137  0.91176447  1
  O  O96  1  0.96004766  0.14187920  0.59291100  1
  O  O97  1  0.19119445  0.04419781  0.59093673  1
  O  O98  1  0.85377804  0.80969772  0.58993540  1
  O  O99  1  0.96826298  0.80971733  0.08932708  1
  O  O100  1  0.82401626  0.02561551  0.08817154  1
  O  O101  1  0.18477908  0.17044193  0.08965837  1
  O  O102  1  0.67201348  0.16481923  0.73819185  1
  O  O103  1  0.49410378  0.32829451  0.73719917  1
  O  O104  1  0.82815958  0.50424186  0.73723788  1
  O  O105  1  0.65569889  0.49944538  0.24507534  1
  O  O106  1  0.82995563  0.34028228  0.24198153  1
  O  O107  1  0.51204674  0.16914589  0.23721475  1
  O  O108  1  0.64062125  0.51272330  0.91437623  1
  O  O109  1  0.86353295  0.36782791  0.90793559  1
  O  O110  1  0.50273178  0.14073705  0.90716038  1
  O  O111  1  0.63117066  0.15552022  0.42552049  1
  O  O112  1  0.49453123  0.36193900  0.41721372  1
  O  O113  1  0.84272079  0.47833931  0.42412393  1
  O  O114  1  0.37414249  0.51044924  0.09041551  1
  O  O115  1  0.14070600  0.64425873  0.09169002  1
  O  O116  1  0.51881621  0.86972624  0.08468859  1
  O  O117  1  0.35758559  0.87240636  0.58536443  1
  O  O118  1  0.51335013  0.63656711  0.58355542  1
  O  O119  1  0.13608262  0.48104578  0.58647813  1
  O  O120  1  0.33511011  0.83822069  0.25792424  1
  O  O121  1  0.48978497  0.66648366  0.26725946  1
  O  O122  1  0.17172193  0.50927478  0.26119012  1
  O  O123  1  0.31952556  0.49452177  0.75210321  1
  O  O124  1  0.16756959  0.68507061  0.74805949  1
  O  O125  1  0.50608450  0.82173292  0.75272221  1
