# generated using pymatgen
data_NaHfNbSi(PO6)2
_symmetry_space_group_name_H-M   'P 1'
_cell_length_a   8.85931742
_cell_length_b   8.85941020
_cell_length_c   23.10616714
_cell_angle_alpha   89.93189288
_cell_angle_beta   90.00000000
_cell_angle_gamma   119.99965359
_symmetry_Int_Tables_number   1
_chemical_formula_structural   NaHfNbSi(PO6)2
_chemical_formula_sum   'Na6 Hf6 Nb6 Si6 P12 O72'
_cell_volume   1570.59684854
_cell_formula_units_Z   6
loop_
 _symmetry_equiv_pos_site_id
 _symmetry_equiv_pos_as_xyz
  1  'x, y, z'
loop_
 _atom_site_type_symbol
 _atom_site_label
 _atom_site_symmetry_multiplicity
 _atom_site_fract_x
 _atom_site_fract_y
 _atom_site_fract_z
 _atom_site_occupancy
  Na  Na0  1  0.00209078  0.00325487  0.49896153  1
  Na  Na1  1  0.00116409  0.00325487  0.99896153  1
  Na  Na2  1  0.66910413  0.33595227  0.83237449  1
  Na  Na3  1  0.66684914  0.33595227  0.33237449  1
  Na  Na4  1  0.33419501  0.66556582  0.16555164  1
  Na  Na5  1  0.33136981  0.66556582  0.66555164  1
  Hf  Hf6  1  0.00000279  0.99820563  0.35359696  1
  Hf  Hf7  1  0.99820283  0.99820563  0.85359696  1
  Hf  Hf8  1  0.67318307  0.33657752  0.68699557  1
  Hf  Hf9  1  0.66339545  0.33657752  0.18699557  1
  Hf  Hf10  1  0.33153832  0.66060147  0.02032704  1
  Hf  Hf11  1  0.32906215  0.66060147  0.52032704  1
  Nb  Nb12  1  0.00130964  0.99986261  0.64587586  1
  Nb  Nb13  1  0.99855297  0.99986261  0.14587586  1
  Nb  Nb14  1  0.66433300  0.33197160  0.97919340  1
  Nb  Nb15  1  0.66763959  0.33197160  0.47919340  1
  Nb  Nb16  1  0.33878547  0.66310257  0.31247620  1
  Nb  Nb17  1  0.32431610  0.66310257  0.81247620  1
  Si  Si18  1  0.71237638  0.71024746  0.25048830  1
  Si  Si19  1  0.99787107  0.71024746  0.75048830  1
  Si  Si20  1  0.95740406  0.33343076  0.58367405  1
  Si  Si21  1  0.37602770  0.33343076  0.08367405  1
  Si  Si22  1  0.04143006  0.37405045  0.91770776  1
  Si  Si23  1  0.33261940  0.37405045  0.41770776  1
  P  P24  1  0.28744787  0.99831137  0.25023836  1
  P  P25  1  -0.00013021  0.28790983  0.25031310  1
  P  P26  1  0.28804004  0.28790983  0.75031310  1
  P  P27  1  0.71086350  0.99831137  0.75023836  1
  P  P28  1  0.37930948  0.04598981  0.58379992  1
  P  P29  1  0.66711134  0.62150204  0.58353265  1
  P  P30  1  0.95439171  0.62150204  0.08353265  1
  P  P31  1  0.66668133  0.04598981  0.08379992  1
  P  P32  1  0.62054458  0.66643770  0.91663230  1
  P  P33  1  0.33352935  0.95440098  0.91700402  1
  P  P34  1  0.62087063  0.95440098  0.41700402  1
  P  P35  1  0.04589212  0.66643770  0.41663230  1
  O  O36  1  0.20611088  0.02956152  0.30381299  1
  O  O37  1  0.82728460  0.79981375  0.30683884  1
  O  O38  1  0.97413426  0.17781769  0.30402148  1
  O  O39  1  0.20368344  0.17781769  0.80402148  1
  O  O40  1  0.97252915  0.79981375  0.80683884  1
  O  O41  1  0.82345064  0.02956152  0.80381299  1
  O  O42  1  0.80036176  0.97202011  0.69567882  1
  O  O43  1  0.17159276  0.20307545  0.69555111  1
  O  O44  1  0.03026416  0.83542292  0.69303095  1
  O  O45  1  0.80515876  0.83542292  0.19303095  1
  O  O46  1  0.03148269  0.20307545  0.19555111  1
  O  O47  1  0.17165835  0.97202011  0.19567882  1
  O  O48  1  0.86606021  0.36091120  0.63950300  1
  O  O49  1  0.48760673  0.12912422  0.63769358  1
  O  O50  1  0.63654988  0.50986235  0.63736942  1
  O  O51  1  0.87331347  0.50986235  0.13736942  1
  O  O52  1  0.64151849  0.12912422  0.13769358  1
  O  O53  1  0.49485199  0.36091120  0.13950300  1
  O  O54  1  0.47175084  0.30319975  0.02642380  1
  O  O55  1  0.83866592  0.53449605  0.02909488  1
  O  O56  1  0.69743564  0.16209211  0.02884052  1
  O  O57  1  0.46465748  0.16209211  0.52884052  1
  O  O58  1  0.69583114  0.53449605  0.52909488  1
  O  O59  1  0.83144991  0.30319975  0.52642380  1
  O  O60  1  0.53945725  0.69590831  0.97078542  1
  O  O61  1  0.16185995  0.46738800  0.97291954  1
  O  O62  1  0.30733542  0.84564873  0.97101587  1
  O  O63  1  0.53831231  0.84564873  0.47101587  1
  O  O64  1  0.30552705  0.46738800  0.47291954  1
  O  O65  1  0.15645006  0.69590831  0.47078542  1
  O  O66  1  0.13135147  0.63751818  0.36221896  1
  O  O67  1  0.50477579  0.86900102  0.36223167  1
  O  O68  1  0.36339115  0.50196072  0.35998263  1
  O  O69  1  0.13856857  0.50196072  0.85998263  1
  O  O70  1  0.36422423  0.86900102  0.86223167  1
  O  O71  1  0.50616571  0.63751818  0.86221896  1
  O  O72  1  0.02176160  0.82539942  0.40972333  1
  O  O73  1  0.80306226  0.97787859  0.40906353  1
  O  O74  1  0.16472406  0.18439175  0.40953257  1
  O  O75  1  0.01966769  0.18439175  0.90953257  1
  O  O76  1  0.17481633  0.97787859  0.90906353  1
  O  O77  1  0.80363782  0.82539942  0.90972333  1
  O  O78  1  0.97451109  0.15751746  0.59179246  1
  O  O79  1  0.19543919  0.02866658  0.59052573  1
  O  O80  1  0.83346091  0.80481843  0.59077577  1
  O  O81  1  0.97135752  0.80481843  0.09077577  1
  O  O82  1  0.83322739  0.02866658  0.09052573  1
  O  O83  1  0.18300637  0.15751746  0.09179246  1
  O  O84  1  0.68591049  0.15673268  0.74243424  1
  O  O85  1  0.46885336  0.30848677  0.74220974  1
  O  O86  1  0.83059664  0.51817322  0.74377891  1
  O  O87  1  0.68757758  0.51817322  0.24377891  1
  O  O88  1  0.83963440  0.30848677  0.24220974  1
  O  O89  1  0.47082319  0.15673268  0.24243424  1
  O  O90  1  0.63920532  0.50091736  0.92449677  1
  O  O91  1  0.84976430  0.35969975  0.92507248  1
  O  O92  1  0.50002652  0.13834098  0.92365429  1
  O  O93  1  0.63831546  0.13834098  0.42365429  1
  O  O94  1  0.50993645  0.35969975  0.42507248  1
  O  O95  1  0.86171303  0.50091736  0.42449677  1
  O  O96  1  0.35535835  0.50344654  0.07716260  1
  O  O97  1  0.13828431  0.64832666  0.07580973  1
  O  O98  1  0.50726852  0.86487728  0.07547457  1
  O  O99  1  0.35760776  0.86487728  0.57547457  1
  O  O100  1  0.51004136  0.64832666  0.57580973  1
  O  O101  1  0.14808719  0.50344654  0.57716260  1
  O  O102  1  0.30302317  0.83233601  0.25742824  1
  O  O103  1  0.51802526  0.69518813  0.25777214  1
  O  O104  1  0.16447166  0.47260552  0.25753629  1
  O  O105  1  0.30813286  0.47260552  0.75753629  1
  O  O106  1  0.17716187  0.69518813  0.75777214  1
  O  O107  1  0.52931184  0.83233601  0.75742824  1
