# generated using pymatgen
data_MgCd2(CoO3)2
_symmetry_space_group_name_H-M   'P 1'
_cell_length_a   5.77576209
_cell_length_b   5.90328744
_cell_length_c   5.85601156
_cell_angle_alpha   54.43896471
_cell_angle_beta   55.08673893
_cell_angle_gamma   54.41233515
_symmetry_Int_Tables_number   1
_chemical_formula_structural   MgCd2(CoO3)2
_chemical_formula_sum   'Mg1 Cd2 Co2 O6'
_cell_volume   123.55974186
_cell_formula_units_Z   1
loop_
 _symmetry_equiv_pos_site_id
 _symmetry_equiv_pos_as_xyz
  1  'x, y, z'
loop_
 _atom_site_type_symbol
 _atom_site_label
 _atom_site_symmetry_multiplicity
 _atom_site_fract_x
 _atom_site_fract_y
 _atom_site_fract_z
 _atom_site_occupancy
  Mg  Mg0  1  0.80130090  0.79791177  0.79653312  1
  Cd  Cd1  1  0.35535811  0.35556757  0.35145152  1
  Cd  Cd2  1  0.59365113  0.60112070  0.59840243  1
  Co  Co3  1  0.15483446  0.14154273  0.16178351  1
  Co  Co4  1  0.97575189  0.97687791  0.97334063  1
  O  O5  1  0.00904285  0.80638022  0.35991206  1
  O  O6  1  0.56600351  0.95902274  0.15369447  1
  O  O7  1  0.15248030  0.58295128  0.95355410  1
  O  O8  1  0.81405289  0.35896796  0.00541189  1
  O  O9  1  0.36648609  0.99813994  0.79611436  1
  O  O10  1  0.94020486  0.16110121  0.57896892  1
