# generated using pymatgen
data_La3B2N5
_symmetry_space_group_name_H-M   'P 1'
_cell_length_a   14.79244026
_cell_length_b   7.63976414
_cell_length_c   9.68630625
_cell_angle_alpha   90.00671332
_cell_angle_beta   89.99954937
_cell_angle_gamma   90.00023879
_symmetry_Int_Tables_number   1
_chemical_formula_structural   La3B2N5
_chemical_formula_sum   'La24 B16 N40'
_cell_volume   1094.65677131
_cell_formula_units_Z   8
loop_
 _symmetry_equiv_pos_site_id
 _symmetry_equiv_pos_as_xyz
  1  'x, y, z'
loop_
 _atom_site_type_symbol
 _atom_site_label
 _atom_site_symmetry_multiplicity
 _atom_site_fract_x
 _atom_site_fract_y
 _atom_site_fract_z
 _atom_site_occupancy
  La  La0  1  0.19312882  0.37815388  0.70114844  1
  La  La1  1  0.69313265  0.12184267  0.29885176  1
  La  La2  1  0.80687246  0.62184798  0.29885462  1
  La  La3  1  0.30687217  0.87815646  0.70114635  1
  La  La4  1  0.11197821  0.12984239  0.98872696  1
  La  La5  1  0.61197399  0.37015985  0.01126440  1
  La  La6  1  0.88804542  0.87014273  0.01127202  1
  La  La7  1  0.38802571  0.62984244  0.98872617  1
  La  La8  1  0.96581934  0.13788885  0.68233971  1
  La  La9  1  0.46583197  0.36213271  0.31763826  1
  La  La10  1  0.03417387  0.86214463  0.31765939  1
  La  La11  1  0.53417051  0.63786690  0.68234779  1
  La  La12  1  0.11007544  0.62360248  0.99486761  1
  La  La13  1  0.61005672  0.87642175  0.00514262  1
  La  La14  1  0.88994215  0.37641055  0.00513906  1
  La  La15  1  0.38993158  0.12360040  0.99486901  1
  La  La16  1  0.75306094  0.87653163  0.67344122  1
  La  La17  1  0.25306799  0.62345488  0.32663538  1
  La  La18  1  0.24693421  0.12345090  0.32662913  1
  La  La19  1  0.74693112  0.37653552  0.67336020  1
  La  La20  1  0.96960197  0.61708096  0.67442589  1
  La  La21  1  0.46960770  0.88291812  0.32557254  1
  La  La22  1  0.03039609  0.38292593  0.32557916  1
  La  La23  1  0.53039360  0.11709172  0.67439954  1
  B  B24  1  0.85798448  0.96624350  0.44014335  1
  B  B25  1  0.35799161  0.53374894  0.55986549  1
  B  B26  1  0.14201008  0.03374398  0.55986859  1
  B  B27  1  0.64200992  0.46625592  0.44012930  1
  B  B28  1  0.10556623  0.87606735  0.76942222  1
  B  B29  1  0.60556556  0.62393300  0.23057060  1
  B  B30  1  0.89443564  0.12393000  0.23057206  1
  B  B31  1  0.39443396  0.37606519  0.76942668  1
  B  B32  1  0.64602916  0.77908019  0.44049632  1
  B  B33  1  0.14602401  0.72092204  0.55951224  1
  B  B34  1  0.35397424  0.22091583  0.55950302  1
  B  B35  1  0.85397496  0.27907839  0.44049299  1
  B  B36  1  0.24808968  0.37607888  0.09428895  1
  B  B37  1  0.74808721  0.12392449  0.90571471  1
  B  B38  1  0.75191221  0.62391297  0.90571449  1
  B  B39  1  0.25191205  0.87607969  0.09428897  1
  N  N40  1  0.89904224  0.83802658  0.52537590  1
  N  N41  1  0.39904458  0.66196700  0.47462790  1
  N  N42  1  0.10095376  0.16196870  0.47462334  1
  N  N43  1  0.60095387  0.33802790  0.52536786  1
  N  N44  1  0.14079841  0.70882168  0.71227332  1
  N  N45  1  0.64080001  0.79117477  0.28772705  1
  N  N46  1  0.85920050  0.29117446  0.28772473  1
  N  N47  1  0.35919782  0.20882128  0.71226915  1
  N  N48  1  0.13858568  0.04556058  0.71271284  1
  N  N49  1  0.63858075  0.45444078  0.28728292  1
  N  N50  1  0.86141776  0.95443937  0.28728796  1
  N  N51  1  0.36141708  0.54555735  0.71271264  1
  N  N52  1  0.23621592  0.37782824  0.94480230  1
  N  N53  1  0.73621045  0.12217701  0.05519683  1
  N  N54  1  0.76378380  0.62216870  0.05519665  1
  N  N55  1  0.26378499  0.87782964  0.94480208  1
  N  N56  1  0.89082538  0.41117463  0.52646783  1
  N  N57  1  0.39082320  0.08882943  0.47352459  1
  N  N58  1  0.10916982  0.58882684  0.47353037  1
  N  N59  1  0.60917428  0.91117059  0.52647467  1
  N  N60  1  0.83780164  0.12138398  0.83837969  1
  N  N61  1  0.33780276  0.37861253  0.16161690  1
  N  N62  1  0.16219846  0.87861422  0.16162171  1
  N  N63  1  0.66219911  0.62138724  0.83837587  1
  N  N64  1  0.97884669  0.63157137  0.15690271  1
  N  N65  1  0.47884585  0.86842855  0.84309124  1
  N  N66  1  0.02115677  0.36843516  0.84309298  1
  N  N67  1  0.52115172  0.13156674  0.15690440  1
  N  N68  1  0.83269603  0.62770117  0.81559193  1
  N  N69  1  0.33269513  0.87229435  0.18440145  1
  N  N70  1  0.16730407  0.37229367  0.18440858  1
  N  N71  1  0.66730414  0.12770591  0.81558923  1
  N  N72  1  0.97085367  0.12399004  0.13825701  1
  N  N73  1  0.47084875  0.37601216  0.86174006  1
  N  N74  1  0.02915091  0.87600944  0.86173960  1
  N  N75  1  0.52914726  0.62398822  0.13826010  1
  N  N76  1  0.81393844  0.12120908  0.50618495  1
  N  N77  1  0.31393798  0.37878938  0.49381952  1
  N  N78  1  0.18605792  0.87878812  0.49381864  1
  N  N79  1  0.68605880  0.62120848  0.50618033  1
