# generated using pymatgen
data_Na2Ti2Si(PO6)2
_symmetry_space_group_name_H-M   'P 1'
_cell_length_a   8.73569918
_cell_length_b   8.73569891
_cell_length_c   22.27226076
_cell_angle_alpha   89.96842055
_cell_angle_beta   90.03157944
_cell_angle_gamma   119.80192704
_symmetry_Int_Tables_number   1
_chemical_formula_structural   Na2Ti2Si(PO6)2
_chemical_formula_sum   'Na12 Ti12 Si6 P12 O72'
_cell_volume   1474.86928932
_cell_formula_units_Z   6
loop_
 _symmetry_equiv_pos_site_id
 _symmetry_equiv_pos_as_xyz
  1  'x, y, z'
loop_
 _atom_site_type_symbol
 _atom_site_label
 _atom_site_symmetry_multiplicity
 _atom_site_fract_x
 _atom_site_fract_y
 _atom_site_fract_z
 _atom_site_occupancy
  Na  Na0  1  0.00026253  0.63499997  0.25008782  1
  Na  Na1  1  0.36500003  0.99973747  0.75008782  1
  Na  Na2  1  0.66627966  0.96706398  0.58370539  1
  Na  Na3  1  0.03293602  0.33372034  0.08370539  1
  Na  Na4  1  0.96827041  0.66718402  0.91693676  1
  Na  Na5  1  0.33281598  0.03172959  0.41693676  1
  Na  Na6  1  0.00069947  0.99896183  0.49999208  1
  Na  Na7  1  0.00103817  0.99930053  -0.00000792  1
  Na  Na8  1  0.66703998  0.33287261  0.83344173  1
  Na  Na9  1  0.66712739  0.33296002  0.33344173  1
  Na  Na10  1  0.34482572  0.67242431  0.16673575  1
  Na  Na11  1  0.32757569  0.65517428  0.66673575  1
  Ti  Ti12  1  0.99176066  0.00026481  0.35327556  1
  Ti  Ti13  1  0.99973519  0.00823934  0.85327556  1
  Ti  Ti14  1  0.00482410  0.99942448  0.64780879  1
  Ti  Ti15  1  0.00057552  0.99517590  0.14780879  1
  Ti  Ti16  1  0.66941960  0.32981152  0.68598445  1
  Ti  Ti17  1  0.67018848  0.33058040  0.18598445  1
  Ti  Ti18  1  0.65956666  0.33011683  0.98104908  1
  Ti  Ti19  1  0.66988317  0.34043334  0.48104908  1
  Ti  Ti20  1  0.33113534  0.67473122  0.01974260  1
  Ti  Ti21  1  0.32526878  0.66886466  0.51974260  1
  Ti  Ti22  1  0.32690947  0.65742894  0.31402802  1
  Ti  Ti23  1  0.34257106  0.67309053  0.81402802  1
  Si  Si24  1  0.00008833  0.28641364  0.24905477  1
  Si  Si25  1  0.71358636  0.99991167  0.74905477  1
  Si  Si26  1  0.37355520  0.04580236  0.58251984  1
  Si  Si27  1  0.95419764  0.62644480  0.08251984  1
  Si  Si28  1  0.33724930  0.96271111  0.91606052  1
  Si  Si29  1  0.03728889  0.66275070  0.41606052  1
  P  P30  1  0.29204097  0.00415889  0.25089509  1
  P  P31  1  0.70822899  0.71243571  0.24999783  1
  P  P32  1  0.28756429  0.29177101  0.74999783  1
  P  P33  1  0.99584111  0.70795903  0.75089509  1
  P  P34  1  0.95750137  0.33576740  0.58320149  1
  P  P35  1  0.66618798  0.62028213  0.58410005  1
  P  P36  1  0.66423260  0.04249863  0.08320149  1
  P  P37  1  0.37971787  0.33381202  0.08410005  1
  P  P38  1  0.61999066  0.66685743  0.91728238  1
  P  P39  1  0.04662988  0.37802209  0.91679118  1
  P  P40  1  0.62197791  0.95337012  0.41679118  1
  P  P41  1  0.33314257  0.38000934  0.41728238  1
  O  O42  1  0.20537674  0.03018336  0.30755180  1
  O  O43  1  0.83192389  0.79574469  0.30532366  1
  O  O44  1  0.96950922  0.16211604  0.30769671  1
  O  O45  1  0.20425531  0.16807611  0.80532366  1
  O  O46  1  0.96981664  0.79462326  0.80755180  1
  O  O47  1  0.83788396  0.03049078  0.80769671  1
  O  O48  1  0.80179008  0.96916822  0.68929546  1
  O  O49  1  0.17087249  0.20066913  0.69431910  1
  O  O50  1  0.03497783  0.83185056  0.69550401  1
  O  O51  1  0.79933087  0.82912751  0.19431910  1
  O  O52  1  0.03083178  0.19820992  0.18929546  1
  O  O53  1  0.16814944  0.96502217  0.19550401  1
  O  O54  1  0.87042602  0.36604763  0.63930237  1
  O  O55  1  0.50231276  0.13383230  0.64170979  1
  O  O56  1  0.63842484  0.50354938  0.63942810  1
  O  O57  1  0.86616770  0.49768724  0.14170979  1
  O  O58  1  0.63395237  0.12957398  0.13930237  1
  O  O59  1  0.49645062  0.36157516  0.13942810  1
  O  O60  1  0.46556405  0.30205633  0.02772403  1
  O  O61  1  0.83476116  0.53145090  0.02317800  1
  O  O62  1  0.69994669  0.16440146  0.02820985  1
  O  O63  1  0.46854910  0.16523884  0.52317800  1
  O  O64  1  0.69794367  0.53443595  0.52772403  1
  O  O65  1  0.83559854  0.30005331  0.52820985  1
  O  O66  1  0.53286483  0.69553114  0.97266713  1
  O  O67  1  0.15866654  0.45937069  0.97435962  1
  O  O68  1  0.29846073  0.82776979  0.97341613  1
  O  O69  1  0.54062931  0.84133346  0.47435962  1
  O  O70  1  0.30446886  0.46713517  0.47266713  1
  O  O71  1  0.17223021  0.70153927  0.47341613  1
  O  O72  1  0.13492391  0.63593840  0.35705680  1
  O  O73  1  0.50158073  0.86741796  0.36178616  1
  O  O74  1  0.36432944  0.49603896  0.36077581  1
  O  O75  1  0.13258204  0.49841927  0.86178616  1
  O  O76  1  0.36406160  0.86507609  0.85705680  1
  O  O77  1  0.50396104  0.63567056  0.86077581  1
  O  O78  1  0.03040337  0.84475564  0.40899003  1
  O  O79  1  0.80710614  0.97293053  0.40996683  1
  O  O80  1  0.17061426  0.19254974  0.40994530  1
  O  O81  1  0.02706947  0.19289386  0.90996683  1
  O  O82  1  0.15524436  0.96959663  0.90899003  1
  O  O83  1  0.80745026  0.82938574  0.90994530  1
  O  O84  1  0.96936114  0.16582859  0.58986679  1
  O  O85  1  0.17923399  0.02272481  0.59110652  1
  O  O86  1  0.83007782  0.80742192  0.58963622  1
  O  O87  1  0.97727519  0.82076601  0.09110652  1
  O  O88  1  0.83417141  0.03063886  0.08986679  1
  O  O89  1  0.19257808  0.16992218  0.08963622  1
  O  O90  1  0.68566985  0.17249273  0.74319408  1
  O  O91  1  0.47048665  0.30515411  0.74291821  1
  O  O92  1  0.83136157  0.52604668  0.74259693  1
  O  O93  1  0.69484589  0.52951335  0.24291821  1
  O  O94  1  0.82750727  0.31433015  0.24319408  1
  O  O95  1  0.47395332  0.16863843  0.24259693  1
  O  O96  1  0.64508333  0.50346070  0.92258787  1
  O  O97  1  0.86296043  0.36304652  0.92319490  1
  O  O98  1  0.51145744  0.15338653  0.92453182  1
  O  O99  1  0.63695348  0.13703957  0.42319490  1
  O  O100  1  0.49653930  0.35491667  0.42258787  1
  O  O101  1  0.84661347  0.48854256  0.42453182  1
  O  O102  1  0.35654683  0.49681666  0.07651778  1
  O  O103  1  0.14692168  0.63518350  0.07614461  1
  O  O104  1  0.50113374  0.85827456  0.07628779  1
  O  O105  1  0.36481650  0.85307832  0.57614461  1
  O  O106  1  0.50318334  0.64345317  0.57651778  1
  O  O107  1  0.14172544  0.49886626  0.57628779  1
  O  O108  1  0.30656243  0.83484812  0.25652575  1
  O  O109  1  0.52651913  0.69564520  0.25734314  1
  O  O110  1  0.17183842  0.48577771  0.25664976  1
  O  O111  1  0.30435480  0.47348087  0.75734314  1
  O  O112  1  0.16515188  0.69343757  0.75652575  1
  O  O113  1  0.51422229  0.82816158  0.75664976  1
