# generated using pymatgen
data_In(IO3)3
_symmetry_space_group_name_H-M   'P 1'
_cell_length_a   7.39340578
_cell_length_b   7.39340589
_cell_length_c   7.39340616
_cell_angle_alpha   82.55061765
_cell_angle_beta   82.55062166
_cell_angle_gamma   82.55061788
_symmetry_Int_Tables_number   1
_chemical_formula_structural   In(IO3)3
_chemical_formula_sum   'In2 I6 O18'
_cell_volume   394.72274921
_cell_formula_units_Z   2
loop_
 _symmetry_equiv_pos_site_id
 _symmetry_equiv_pos_as_xyz
  1  'x, y, z'
loop_
 _atom_site_type_symbol
 _atom_site_label
 _atom_site_symmetry_multiplicity
 _atom_site_fract_x
 _atom_site_fract_y
 _atom_site_fract_z
 _atom_site_occupancy
  In  In0  1  0.82199045  0.82199045  0.82199045  1
  In  In1  1  0.17800955  0.17800955  0.17800955  1
  I  I2  1  0.41484219  0.71649222  0.12792003  1
  I  I3  1  0.28350778  0.87207997  0.58515781  1
  I  I4  1  0.87207997  0.58515781  0.28350778  1
  I  I5  1  0.58515781  0.28350778  0.87207997  1
  I  I6  1  0.12792003  0.41484219  0.71649222  1
  I  I7  1  0.71649222  0.12792003  0.41484219  1
  O  O8  1  0.78568935  0.26714605  0.57359468  1
  O  O9  1  0.26714605  0.57359468  0.78568935  1
  O  O10  1  0.57359468  0.78568935  0.26714605  1
  O  O11  1  0.21431065  0.73285395  0.42640532  1
  O  O12  1  0.73285395  0.42640532  0.21431065  1
  O  O13  1  0.42640532  0.21431065  0.73285395  1
  O  O14  1  0.69879438  0.91610163  0.57136246  1
  O  O15  1  0.91610163  0.57136246  0.69879438  1
  O  O16  1  0.70621917  0.06372715  0.94822343  1
  O  O17  1  0.94822343  0.70621917  0.06372715  1
  O  O18  1  0.06372715  0.94822343  0.70621917  1
  O  O19  1  0.29378083  0.93627285  0.05177657  1
  O  O20  1  0.05177657  0.29378083  0.93627285  1
  O  O21  1  0.93627285  0.05177657  0.29378083  1
  O  O22  1  0.42863754  0.30120562  0.08389837  1
  O  O23  1  0.08389837  0.42863754  0.30120562  1
  O  O24  1  0.30120562  0.08389837  0.42863754  1
  O  O25  1  0.57136246  0.69879438  0.91610163  1
