# generated using pymatgen
data_Na3HfAlSi(PO6)2
_symmetry_space_group_name_H-M   'P 1'
_cell_length_a   8.87732200
_cell_length_b   8.87732172
_cell_length_c   22.16650091
_cell_angle_alpha   89.79072602
_cell_angle_beta   90.20927399
_cell_angle_gamma   120.11750310
_symmetry_Int_Tables_number   1
_chemical_formula_structural   Na3HfAlSi(PO6)2
_chemical_formula_sum   'Na18 Hf6 Al6 Si6 P12 O72'
_cell_volume   1511.02763998
_cell_formula_units_Z   6
loop_
 _symmetry_equiv_pos_site_id
 _symmetry_equiv_pos_as_xyz
  1  'x, y, z'
loop_
 _atom_site_type_symbol
 _atom_site_label
 _atom_site_symmetry_multiplicity
 _atom_site_fract_x
 _atom_site_fract_y
 _atom_site_fract_z
 _atom_site_occupancy
  Na  Na0  1  0.00426319  0.99695430  0.49573882  1
  Na  Na1  1  0.00304570  0.99573681  0.99573882  1
  Na  Na2  1  0.66515843  0.32697150  0.82923715  1
  Na  Na3  1  0.67302850  0.33484157  0.32923715  1
  Na  Na4  1  0.34757040  0.67255340  0.16238433  1
  Na  Na5  1  0.32744660  0.65242960  0.66238433  1
  Na  Na6  1  0.36066885  0.36264633  0.24696920  1
  Na  Na7  1  0.99448164  0.62625713  0.24752048  1
  Na  Na8  1  0.63735367  0.63933115  0.74696920  1
  Na  Na9  1  0.37374287  0.00551836  0.74752048  1
  Na  Na10  1  0.03658670  0.70014695  0.57957842  1
  Na  Na11  1  0.65854733  0.96428465  0.58435244  1
  Na  Na12  1  0.29985305  0.96341330  0.07957842  1
  Na  Na13  1  0.03571535  0.34145267  0.08435244  1
  Na  Na14  1  0.97122837  0.67089892  0.91826417  1
  Na  Na15  1  0.69710407  0.02964287  0.91171858  1
  Na  Na16  1  0.97035713  0.30289593  0.41171858  1
  Na  Na17  1  0.32910108  0.02877163  0.41826417  1
  Hf  Hf18  1  0.00526445  0.00690688  0.64711097  1
  Hf  Hf19  1  0.99309312  0.99473555  0.14711097  1
  Hf  Hf20  1  0.66121760  0.33584353  0.98049859  1
  Hf  Hf21  1  0.66415647  0.33878240  0.48049859  1
  Hf  Hf22  1  0.33159156  0.66749754  0.31376219  1
  Hf  Hf23  1  0.33250246  0.66840844  0.81376219  1
  Al  Al24  1  0.98916463  0.99143294  0.35209502  1
  Al  Al25  1  0.00856706  0.01083537  0.85209502  1
  Al  Al26  1  0.67058468  0.32308467  0.68508540  1
  Al  Al27  1  0.67691533  0.32941532  0.18508540  1
  Al  Al28  1  0.32804237  0.66903369  0.01821336  1
  Al  Al29  1  0.33096631  0.67195763  0.51821336  1
  Si  Si30  1  0.98646196  0.28108066  0.25229050  1
  Si  Si31  1  0.71891934  0.01353804  0.75229050  1
  Si  Si32  1  0.37685868  0.03638138  0.58409281  1
  Si  Si33  1  0.96361862  0.62314132  0.08409281  1
  Si  Si34  1  0.32265999  0.95819586  0.91734589  1
  Si  Si35  1  0.04180414  0.67734001  0.41734589  1
  P  P36  1  0.29788558  0.01076947  0.25116411  1
  P  P37  1  0.71277457  0.70636247  0.25212312  1
  P  P38  1  0.29363753  0.28722543  0.75212312  1
  P  P39  1  0.98923053  0.70211442  0.75116411  1
  P  P40  1  0.96135693  0.34198954  0.58380251  1
  P  P41  1  0.65443567  0.61642058  0.58686686  1
  P  P42  1  0.65801046  0.03864307  0.08380251  1
  P  P43  1  0.38357942  0.34556433  0.08686686  1
  P  P44  1  0.62185383  0.67192431  0.91870833  1
  P  P45  1  0.04864235  0.37025685  0.92002044  1
  P  P46  1  0.62974315  0.95135765  0.42002044  1
  P  P47  1  0.32807569  0.37814617  0.41870833  1
  O  O48  1  0.20891547  0.03565312  0.30679612  1
  O  O49  1  0.83205281  0.79626810  0.30602605  1
  O  O50  1  0.97331642  0.16558717  0.31140130  1
  O  O51  1  0.20373190  0.16794719  0.80602605  1
  O  O52  1  0.96434688  0.79108453  0.80679612  1
  O  O53  1  0.83441283  0.02668358  0.81140130  1
  O  O54  1  0.79454545  0.96906612  0.69174417  1
  O  O55  1  0.18450023  0.20680373  0.69462760  1
  O  O56  1  0.02924361  0.82006926  0.69435669  1
  O  O57  1  0.79319627  0.81549977  0.19462760  1
  O  O58  1  0.03093388  0.20545455  0.19174417  1
  O  O59  1  0.17993074  0.97075639  0.19435669  1
  O  O60  1  0.87027971  0.37207763  0.63774318  1
  O  O61  1  0.50213709  0.13442546  0.64214389  1
  O  O62  1  0.63819369  0.50881051  0.64368526  1
  O  O63  1  0.86557454  0.49786291  0.14214389  1
  O  O64  1  0.62792237  0.12972029  0.13774318  1
  O  O65  1  0.49118949  0.36180631  0.14368526  1
  O  O66  1  0.46208221  0.30317153  0.03143931  1
  O  O67  1  0.85083866  0.54057595  0.02262718  1
  O  O68  1  0.69294273  0.15099035  0.02604401  1
  O  O69  1  0.45942405  0.14916134  0.52262718  1
  O  O70  1  0.69682847  0.53791779  0.53143931  1
  O  O71  1  0.84900965  0.30705727  0.52604401  1
  O  O72  1  0.52406007  0.69380756  0.97154151  1
  O  O73  1  0.15635759  0.45853210  0.97684588  1
  O  O74  1  0.29486143  0.83273343  0.97573415  1
  O  O75  1  0.54146790  0.84364241  0.47684588  1
  O  O76  1  0.30619244  0.47593993  0.47154151  1
  O  O77  1  0.16726657  0.70513857  0.47573415  1
  O  O78  1  0.12692317  0.63860896  0.35759851  1
  O  O79  1  0.51075919  0.86932564  0.36416939  1
  O  O80  1  0.35820072  0.48220575  0.35901298  1
  O  O81  1  0.13067436  0.48924081  0.86416939  1
  O  O82  1  0.36139104  0.87307683  0.85759851  1
  O  O83  1  0.51779425  0.64179928  0.85901298  1
  O  O84  1  0.03135071  0.85412561  0.40746974  1
  O  O85  1  0.81289220  0.97730303  0.41199561  1
  O  O86  1  0.16365164  0.19538023  0.41351392  1
  O  O87  1  0.02269697  0.18710780  0.91199561  1
  O  O88  1  0.14587439  0.96864929  0.90746974  1
  O  O89  1  0.80461977  0.83634836  0.91351392  1
  O  O90  1  0.97170640  0.17305886  0.58963949  1
  O  O91  1  0.17751553  0.00322351  0.58749749  1
  O  O92  1  0.82063191  0.80329785  0.59023622  1
  O  O93  1  0.99677649  0.82248447  0.08749749  1
  O  O94  1  0.82694114  0.02829360  0.08963949  1
  O  O95  1  0.19670215  0.17936809  0.09023622  1
  O  O96  1  0.68994070  0.18014681  0.74408554  1
  O  O97  1  0.47750319  0.30945147  0.74526538  1
  O  O98  1  0.82365861  0.52442792  0.74203448  1
  O  O99  1  0.69054853  0.52249681  0.24526538  1
  O  O100  1  0.81985319  0.31005930  0.24408554  1
  O  O101  1  0.47557208  0.17634139  0.24203448  1
  O  O102  1  0.64992807  0.51249469  0.92232121  1
  O  O103  1  0.86300358  0.35210435  0.92319026  1
  O  O104  1  0.50304570  0.14682360  0.92131413  1
  O  O105  1  0.64789565  0.13699642  0.42319026  1
  O  O106  1  0.48750531  0.35007193  0.42232121  1
  O  O107  1  0.85317640  0.49695430  0.42131413  1
  O  O108  1  0.36177594  0.50475977  0.07714817  1
  O  O109  1  0.15721230  0.63980202  0.07791087  1
  O  O110  1  0.49636877  0.85742087  0.07614874  1
  O  O111  1  0.36019798  0.84278770  0.57791087  1
  O  O112  1  0.49524023  0.63822406  0.57714817  1
  O  O113  1  0.14257913  0.50363123  0.57614874  1
  O  O114  1  0.31587991  0.84521317  0.25599897  1
  O  O115  1  0.52746580  0.68320213  0.25639933  1
  O  O116  1  0.16521751  0.47957787  0.25534958  1
  O  O117  1  0.31679787  0.47253420  0.75639933  1
  O  O118  1  0.15478683  0.68412009  0.75599897  1
  O  O119  1  0.52042213  0.83478249  0.75534958  1
