# generated using pymatgen
data_H4BrN
_symmetry_space_group_name_H-M   'P 1'
_cell_length_a   4.10672895
_cell_length_b   5.71487270
_cell_length_c   5.71487270
_cell_angle_alpha   90.00000000
_cell_angle_beta   90.00000000
_cell_angle_gamma   90.00000000
_symmetry_Int_Tables_number   1
_chemical_formula_structural   H4BrN
_chemical_formula_sum   'H8 Br2 N2'
_cell_volume   134.12482287
_cell_formula_units_Z   2
loop_
 _symmetry_equiv_pos_site_id
 _symmetry_equiv_pos_as_xyz
  1  'x, y, z'
loop_
 _atom_site_type_symbol
 _atom_site_label
 _atom_site_symmetry_multiplicity
 _atom_site_fract_x
 _atom_site_fract_y
 _atom_site_fract_z
 _atom_site_occupancy
  H  H0  1  0.85474758  -0.00000000  0.85220222  1
  H  H1  1  0.85474758  -0.00000000  0.14779778  1
  H  H2  1  0.85474758  0.35220222  0.50000000  1
  H  H3  1  0.85474758  0.64779778  0.50000000  1
  H  H4  1  0.14525242  0.14779778  -0.00000000  1
  H  H5  1  0.14525242  0.50000000  0.64779778  1
  H  H6  1  0.14525242  0.50000000  0.35220222  1
  H  H7  1  0.14525242  0.85220222  -0.00000000  1
  Br  Br8  1  0.54166832  0.00000000  0.50000000  1
  Br  Br9  1  0.45833168  0.50000000  -0.00000000  1
  N  N10  1  0.00000000  0.00000000  -0.00000000  1
  N  N11  1  0.00000000  0.50000000  0.50000000  1
