# generated using pymatgen
data_KGe
_symmetry_space_group_name_H-M   'P 1'
_cell_length_a   12.72430110
_cell_length_b   12.72430110
_cell_length_c   12.72430110
_cell_angle_alpha   90.00000000
_cell_angle_beta   90.00000000
_cell_angle_gamma   90.00000000
_symmetry_Int_Tables_number   1
_chemical_formula_structural   KGe
_chemical_formula_sum   'K32 Ge32'
_cell_volume   2060.16408731
_cell_formula_units_Z   32
loop_
 _symmetry_equiv_pos_site_id
 _symmetry_equiv_pos_as_xyz
  1  'x, y, z'
loop_
 _atom_site_type_symbol
 _atom_site_label
 _atom_site_symmetry_multiplicity
 _atom_site_fract_x
 _atom_site_fract_y
 _atom_site_fract_z
 _atom_site_occupancy
  K  K0  1  0.83690113  0.56619497  0.63975426  1
  K  K1  1  0.83690113  0.43380503  0.36024474  1
  K  K2  1  0.56619497  0.63975426  0.83690113  1
  K  K3  1  0.43380503  0.63975426  0.16309887  1
  K  K4  1  0.63975426  0.83690113  0.56619497  1
  K  K5  1  0.36024474  0.16309887  0.56619497  1
  K  K6  1  0.66309887  0.86024574  0.06619497  1
  K  K7  1  0.66309887  0.13975526  0.93380503  1
  K  K8  1  0.33690113  0.86024574  0.93380503  1
  K  K9  1  0.13975526  0.93380503  0.66309887  1
  K  K10  1  0.93380503  0.33690113  0.86024574  1
  K  K11  1  0.93380503  0.66309887  0.13975526  1
  K  K12  1  0.86024574  0.06619497  0.66309887  1
  K  K13  1  0.06619497  0.66309887  0.86024574  1
  K  K14  1  0.86024574  0.93380503  0.33690113  1
  K  K15  1  0.33406490  0.33406490  0.33406490  1
  K  K16  1  0.06619497  0.33690113  0.13975526  1
  K  K17  1  0.36024474  0.83690113  0.43380503  1
  K  K18  1  0.63975426  0.16309887  0.43380503  1
  K  K19  1  0.56619497  0.36024474  0.16309887  1
  K  K20  1  0.43380503  0.36024474  0.83690113  1
  K  K21  1  0.16309887  0.43380503  0.63975426  1
  K  K22  1  0.16309887  0.56619497  0.36024474  1
  K  K23  1  0.33690113  0.13975526  0.06619497  1
  K  K24  1  0.83406490  0.83406490  0.83406490  1
  K  K25  1  0.66593510  0.33406490  0.66593510  1
  K  K26  1  0.33406490  0.66593510  0.66593510  1
  K  K27  1  0.66593510  0.66593510  0.33406490  1
  K  K28  1  0.83406490  0.16593510  0.16593510  1
  K  K29  1  0.16593510  0.16593510  0.83406490  1
  K  K30  1  0.16593510  0.83406490  0.16593510  1
  K  K31  1  0.13975526  0.06619497  0.33690113  1
  Ge  Ge32  1  0.42225964  0.06502620  0.31993584  1
  Ge  Ge33  1  0.56502620  0.07774036  0.18006416  1
  Ge  Ge34  1  0.92225964  0.81993584  0.56502620  1
  Ge  Ge35  1  0.07774036  0.81993584  0.43497380  1
  Ge  Ge36  1  0.81993584  0.56502620  0.92225964  1
  Ge  Ge37  1  0.18006416  0.43497380  0.92225964  1
  Ge  Ge38  1  0.93497380  0.68006416  0.42225964  1
  Ge  Ge39  1  0.93497380  0.31993584  0.57774036  1
  Ge  Ge40  1  0.06502620  0.68006416  0.57774036  1
  Ge  Ge41  1  0.31993584  0.57774036  0.93497380  1
  Ge  Ge42  1  0.57774036  0.06502620  0.68006416  1
  Ge  Ge43  1  0.57774036  0.93497380  0.31993584  1
  Ge  Ge44  1  0.68006416  0.42225964  0.93497380  1
  Ge  Ge45  1  0.42225964  0.93497380  0.68006416  1
  Ge  Ge46  1  0.68006416  0.57774036  0.06502620  1
  Ge  Ge47  1  0.31993584  0.42225964  0.06502620  1
  Ge  Ge48  1  0.56502620  0.92225964  0.81993584  1
  Ge  Ge49  1  0.18006416  0.56502620  0.07774036  1
  Ge  Ge50  1  0.81993584  0.43497380  0.07774036  1
  Ge  Ge51  1  0.92225964  0.18006416  0.43497380  1
  Ge  Ge52  1  0.07774036  0.18006416  0.56502620  1
  Ge  Ge53  1  0.43497380  0.07774036  0.81993584  1
  Ge  Ge54  1  0.43497380  0.92225964  0.18006416  1
  Ge  Ge55  1  0.06502620  0.31993584  0.42225964  1
  Ge  Ge56  1  0.57095351  0.57095351  0.57095351  1
  Ge  Ge57  1  0.92904649  0.07095351  0.92904649  1
  Ge  Ge58  1  0.07095351  0.92904649  0.92904649  1
  Ge  Ge59  1  0.92904649  0.92904649  0.07095351  1
  Ge  Ge60  1  0.57095351  0.42904649  0.42904649  1
  Ge  Ge61  1  0.42904649  0.42904649  0.57095351  1
  Ge  Ge62  1  0.42904649  0.57095351  0.42904649  1
  Ge  Ge63  1  0.07095351  0.07095351  0.07095351  1
