# generated using pymatgen
data_MgFe6(O2F)4
_symmetry_space_group_name_H-M   'P 1'
_cell_length_a   5.15642602
_cell_length_b   5.14707576
_cell_length_c   8.82207337
_cell_angle_alpha   90.50928923
_cell_angle_beta   90.84998216
_cell_angle_gamma   98.60760402
_symmetry_Int_Tables_number   1
_chemical_formula_structural   MgFe6(O2F)4
_chemical_formula_sum   'Mg1 Fe6 O8 F4'
_cell_volume   231.46502953
_cell_formula_units_Z   1
loop_
 _symmetry_equiv_pos_site_id
 _symmetry_equiv_pos_as_xyz
  1  'x, y, z'
loop_
 _atom_site_type_symbol
 _atom_site_label
 _atom_site_symmetry_multiplicity
 _atom_site_fract_x
 _atom_site_fract_y
 _atom_site_fract_z
 _atom_site_occupancy
  Mg  Mg0  1  0.46081804  0.94430423  0.33814307  1
  Fe  Fe1  1  -0.00870112  0.01014241  -0.00165796  1
  Fe  Fe2  1  0.95750750  0.98881903  0.34513609  1
  Fe  Fe3  1  0.05739619  0.02856562  0.66591277  1
  Fe  Fe4  1  0.59120292  0.44120206  0.14344478  1
  Fe  Fe5  1  0.40209167  0.57680540  0.85208663  1
  Fe  Fe6  1  0.58249913  0.44580270  0.52168889  1
  O  O7  1  0.18361713  0.86228907  0.49074911  1
  O  O8  1  0.19284500  0.85329721  0.84026656  1
  O  O9  1  0.28203017  0.33196835  0.01525297  1
  O  O10  1  0.31592940  0.35425234  0.66862034  1
  O  O11  1  0.70520610  0.68965551  0.99208427  1
  O  O12  1  0.67732286  0.66179703  0.33677799  1
  O  O13  1  0.77144074  0.14023921  0.17698765  1
  O  O14  1  0.76996690  0.15554203  0.49818789  1
  F  F15  1  0.18087710  0.84495180  0.17821464  1
  F  F16  1  0.31598554  0.28600702  0.33222016  1
  F  F17  1  0.72525988  0.70758925  0.67256758  1
  F  F18  1  0.83670485  0.17676976  0.82617355  1
