# generated using pymatgen
data_Na2Nb4Zn4Si3(S3O16)3
_symmetry_space_group_name_H-M   'P 1'
_cell_length_a   17.64885941
_cell_length_b   8.83739564
_cell_length_c   22.84294001
_cell_angle_alpha   90.00647265
_cell_angle_beta   89.98117716
_cell_angle_gamma   120.15261566
_symmetry_Int_Tables_number   1
_chemical_formula_structural   Na2Nb4Zn4Si3(S3O16)3
_chemical_formula_sum   'Na6 Nb12 Zn12 Si9 S27 O144'
_cell_volume   3080.72979956
_cell_formula_units_Z   3
loop_
 _symmetry_equiv_pos_site_id
 _symmetry_equiv_pos_as_xyz
  1  'x, y, z'
loop_
 _atom_site_type_symbol
 _atom_site_label
 _atom_site_symmetry_multiplicity
 _atom_site_fract_x
 _atom_site_fract_y
 _atom_site_fract_z
 _atom_site_occupancy
  Na  Na0  1  0.99891792  0.99850334  0.49975528  1
  Na  Na1  1  0.49944507  0.00107027  0.99692503  1
  Na  Na2  1  0.33476129  0.33462506  0.83785681  1
  Na  Na3  1  0.83115524  0.33321822  0.83676013  1
  Na  Na4  1  0.33517646  0.33608069  0.33950483  1
  Na  Na5  1  0.83350578  0.33216361  0.33974210  1
  Nb  Nb6  1  0.50001370  0.01053174  0.35605800  1
  Nb  Nb7  1  0.99943863  0.98872015  0.85362328  1
  Nb  Nb8  1  0.50589158  0.01380032  0.64117572  1
  Nb  Nb9  1  0.99958462  0.99961178  0.14012705  1
  Nb  Nb10  1  0.33775617  0.34168377  0.68523019  1
  Nb  Nb11  1  0.82799378  0.33121470  0.69234260  1
  Nb  Nb12  1  0.33436883  0.33385253  0.18840813  1
  Nb  Nb13  1  0.83499190  0.33208095  0.18428996  1
  Nb  Nb14  1  0.16551834  0.65844016  0.02362884  1
  Nb  Nb15  1  0.66698276  0.67036880  0.02121048  1
  Nb  Nb16  1  0.16624586  0.66234303  0.52456705  1
  Nb  Nb17  1  0.66662410  0.67269145  0.52605352  1
  Zn  Zn18  1  0.99760028  0.99693168  0.35342430  1
  Zn  Zn19  1  0.50190929  0.00620862  0.84788772  1
  Zn  Zn20  1  0.00059085  0.99516940  0.65183056  1
  Zn  Zn21  1  0.50136762  0.00742094  0.15213191  1
  Zn  Zn22  1  0.33004618  0.33451552  0.98158577  1
  Zn  Zn23  1  0.83854239  0.33437474  0.98505997  1
  Zn  Zn24  1  0.33804754  0.34530669  0.48672909  1
  Zn  Zn25  1  0.83167082  0.32655915  0.48371343  1
  Zn  Zn26  1  0.16312599  0.66211007  0.31466401  1
  Zn  Zn27  1  0.66586157  0.66421559  0.31150637  1
  Zn  Zn28  1  0.16807019  0.67109401  0.81026688  1
  Zn  Zn29  1  0.66165021  0.65184209  0.80891768  1
  Si  Si30  1  0.50607969  0.29952479  0.24711517  1
  Si  Si31  1  0.63808500  0.28958275  0.75508543  1
  Si  Si32  1  0.00684060  0.71047697  0.74568421  1
  Si  Si33  1  0.47404340  0.33019003  0.57836285  1
  Si  Si34  1  0.69425818  0.05712758  0.58108996  1
  Si  Si35  1  0.33530990  0.62197363  0.58187521  1
  Si  Si36  1  0.97535669  0.61811800  0.07908861  1
  Si  Si37  1  0.83110361  0.04595593  0.08056594  1
  Si  Si38  1  0.19390698  0.33320042  0.08127994  1
  S  S39  1  0.14308918  0.99639183  0.25132956  1
  S  S40  1  0.64450146  0.99919121  0.24998796  1
  S  S41  1  0.35356630  0.71172653  0.25023849  1
  S  S42  1  0.85618314  0.71213318  0.25113821  1
  S  S43  1  0.00054797  0.28989974  0.25150077  1
  S  S44  1  0.14478835  0.29013863  0.74972183  1
  S  S45  1  0.50016786  0.71307683  0.75150323  1
  S  S46  1  0.35458480  0.99871196  0.75056387  1
  S  S47  1  0.85497666  0.99816316  0.75005403  1
  S  S48  1  0.97678208  0.32618164  0.58268004  1
  S  S49  1  0.18629278  0.04564833  0.58092518  1
  S  S50  1  0.83703855  0.62645413  0.58109346  1
  S  S51  1  0.47776897  0.62737675  0.08232248  1
  S  S52  1  0.33669181  0.04630788  0.08078230  1
  S  S53  1  0.68611908  0.32756361  0.08070248  1
  S  S54  1  0.31280184  0.66917595  0.91458353  1
  S  S55  1  0.80967615  0.66250243  0.91514237  1
  S  S56  1  0.02141396  0.37783156  0.91437613  1
  S  S57  1  0.51834564  0.37396987  0.91711687  1
  S  S58  1  0.16973849  0.95868317  0.91516151  1
  S  S59  1  0.66698859  0.95808450  0.91467307  1
  S  S60  1  0.30847313  0.95564009  0.41486698  1
  S  S61  1  0.81218214  0.95626071  0.41467387  1
  S  S62  1  0.16683268  0.37539905  0.41543580  1
  S  S63  1  0.67071828  0.38232418  0.41520358  1
  S  S64  1  0.02001676  0.66529422  0.41613566  1
  S  S65  1  0.52177784  0.66495688  0.41472793  1
  O  O66  1  0.10929830  0.03833005  0.30361301  1
  O  O67  1  0.60000105  0.02839642  0.30307335  1
  O  O68  1  0.41181545  0.79148328  0.30342411  1
  O  O69  1  0.91195172  0.78126057  0.30322248  1
  O  O70  1  0.48455601  0.15927649  0.30723617  1
  O  O71  1  0.98191345  0.18117190  0.30368309  1
  O  O72  1  0.09950380  0.17107768  0.80324618  1
  O  O73  1  0.60867128  0.16520272  0.81110522  1
  O  O74  1  0.47722147  0.77483738  0.80427416  1
  O  O75  1  0.98468867  0.80894593  0.80672222  1
  O  O76  1  0.40842628  0.04181890  0.80377247  1
  O  O77  1  0.91425148  0.03154205  0.80370415  1
  O  O78  1  0.39777629  0.97976913  0.69795482  1
  O  O79  1  0.89432971  0.97842555  0.69714378  1
  O  O80  1  0.09387331  0.21524079  0.69713067  1
  O  O81  1  0.58170875  0.18537896  0.69595482  1
  O  O82  1  0.01466282  0.82731470  0.69189264  1
  O  O83  1  0.50724699  0.81239234  0.69831524  1
  O  O84  1  0.39303350  0.80864083  0.19696321  1
  O  O85  1  0.90152615  0.81990990  0.19835916  1
  O  O86  1  0.00975939  0.20393297  0.19840731  1
  O  O87  1  0.51244240  0.20142546  0.19186393  1
  O  O88  1  0.09008273  0.97734136  0.19858974  1
  O  O89  1  0.59387954  0.97286330  0.19711091  1
  O  O90  1  0.42979216  0.36470503  0.63856460  1
  O  O91  1  0.94134007  0.36510749  0.63502671  1
  O  O92  1  0.24185992  0.12042849  0.63458228  1
  O  O93  1  0.75606039  0.14137454  0.63931864  1
  O  O94  1  0.31346600  0.49043265  0.64035484  1
  O  O95  1  0.82082460  0.51630492  0.63434757  1
  O  O96  1  0.43812653  0.51285573  0.13631549  1
  O  O97  1  0.92946345  0.49445445  0.13916039  1
  O  O98  1  0.32159303  0.12969046  0.13490513  1
  O  O99  1  0.81392540  0.13490061  0.14065268  1
  O  O100  1  0.25398769  0.36643446  0.14055397  1
  O  O101  1  0.74301936  0.36144376  0.13512423  1
  O  O102  1  0.22965724  0.29175725  0.02485101  1
  O  O103  1  0.72639251  0.30433291  0.02882652  1
  O  O104  1  0.42548743  0.54801264  0.03040133  1
  O  O105  1  0.91695220  0.54971372  0.02338974  1
  O  O106  1  0.35125861  0.15382260  0.02932845  1
  O  O107  1  0.85080947  0.15764507  0.02409295  1
  O  O108  1  0.22578526  0.14620828  0.52825984  1
  O  O109  1  0.72918718  0.16526146  0.52333007  1
  O  O110  1  0.34857616  0.54562428  0.52376789  1
  O  O111  1  0.85138951  0.55025169  0.52875335  1
  O  O112  1  0.41772308  0.28878245  0.52174497  1
  O  O113  1  0.92710675  0.30239892  0.52926005  1
  O  O114  1  0.26575879  0.68868638  0.96912274  1
  O  O115  1  0.76897132  0.69027414  0.97023446  1
  O  O116  1  0.07670471  0.46300386  0.96979686  1
  O  O117  1  0.57697904  0.47023469  0.97118963  1
  O  O118  1  0.15285351  0.84986806  0.96909492  1
  O  O119  1  0.65950960  0.83989110  0.97046508  1
  O  O120  1  0.26862595  0.84634344  0.46864718  1
  O  O121  1  0.76662907  0.84397775  0.46855757  1
  O  O122  1  0.15663236  0.47052317  0.46932840  1
  O  O123  1  0.65283887  0.45485293  0.46841757  1
  O  O124  1  0.07712759  0.68759136  0.46933307  1
  O  O125  1  0.57616591  0.69273331  0.46919229  1
  O  O126  1  0.06001396  0.64002079  0.36328500  1
  O  O127  1  0.56479417  0.64512053  0.36362699  1
  O  O128  1  0.25740212  0.87154935  0.36239079  1
  O  O129  1  0.75921147  0.87319456  0.36254421  1
  O  O130  1  0.17886488  0.48253039  0.36335379  1
  O  O131  1  0.68035180  0.48317278  0.36296607  1
  O  O132  1  0.06544072  0.48597955  0.86413134  1
  O  O133  1  0.55882564  0.48126081  0.86560503  1
  O  O134  1  0.18005547  0.87640901  0.86350851  1
  O  O135  1  0.67811589  0.87155513  0.86403073  1
  O  O136  1  0.25861995  0.64400327  0.86323386  1
  O  O137  1  0.75813443  0.64594624  0.86390691  1
  O  O138  1  0.01493706  0.82774680  0.41345914  1
  O  O139  1  0.51507340  0.82944918  0.40786647  1
  O  O140  1  0.39796629  0.96493258  0.40875771  1
  O  O141  1  0.89950809  0.96780612  0.41310940  1
  O  O142  1  0.08442949  0.20376735  0.41405521  1
  O  O143  1  0.58738083  0.19738119  0.40758962  1
  O  O144  1  0.01536326  0.20235676  0.90947002  1
  O  O145  1  0.51292430  0.20252140  0.91682990  1
  O  O146  1  0.08739306  0.97618896  0.90818726  1
  O  O147  1  0.58445220  0.95954459  0.91769359  1
  O  O148  1  0.39940656  0.83179217  0.91327738  1
  O  O149  1  0.89892979  0.83119139  0.91020671  1
  O  O150  1  0.48927905  0.16957383  0.59462942  1
  O  O151  1  0.99254182  0.17942334  0.59037050  1
  O  O152  1  0.09844834  0.01952044  0.58860952  1
  O  O153  1  0.59486283  0.01223028  0.59583483  1
  O  O154  1  0.41258789  0.81064948  0.60132302  1
  O  O155  1  0.90960608  0.80601027  0.58851990  1
  O  O156  1  0.49105382  0.80225377  0.09233607  1
  O  O157  1  0.99193144  0.81090359  0.09890594  1
  O  O158  1  0.40935757  0.01410225  0.08937970  1
  O  O159  1  0.91198866  0.01487190  0.09921403  1
  O  O160  1  0.09531672  0.17425980  0.09905647  1
  O  O161  1  0.59898708  0.17615918  0.08937641  1
  O  O162  1  0.34321745  0.15980338  0.74062172  1
  O  O163  1  0.85187606  0.16763100  0.74694420  1
  O  O164  1  0.23174828  0.29410222  0.74638554  1
  O  O165  1  0.73897208  0.30863515  0.73938885  1
  O  O166  1  0.41684631  0.52381204  0.74281319  1
  O  O167  1  0.91346424  0.51879524  0.74063716  1
  O  O168  1  0.34795829  0.53124259  0.24533641  1
  O  O169  1  0.84504488  0.53008757  0.24103449  1
  O  O170  1  0.41111678  0.30518680  0.24089937  1
  O  O171  1  0.91785510  0.30740882  0.24292620  1
  O  O172  1  0.23475827  0.15908408  0.24110952  1
  O  O173  1  0.73237413  0.17041054  0.24589349  1
  O  O174  1  0.32228749  0.51344181  0.92193345  1
  O  O175  1  0.82249227  0.51347709  0.92222645  1
  O  O176  1  0.43146685  0.35825669  0.92599564  1
  O  O177  1  0.93400100  0.35521796  0.92070207  1
  O  O178  1  0.24497893  0.13532483  0.92141515  1
  O  O179  1  0.74449178  0.13132298  0.92309721  1
  O  O180  1  0.32233573  0.13128731  0.42088725  1
  O  O181  1  0.82285372  0.13215451  0.42105136  1
  O  O182  1  0.24385570  0.35518658  0.42240037  1
  O  O183  1  0.74533053  0.35500270  0.42084379  1
  O  O184  1  0.43340562  0.51390493  0.42011154  1
  O  O185  1  0.93261315  0.50838747  0.42387191  1
  O  O186  1  0.18103957  0.50612348  0.07212004  1
  O  O187  1  0.67942123  0.49129745  0.07421481  1
  O  O188  1  0.07413026  0.64460951  0.07081084  1
  O  O189  1  0.56613730  0.63904447  0.07545684  1
  O  O190  1  0.25300624  0.87206574  0.07425235  1
  O  O191  1  0.74552047  0.84681990  0.07236461  1
  O  O192  1  0.17855604  0.86491418  0.57291691  1
  O  O193  1  0.68242059  0.85726948  0.57190866  1
  O  O194  1  0.24612152  0.64308677  0.57141891  1
  O  O195  1  0.75331945  0.63566260  0.57282696  1
  O  O196  1  0.06777417  0.49290875  0.57314243  1
  O  O197  1  0.57338714  0.50402475  0.57043514  1
  O  O198  1  0.15534346  0.84609024  0.25665788  1
  O  O199  1  0.65981976  0.85650297  0.26080789  1
  O  O200  1  0.26667119  0.68513571  0.26049550  1
  O  O201  1  0.77057726  0.69479873  0.25580977  1
  O  O202  1  0.07632825  0.46544357  0.25626412  1
  O  O203  1  0.58283584  0.48576272  0.26234047  1
  O  O204  1  0.15922534  0.46268399  0.76119213  1
  O  O205  1  0.65684471  0.48382342  0.75559241  1
  O  O206  1  0.08438840  0.68357719  0.76272310  1
  O  O207  1  0.57549868  0.69052242  0.75651521  1
  O  O208  1  0.26830926  0.84576639  0.75598295  1
  O  O209  1  0.76865037  0.85296435  0.76109384  1
