# generated using pymatgen
data_Na4CaNbSi2PO12
_symmetry_space_group_name_H-M   'P 1'
_cell_length_a   9.36223338
_cell_length_b   9.36223304
_cell_length_c   22.48319903
_cell_angle_alpha   90.27454632
_cell_angle_beta   89.72545369
_cell_angle_gamma   119.79784061
_symmetry_Int_Tables_number   1
_chemical_formula_structural   Na4CaNbSi2PO12
_chemical_formula_sum   'Na24 Ca6 Nb6 Si12 P6 O72'
_cell_volume   1710.10226991
_cell_formula_units_Z   6
loop_
 _symmetry_equiv_pos_site_id
 _symmetry_equiv_pos_as_xyz
  1  'x, y, z'
loop_
 _atom_site_type_symbol
 _atom_site_label
 _atom_site_symmetry_multiplicity
 _atom_site_fract_x
 _atom_site_fract_y
 _atom_site_fract_z
 _atom_site_occupancy
  Na  Na0  1  0.65195337  0.01940843  0.24825686  1
  Na  Na1  1  0.37395852  0.36071327  0.24207225  1
  Na  Na2  1  0.97383425  0.62053186  0.24394570  1
  Na  Na3  1  0.63928673  0.62604148  0.74207225  1
  Na  Na4  1  0.98059157  0.34804663  0.74825686  1
  Na  Na5  1  0.37946814  0.02616575  0.74394570  1
  Na  Na6  1  0.31862037  0.35274143  0.58158986  1
  Na  Na7  1  0.04062552  0.69404627  0.57540525  1
  Na  Na8  1  0.64050125  0.95386486  0.57727870  1
  Na  Na9  1  0.30595373  0.95937448  0.07540525  1
  Na  Na10  1  0.64725857  0.68137963  0.08158986  1
  Na  Na11  1  0.04613514  0.35949875  0.07727870  1
  Na  Na12  1  0.98528637  0.68607543  0.91492386  1
  Na  Na13  1  0.70729152  0.02738027  0.90873925  1
  Na  Na14  1  0.30716725  0.28719886  0.91061270  1
  Na  Na15  1  0.97261973  0.29270848  0.40873925  1
  Na  Na16  1  0.31392457  0.01471363  0.41492386  1
  Na  Na17  1  0.71280114  0.69283275  0.41061270  1
  Na  Na18  1  0.98978940  0.99012736  0.49359992  1
  Na  Na19  1  0.00987264  0.01021060  0.99359992  1
  Na  Na20  1  0.65645640  0.32346036  0.82693292  1
  Na  Na21  1  0.67653964  0.34354360  0.32693292  1
  Na  Na22  1  0.32312240  0.65679436  0.16026692  1
  Na  Na23  1  0.34320564  0.67687760  0.66026692  1
  Ca  Ca24  1  0.99883151  0.99912679  0.34872870  1
  Ca  Ca25  1  0.00087321  0.00116849  0.84872870  1
  Ca  Ca26  1  0.66549851  0.33245979  0.68206170  1
  Ca  Ca27  1  0.66754021  0.33450149  0.18206170  1
  Ca  Ca28  1  0.33216451  0.66579379  0.01539570  1
  Ca  Ca29  1  0.33420621  0.66783549  0.51539570  1
  Nb  Nb30  1  0.99894850  0.00095718  0.64841001  1
  Nb  Nb31  1  0.99904282  0.00105150  0.14841001  1
  Nb  Nb32  1  0.66561550  0.33429018  0.98174301  1
  Nb  Nb33  1  0.66570982  0.33438450  0.48174301  1
  Nb  Nb34  1  0.33228150  0.66762418  0.31507701  1
  Nb  Nb35  1  0.33237582  0.66771850  0.81507701  1
  Si  Si36  1  0.69517784  0.70314100  0.25298077  1
  Si  Si37  1  0.00802143  0.30450825  0.25335972  1
  Si  Si38  1  0.29685900  0.30482216  0.75298077  1
  Si  Si39  1  0.69549175  0.99197857  0.75335972  1
  Si  Si40  1  0.36184484  0.03647400  0.58631377  1
  Si  Si41  1  0.67468843  0.63784125  0.58669272  1
  Si  Si42  1  0.96352600  0.63815516  0.08631377  1
  Si  Si43  1  0.36215875  0.32531157  0.08669272  1
  Si  Si44  1  0.02851084  0.36980800  0.91964777  1
  Si  Si45  1  0.34135443  0.97117525  0.92002672  1
  Si  Si46  1  0.63019200  0.97148916  0.41964777  1
  Si  Si47  1  0.02882475  0.65864557  0.42002672  1
  P  P48  1  0.29094316  0.98764447  0.25082589  1
  P  P49  1  0.01235553  0.70905684  0.75082589  1
  P  P50  1  0.95761016  0.32097747  0.58415889  1
  P  P51  1  0.67902253  0.04238984  0.08415889  1
  P  P52  1  0.62427616  0.65431147  0.91749289  1
  P  P53  1  0.34568853  0.37572384  0.41749289  1
  O  O54  1  0.22403159  0.01683773  0.30816667  1
  O  O55  1  0.79994518  0.77752346  0.31160768  1
  O  O56  1  0.98877687  0.20675382  0.31269310  1
  O  O57  1  0.22247654  0.20005482  0.81160768  1
  O  O58  1  0.98316227  0.77596841  0.80816667  1
  O  O59  1  0.79324618  0.01122313  0.81269310  1
  O  O60  1  0.80651421  0.97096488  0.69481712  1
  O  O61  1  0.16371441  0.19344655  0.69482489  1
  O  O62  1  0.03061511  0.82903647  0.69647164  1
  O  O63  1  0.80655345  0.83628559  0.19482489  1
  O  O64  1  0.02903512  0.19348579  0.19481712  1
  O  O65  1  0.17096353  0.96938489  0.19647164  1
  O  O66  1  0.89069859  0.35017073  0.64149967  1
  O  O67  1  0.46661218  0.11085646  0.64494068  1
  O  O68  1  0.65544387  0.54008682  0.64602610  1
  O  O69  1  0.88914354  0.53338782  0.14494068  1
  O  O70  1  0.64982927  0.10930141  0.14149967  1
  O  O71  1  0.45991318  0.34455613  0.14602610  1
  O  O72  1  0.47318121  0.30429788  0.02815012  1
  O  O73  1  0.83038141  0.52677955  0.02815789  1
  O  O74  1  0.69728211  0.16236947  0.02980464  1
  O  O75  1  0.47322045  0.16961859  0.52815789  1
  O  O76  1  0.69570212  0.52681879  0.52815012  1
  O  O77  1  0.83763053  0.30271789  0.52980464  1
  O  O78  1  0.55736459  0.68350473  0.97483367  1
  O  O79  1  0.13327818  0.44419046  0.97827468  1
  O  O80  1  0.32210987  0.87342082  0.97936010  1
  O  O81  1  0.55580954  0.86672182  0.47827468  1
  O  O82  1  0.31649527  0.44263541  0.47483367  1
  O  O83  1  0.12657918  0.67789013  0.47936010  1
  O  O84  1  0.13984721  0.63763188  0.36148412  1
  O  O85  1  0.49704741  0.86011355  0.36149189  1
  O  O86  1  0.36394811  0.49570347  0.36313864  1
  O  O87  1  0.13988645  0.50295259  0.86149189  1
  O  O88  1  0.36236812  0.86015279  0.86148412  1
  O  O89  1  0.50429653  0.63605189  0.86313864  1
  O  O90  1  0.00351051  0.81572485  0.41401420  1
  O  O91  1  0.81675289  0.00863705  0.41348031  1
  O  O92  1  0.20676740  0.19984854  0.40875858  1
  O  O93  1  0.99136295  0.18324711  0.91348031  1
  O  O94  1  0.18427515  0.99648949  0.91401420  1
  O  O95  1  0.80015146  0.79323260  0.90875858  1
  O  O96  1  0.95473744  0.14978254  0.58610626  1
  O  O97  1  0.18284138  0.04028270  0.58871176  1
  O  O98  1  0.85440257  0.81907031  0.58816795  1
  O  O99  1  0.95971730  0.81715862  0.08871176  1
  O  O100  1  0.85021746  0.04526256  0.08610626  1
  O  O101  1  0.18092969  0.14559743  0.08816795  1
  O  O102  1  0.67017751  0.14905785  0.74734720  1
  O  O103  1  0.48341989  0.34197005  0.74681331  1
  O  O104  1  0.87343440  0.53318154  0.74209158  1
  O  O105  1  0.65802995  0.51658011  0.24681331  1
  O  O106  1  0.85094215  0.32982249  0.24734720  1
  O  O107  1  0.46681846  0.12656560  0.24209158  1
  O  O108  1  0.62140444  0.48311554  0.91943926  1
  O  O109  1  0.84950838  0.37361570  0.92204476  1
  O  O110  1  0.52106957  0.15240331  0.92150095  1
  O  O111  1  0.62638430  0.15049162  0.42204476  1
  O  O112  1  0.51688446  0.37859556  0.41943926  1
  O  O113  1  0.84759669  0.47893043  0.42150095  1
  O  O114  1  0.33684351  0.48239185  0.08068120  1
  O  O115  1  0.15008589  0.67530405  0.08014731  1
  O  O116  1  0.54010040  0.86651554  0.07542558  1
  O  O117  1  0.32469595  0.84991411  0.58014731  1
  O  O118  1  0.51760815  0.66315649  0.58068120  1
  O  O119  1  0.13348446  0.45989960  0.57542558  1
  O  O120  1  0.28807044  0.81644954  0.25277326  1
  O  O121  1  0.51617438  0.70694970  0.25537876  1
  O  O122  1  0.18773557  0.48573731  0.25483495  1
  O  O123  1  0.29305030  0.48382562  0.75537876  1
  O  O124  1  0.18355046  0.71192956  0.75277326  1
  O  O125  1  0.51426269  0.81226443  0.75483495  1
