# generated using pymatgen
data_MgV2Cd2O7
_symmetry_space_group_name_H-M   'P 1'
_cell_length_a   5.55445922
_cell_length_b   5.79930854
_cell_length_c   5.84597003
_cell_angle_alpha   113.57218215
_cell_angle_beta   89.22347114
_cell_angle_gamma   99.28793426
_symmetry_Int_Tables_number   1
_chemical_formula_structural   MgV2Cd2O7
_chemical_formula_sum   'Mg1 V2 Cd2 O7'
_cell_volume   170.06367064
_cell_formula_units_Z   1
loop_
 _symmetry_equiv_pos_site_id
 _symmetry_equiv_pos_as_xyz
  1  'x, y, z'
loop_
 _atom_site_type_symbol
 _atom_site_label
 _atom_site_symmetry_multiplicity
 _atom_site_fract_x
 _atom_site_fract_y
 _atom_site_fract_z
 _atom_site_occupancy
  Mg  Mg0  1  0.28490328  0.00600680  0.24600003  1
  V  V1  1  0.88147865  0.26593210  0.24837403  1
  V  V2  1  0.10438738  0.72214339  0.72610163  1
  Cd  Cd3  1  0.49497865  0.33411783  0.74277695  1
  Cd  Cd4  1  0.54718599  0.67900548  0.36163261  1
  O  O5  1  0.26265491  0.92067839  0.56179334  1
  O  O6  1  0.74319800  0.39761939  0.06723930  1
  O  O7  1  0.64883113  0.07125000  0.35350239  1
  O  O8  1  0.30899462  0.67072457  0.94263697  1
  O  O9  1  0.02016666  0.00104655  0.00805145  1
  O  O10  1  0.79916481  0.56624866  0.58781616  1
  O  O11  1  0.20405591  0.38605985  0.42490814  1
