# generated using pymatgen
data_Na6Si7Ge8S5O48
_symmetry_space_group_name_H-M   'P 1'
_cell_length_a   17.11205052
_cell_length_b   8.56264135
_cell_length_c   21.91484008
_cell_angle_alpha   89.95278185
_cell_angle_beta   89.33890304
_cell_angle_gamma   120.02540068
_symmetry_Int_Tables_number   1
_chemical_formula_structural   Na6Si7Ge8S5O48
_chemical_formula_sum   'Na18 Si21 Ge24 S15 O144'
_cell_volume   2779.87973543
_cell_formula_units_Z   3
loop_
 _symmetry_equiv_pos_site_id
 _symmetry_equiv_pos_as_xyz
  1  'x, y, z'
loop_
 _atom_site_type_symbol
 _atom_site_label
 _atom_site_symmetry_multiplicity
 _atom_site_fract_x
 _atom_site_fract_y
 _atom_site_fract_z
 _atom_site_occupancy
  Na  Na0  1  0.00023021  0.63322192  0.25081394  1
  Na  Na1  1  0.49774673  0.63913684  0.24587177  1
  Na  Na2  1  0.99888320  0.35764776  0.75167621  1
  Na  Na3  1  0.49965941  0.36841434  0.75311600  1
  Na  Na4  1  0.66554838  0.30570484  0.91746988  1
  Na  Na5  1  0.16642758  0.02784822  0.41404126  1
  Na  Na6  1  0.99777481  0.99105040  0.50199291  1
  Na  Na7  1  0.49592383  0.99237154  0.49728991  1
  Na  Na8  1  0.99686811  0.00003523  0.99861330  1
  Na  Na9  1  0.49720995  0.99836471  0.00444820  1
  Na  Na10  1  0.33069665  0.33383831  0.83387046  1
  Na  Na11  1  0.83225005  0.33172859  0.83476509  1
  Na  Na12  1  0.33277687  0.33549803  0.33101122  1
  Na  Na13  1  0.83088798  0.32693436  0.33104117  1
  Na  Na14  1  0.17458084  0.67186489  0.16871866  1
  Na  Na15  1  0.67020123  0.66774309  0.16301434  1
  Na  Na16  1  0.17471813  0.67793403  0.66633199  1
  Na  Na17  1  0.67221144  0.67529666  0.66992490  1
  Si  Si18  1  0.14831519  0.01138253  0.24776107  1
  Si  Si19  1  0.63903679  0.00476151  0.25069948  1
  Si  Si20  1  0.35380718  0.71083484  0.24723215  1
  Si  Si21  1  0.85103673  0.71063880  0.25020525  1
  Si  Si22  1  0.99997038  0.28465087  0.25107043  1
  Si  Si23  1  0.13876269  0.27518826  0.75094113  1
  Si  Si24  1  0.64506248  0.28567202  0.74964029  1
  Si  Si25  1  0.49986940  0.71515720  0.75104695  1
  Si  Si26  1  0.35056779  0.99043530  0.75117720  1
  Si  Si27  1  0.85413436  0.99673933  0.74710540  1
  Si  Si28  1  0.19125129  0.05248283  0.58469398  1
  Si  Si29  1  0.83238415  0.62523572  0.58451310  1
  Si  Si30  1  0.47986489  0.61826164  0.08245512  1
  Si  Si31  1  0.33156669  0.03939652  0.08489222  1
  Si  Si32  1  0.69221524  0.32835276  0.08527503  1
  Si  Si33  1  0.81123387  0.67688445  0.91605779  1
  Si  Si34  1  0.02509056  0.38930346  0.92020583  1
  Si  Si35  1  0.51907226  0.37234922  0.91374563  1
  Si  Si36  1  0.31511093  0.95323018  0.41333155  1
  Si  Si37  1  0.01988984  0.66491579  0.41429111  1
  Si  Si38  1  0.52544779  0.66398305  0.41983282  1
  Ge  Ge39  1  0.99937427  0.98746615  0.34517631  1
  Ge  Ge40  1  0.49391028  0.96289491  0.35360180  1
  Ge  Ge41  1  0.99378264  0.02635364  0.85633274  1
  Ge  Ge42  1  0.49845284  0.00717319  0.84799983  1
  Ge  Ge43  1  0.99909031  0.99705306  0.64553587  1
  Ge  Ge44  1  0.49602689  0.99340768  0.65770422  1
  Ge  Ge45  1  0.99754722  0.00269497  0.15543324  1
  Ge  Ge46  1  0.49692776  0.98113370  0.13959006  1
  Ge  Ge47  1  0.32463187  0.32030374  0.69492265  1
  Ge  Ge48  1  0.82370801  0.32895165  0.68857811  1
  Ge  Ge49  1  0.33198010  0.32936828  0.18516445  1
  Ge  Ge50  1  0.82489323  0.32695972  0.19442980  1
  Ge  Ge51  1  0.34946691  0.33554212  0.98409971  1
  Ge  Ge52  1  0.83444821  0.34415366  0.97835673  1
  Ge  Ge53  1  0.33452770  0.32525375  0.47744329  1
  Ge  Ge54  1  0.84016028  0.35709605  0.48033853  1
  Ge  Ge55  1  0.16859143  0.67194409  0.02042919  1
  Ge  Ge56  1  0.66236325  0.63232019  0.02141263  1
  Ge  Ge57  1  0.17204448  0.70142631  0.51605511  1
  Ge  Ge58  1  0.66826427  0.66330048  0.51941231  1
  Ge  Ge59  1  0.16701765  0.67949739  0.30733750  1
  Ge  Ge60  1  0.66295263  0.67354177  0.30933648  1
  Ge  Ge61  1  0.16746005  0.65512007  0.81335431  1
  Ge  Ge62  1  0.66681485  0.65758192  0.80927099  1
  S  S63  1  0.50040512  0.28216230  0.25126170  1
  S  S64  1  0.00027983  0.71514492  0.75041425  1
  S  S65  1  0.47888961  0.32990735  0.58368808  1
  S  S66  1  0.97901432  0.33707991  0.58172611  1
  S  S67  1  0.68788177  0.04508032  0.58158799  1
  S  S68  1  0.33377451  0.62271812  0.58291657  1
  S  S69  1  0.97885886  0.62779501  0.08378699  1
  S  S70  1  0.83584769  0.04837465  0.08363348  1
  S  S71  1  0.18681031  0.32899813  0.08143022  1
  S  S72  1  0.31165246  0.66411234  0.91755427  1
  S  S73  1  0.16695651  0.95639967  0.91634347  1
  S  S74  1  0.66551970  0.94854792  0.91739323  1
  S  S75  1  0.81187294  0.95914688  0.41837352  1
  S  S76  1  0.16580667  0.38459227  0.41887306  1
  S  S77  1  0.66739230  0.37786667  0.41708527  1
  O  O78  1  0.10788022  0.04668046  0.31219523  1
  O  O79  1  0.59939212  0.04603196  0.31335643  1
  O  O80  1  0.41770657  0.77818893  0.30867478  1
  O  O81  1  0.91706225  0.78691792  0.30951357  1
  O  O82  1  0.48586343  0.17683503  0.30779256  1
  O  O83  1  0.97752272  0.15485559  0.31193390  1
  O  O84  1  0.09653248  0.14859677  0.81182294  1
  O  O85  1  0.60502437  0.16619704  0.81188381  1
  O  O86  1  0.47694950  0.79991324  0.81082204  1
  O  O87  1  0.98269745  0.78900287  0.80527744  1
  O  O88  1  0.41803465  0.04589747  0.80876056  1
  O  O89  1  0.91959088  0.05983744  0.80715268  1
  O  O90  1  0.39026776  0.94895479  0.68832690  1
  O  O91  1  0.89880420  0.95753961  0.68757227  1
  O  O92  1  0.07516578  0.19932330  0.69067414  1
  O  O93  1  0.57906530  0.20347792  0.68944116  1
  O  O94  1  0.01754320  0.82159760  0.69333567  1
  O  O95  1  0.52301625  0.83625608  0.68770422  1
  O  O96  1  0.39875562  0.84401256  0.18943218  1
  O  O97  1  0.89245465  0.83496845  0.18873535  1
  O  O98  1  0.02308283  0.20957745  0.18875809  1
  O  O99  1  0.51729620  0.21191263  0.19537428  1
  O  O100  1  0.07785218  0.95437561  0.19014551  1
  O  O101  1  0.57526373  0.95265569  0.19180662  1
  O  O102  1  0.44177300  0.36489184  0.63958474  1
  O  O103  1  0.93954605  0.36965362  0.63795889  1
  O  O104  1  0.25810467  0.14338657  0.64216799  1
  O  O105  1  0.74357079  0.12036085  0.63741428  1
  O  O106  1  0.32011801  0.51482027  0.63889291  1
  O  O107  1  0.81352606  0.49074010  0.64288837  1
  O  O108  1  0.43654645  0.49319585  0.14425852  1
  O  O109  1  0.94209932  0.51939532  0.13989145  1
  O  O110  1  0.30801602  0.12763885  0.14305466  1
  O  O111  1  0.82295055  0.13102502  0.13957053  1
  O  O112  1  0.24088981  0.36426247  0.13755254  1
  O  O113  1  0.75982346  0.37215023  0.14246251  1
  O  O114  1  0.22793684  0.30066116  0.02550124  1
  O  O115  1  0.73417639  0.29130645  0.02146739  1
  O  O116  1  0.41346741  0.53753225  0.02293011  1
  O  O117  1  0.92365285  0.54670697  0.02822895  1
  O  O118  1  0.34748927  0.15427646  0.02133520  1
  O  O119  1  0.85415821  0.16223119  0.02728343  1
  O  O120  1  0.23407130  0.17275060  0.52134273  1
  O  O121  1  0.73155728  0.15834602  0.52572356  1
  O  O122  1  0.35133813  0.54484560  0.52686741  1
  O  O123  1  0.85082145  0.53849594  0.52316813  1
  O  O124  1  0.42355933  0.30072824  0.52825346  1
  O  O125  1  0.91986487  0.30123304  0.52696771  1
  O  O126  1  0.27233432  0.70180883  0.97298398  1
  O  O127  1  0.76757780  0.71476516  0.97715187  1
  O  O128  1  0.09081145  0.48227987  0.97804564  1
  O  O129  1  0.58389865  0.45136201  0.97320169  1
  O  O130  1  0.15181991  0.84326906  0.97257706  1
  O  O131  1  0.65163721  0.84279986  0.97319228  1
  O  O132  1  0.27628111  0.83217361  0.47658690  1
  O  O133  1  0.77276207  0.84391071  0.47477183  1
  O  O134  1  0.15105285  0.46456611  0.47564384  1
  O  O135  1  0.65355181  0.45983388  0.47413034  1
  O  O136  1  0.08368307  0.71085757  0.47529139  1
  O  O137  1  0.59034525  0.70084938  0.47886601  1
  O  O138  1  0.06394493  0.62995952  0.35406793  1
  O  O139  1  0.56675593  0.62046777  0.35802159  1
  O  O140  1  0.24346539  0.86645807  0.35829465  1
  O  O141  1  0.75621481  0.88036115  0.36338318  1
  O  O142  1  0.18184707  0.49119353  0.36301476  1
  O  O143  1  0.68780727  0.49478363  0.36273272  1
  O  O144  1  0.06538594  0.50980209  0.85665347  1
  O  O145  1  0.56253955  0.49526251  0.85268159  1
  O  O146  1  0.18617130  0.87693225  0.86110723  1
  O  O147  1  0.68194249  0.87458556  0.86078705  1
  O  O148  1  0.25615402  0.63496844  0.86144827  1
  O  O149  1  0.74471850  0.62265064  0.85728964  1
  O  O150  1  0.01151588  0.85086394  0.40966945  1
  O  O151  1  0.51853009  0.84593365  0.41404150  1
  O  O152  1  0.41714443  0.98743223  0.40608673  1
  O  O153  1  0.90222909  0.97921669  0.41335865  1
  O  O154  1  0.08531490  0.19971785  0.41606231  1
  O  O155  1  0.58558580  0.20229037  0.41350787  1
  O  O156  1  0.01884434  0.19352456  0.91460003  1
  O  O157  1  0.51105330  0.17015119  0.90925042  1
  O  O158  1  0.08340848  0.96406037  0.91157144  1
  O  O159  1  0.58451042  0.97257386  0.91311799  1
  O  O160  1  0.40166465  0.82646944  0.91181315  1
  O  O161  1  0.91447822  0.84695096  0.90676107  1
  O  O162  1  0.48818785  0.16558290  0.58733334  1
  O  O163  1  0.98548208  0.17190564  0.58539630  1
  O  O164  1  0.09109358  0.03036115  0.59187145  1
  O  O165  1  0.59829828  0.03129782  0.58618806  1
  O  O166  1  0.41641977  0.80805523  0.58681281  1
  O  O167  1  0.92189878  0.82200108  0.59036078  1
  O  O168  1  0.48691568  0.81258743  0.08593726  1
  O  O169  1  0.98794258  0.81041841  0.08729802  1
  O  O170  1  0.42198179  0.02747160  0.09031695  1
  O  O171  1  0.91980029  0.03085914  0.08746307  1
  O  O172  1  0.09558123  0.16316575  0.08674866  1
  O  O173  1  0.59193007  0.15697578  0.09242520  1
  O  O174  1  0.34815801  0.17708654  0.74378166  1
  O  O175  1  0.85109367  0.18654348  0.73547707  1
  O  O176  1  0.24014920  0.30926340  0.74583020  1
  O  O177  1  0.74393883  0.30385289  0.74558258  1
  O  O178  1  0.41249882  0.51254288  0.73887531  1
  O  O179  1  0.92044323  0.52697145  0.74365144  1
  O  O180  1  0.34812528  0.51393108  0.23892752  1
  O  O181  1  0.84829942  0.51889479  0.24379619  1
  O  O182  1  0.42039542  0.30968951  0.24806265  1
  O  O183  1  0.91298665  0.31344521  0.23980363  1
  O  O184  1  0.24668494  0.18837833  0.24272414  1
  O  O185  1  0.74120595  0.17147024  0.24680033  1
  O  O186  1  0.31471002  0.49520747  0.92290580  1
  O  O187  1  0.81902795  0.49136884  0.92370859  1
  O  O188  1  0.41945419  0.35675164  0.91910662  1
  O  O189  1  0.92287646  0.35829290  0.92775999  1
  O  O190  1  0.24698918  0.13927112  0.92232360  1
  O  O191  1  0.74829665  0.13635437  0.92048692  1
  O  O192  1  0.31895550  0.14945575  0.42286142  1
  O  O193  1  0.81669106  0.13764643  0.42634592  1
  O  O194  1  0.24855314  0.36320972  0.42298601  1
  O  O195  1  0.74916147  0.35561606  0.42360350  1
  O  O196  1  0.42347016  0.48917752  0.42832729  1
  O  O197  1  0.92107030  0.47864835  0.42115953  1
  O  O198  1  0.17730034  0.49429962  0.07684880  1
  O  O199  1  0.68700620  0.51396524  0.07934220  1
  O  O200  1  0.07006958  0.64443886  0.07669509  1
  O  O201  1  0.58131436  0.64505482  0.07331451  1
  O  O202  1  0.24011736  0.83697104  0.07456054  1
  O  O203  1  0.75400787  0.87097060  0.07849066  1
  O  O204  1  0.18033957  0.84821715  0.57858664  1
  O  O205  1  0.67960943  0.86331494  0.57709365  1
  O  O206  1  0.24940642  0.63355342  0.57760193  1
  O  O207  1  0.74075409  0.64253535  0.57457482  1
  O  O208  1  0.07012755  0.49905951  0.57494724  1
  O  O209  1  0.57042456  0.49589797  0.57678616  1
  O  O210  1  0.15185908  0.82554379  0.25288738  1
  O  O211  1  0.64776760  0.82014629  0.25786198  1
  O  O212  1  0.25528766  0.68700947  0.25841734  1
  O  O213  1  0.75137441  0.68568090  0.26141602  1
  O  O214  1  0.08704293  0.48488886  0.25854559  1
  O  O215  1  0.58298369  0.47118590  0.25597603  1
  O  O216  1  0.14814909  0.47716499  0.75826667  1
  O  O217  1  0.65219860  0.48123859  0.75284002  1
  O  O218  1  0.08176746  0.69312883  0.75448232  1
  O  O219  1  0.58729894  0.69031410  0.75783494  1
  O  O220  1  0.25035242  0.81652198  0.76066673  1
  O  O221  1  0.75545755  0.82619722  0.75766353  1
