# generated using pymatgen
data_Na10La4Zn4Si3(S3O16)3
_symmetry_space_group_name_H-M   'P 1'
_cell_length_a   18.90268048
_cell_length_b   9.43782327
_cell_length_c   23.69612698
_cell_angle_alpha   90.05183990
_cell_angle_beta   89.54425012
_cell_angle_gamma   120.28785303
_symmetry_Int_Tables_number   1
_chemical_formula_structural   Na10La4Zn4Si3(S3O16)3
_chemical_formula_sum   'Na30 La12 Zn12 Si9 S27 O144'
_cell_volume   3650.22510181
_cell_formula_units_Z   3
loop_
 _symmetry_equiv_pos_site_id
 _symmetry_equiv_pos_as_xyz
  1  'x, y, z'
loop_
 _atom_site_type_symbol
 _atom_site_label
 _atom_site_symmetry_multiplicity
 _atom_site_fract_x
 _atom_site_fract_y
 _atom_site_fract_z
 _atom_site_occupancy
  Na  Na0  1  0.19176015  0.36558898  0.24358241  1
  Na  Na1  1  0.69065756  0.36961218  0.24390355  1
  Na  Na2  1  0.99040162  0.63397531  0.25226015  1
  Na  Na3  1  0.49167372  0.62716646  0.25933183  1
  Na  Na4  1  0.32336524  0.64556152  0.74175096  1
  Na  Na5  1  0.82172929  0.64263085  0.74104473  1
  Na  Na6  1  0.99091173  0.34847700  0.75060161  1
  Na  Na7  1  0.19452785  0.01627460  0.73955824  1
  Na  Na8  1  0.69383479  0.01295929  0.74085170  1
  Na  Na9  1  0.52319203  0.70289916  0.57259792  1
  Na  Na10  1  0.32504196  0.96108772  0.58737960  1
  Na  Na11  1  0.82469540  0.95739258  0.58679211  1
  Na  Na12  1  0.15372063  0.97989395  0.07710739  1
  Na  Na13  1  0.65356059  0.97880764  0.07675056  1
  Na  Na14  1  0.32689414  0.68592603  0.09065977  1
  Na  Na15  1  0.82639005  0.68642474  0.09123943  1
  Na  Na16  1  0.65725675  0.01869531  0.42332274  1
  Na  Na17  1  0.35668173  0.67445014  0.41004467  1
  Na  Na18  1  0.01955993  0.00439381  0.49276996  1
  Na  Na19  1  0.51267458  0.01429830  0.49112412  1
  Na  Na20  1  0.01059788  0.02934613  0.99231607  1
  Na  Na21  1  0.51067848  0.02898740  0.99160750  1
  Na  Na22  1  0.34542198  0.32243995  0.82326004  1
  Na  Na23  1  0.83290196  0.31769618  0.82699688  1
  Na  Na24  1  0.34399729  0.33842602  0.32830666  1
  Na  Na25  1  0.83933182  0.34482139  0.32410606  1
  Na  Na26  1  0.17466095  0.65686574  0.15887697  1
  Na  Na27  1  0.67523571  0.65688674  0.16161066  1
  Na  Na28  1  0.16891091  0.67858598  0.65266572  1
  Na  Na29  1  0.66866745  0.66594903  0.65426302  1
  La  La30  1  0.00543735  0.99933694  0.64759787  1
  La  La31  1  0.50469699  0.01107210  0.65143635  1
  La  La32  1  0.99543045  0.00941077  0.15248256  1
  La  La33  1  0.49609343  0.00989520  0.15189591  1
  La  La34  1  0.33059517  0.33070964  0.98125592  1
  La  La35  1  0.83071451  0.33175562  0.98106705  1
  La  La36  1  0.32834911  0.32772079  0.48121164  1
  La  La37  1  0.83160423  0.34090739  0.48514448  1
  La  La38  1  0.17466518  0.67654299  0.31625872  1
  La  La39  1  0.67090945  0.66973274  0.32055163  1
  La  La40  1  0.17328085  0.68043596  0.82224776  1
  La  La41  1  0.66666300  0.67049944  0.81921504  1
  Zn  Zn42  1  0.98245725  0.96451602  0.34742877  1
  Zn  Zn43  1  0.49139402  0.95376642  0.34788573  1
  Zn  Zn44  1  0.98557177  0.00942414  0.84971153  1
  Zn  Zn45  1  0.48811932  0.01568429  0.84842099  1
  Zn  Zn46  1  0.33434813  0.26663801  0.67617912  1
  Zn  Zn47  1  0.83152016  0.27905531  0.67475529  1
  Zn  Zn48  1  0.32961188  0.37304656  0.17954333  1
  Zn  Zn49  1  0.82791167  0.37198357  0.17951160  1
  Zn  Zn50  1  0.16019229  0.61507135  0.01591765  1
  Zn  Zn51  1  0.65942670  0.61523830  0.01642674  1
  Zn  Zn52  1  0.15479317  0.69149789  0.51686375  1
  Zn  Zn53  1  0.66198474  0.70218738  0.51054923  1
  Si  Si54  1  0.35042679  0.68736000  0.24843805  1
  Si  Si55  1  0.85075799  0.68983107  0.24750778  1
  Si  Si56  1  0.35268044  0.00819917  0.74936668  1
  Si  Si57  1  0.85377521  0.00906580  0.74823108  1
  Si  Si58  1  0.18325487  0.01861595  0.58424352  1
  Si  Si59  1  0.68256000  0.01909739  0.58242880  1
  Si  Si60  1  0.18394890  0.33909774  0.08533828  1
  Si  Si61  1  0.68389438  0.33951822  0.08488758  1
  Si  Si62  1  0.51668934  0.67812274  0.41490834  1
  S  S63  1  0.14931142  0.01046106  0.25074935  1
  S  S64  1  0.65212029  0.01052841  0.25083442  1
  S  S65  1  0.99478206  0.29839022  0.25516266  1
  S  S66  1  0.49549860  0.29845956  0.25439986  1
  S  S67  1  0.15032534  0.29346004  0.75501542  1
  S  S68  1  0.65497552  0.29560089  0.75479363  1
  S  S69  1  0.99513022  0.69625112  0.75489040  1
  S  S70  1  0.49473482  0.69958189  0.75253352  1
  S  S71  1  0.48429770  0.34689583  0.58478455  1
  S  S72  1  0.98648380  0.34821402  0.58590543  1
  S  S73  1  0.32887602  0.63093089  0.58651338  1
  S  S74  1  0.82594593  0.63017441  0.58822110  1
  S  S75  1  0.48766258  0.62910159  0.08552926  1
  S  S76  1  0.98796685  0.62958682  0.08551148  1
  S  S77  1  0.32536301  0.02741339  0.08463464  1
  S  S78  1  0.82573250  0.02833788  0.08447058  1
  S  S79  1  0.32428675  0.68531644  0.91857988  1
  S  S80  1  0.82295536  0.68519938  0.91721676  1
  S  S81  1  0.01985957  0.35711773  0.91577449  1
  S  S82  1  0.51981701  0.35571155  0.91809301  1
  S  S83  1  0.15637700  0.96346348  0.91895126  1
  S  S84  1  0.65738843  0.96230651  0.91834487  1
  S  S85  1  0.32142928  0.95922585  0.42076664  1
  S  S86  1  0.82436471  0.96783725  0.42022696  1
  S  S87  1  0.15737549  0.36222873  0.41782667  1
  S  S88  1  0.66067034  0.35734001  0.41752399  1
  S  S89  1  0.02031595  0.68286375  0.41534490  1
  O  O90  1  0.10479911  0.03044050  0.29869534  1
  O  O91  1  0.60917198  0.02881238  0.30102339  1
  O  O92  1  0.40544200  0.78058777  0.30424611  1
  O  O93  1  0.91479183  0.78847099  0.29866813  1
  O  O94  1  0.49066558  0.19777686  0.30275664  1
  O  O95  1  0.99002300  0.19720171  0.30353707  1
  O  O96  1  0.10734314  0.18651125  0.80374232  1
  O  O97  1  0.60892751  0.19139720  0.80318162  1
  O  O98  1  0.48907322  0.79308993  0.80044361  1
  O  O99  1  0.98860251  0.78457551  0.80384484  1
  O  O100  1  0.40806900  0.02074186  0.80293691  1
  O  O101  1  0.91605978  0.04478038  0.80071040  1
  O  O102  1  0.38637610  0.97409350  0.68962362  1
  O  O103  1  0.88765081  0.97087035  0.68991034  1
  O  O104  1  0.10232230  0.22380546  0.70254736  1
  O  O105  1  0.61021848  0.22887067  0.70138668  1
  O  O106  1  0.01309832  0.79624225  0.70269728  1
  O  O107  1  0.50972352  0.79394941  0.69847803  1
  O  O108  1  0.38829977  0.78476011  0.18893034  1
  O  O109  1  0.88643180  0.78083549  0.18629427  1
  O  O110  1  0.01291479  0.23599457  0.20210545  1
  O  O111  1  0.51039128  0.23190333  0.20099207  1
  O  O112  1  0.10389061  0.98747761  0.19660794  1
  O  O113  1  0.60383094  0.99000326  0.19855173  1
  O  O114  1  0.44251714  0.36693041  0.63561814  1
  O  O115  1  0.94777093  0.36628358  0.63941684  1
  O  O116  1  0.23456005  0.09705971  0.64372026  1
  O  O117  1  0.73623320  0.10554826  0.64005830  1
  O  O118  1  0.32499214  0.53846633  0.63765178  1
  O  O119  1  0.82469090  0.54169639  0.64041618  1
  O  O120  1  0.44850272  0.53303500  0.13776665  1
  O  O121  1  0.94906314  0.53422035  0.13799745  1
  O  O122  1  0.32343360  0.11791036  0.13449154  1
  O  O123  1  0.82391909  0.11872973  0.13443199  1
  O  O124  1  0.23719038  0.37024597  0.14370863  1
  O  O125  1  0.73672459  0.37015983  0.14331102  1
  O  O126  1  0.23187008  0.31236925  0.03262789  1
  O  O127  1  0.73193528  0.31255345  0.03219943  1
  O  O128  1  0.43605440  0.54782795  0.03584493  1
  O  O129  1  0.93610174  0.54718608  0.03599812  1
  O  O130  1  0.33829353  0.12333357  0.03215701  1
  O  O131  1  0.83854566  0.12469825  0.03204566  1
  O  O132  1  0.23211177  0.13360336  0.53075985  1
  O  O133  1  0.72606290  0.12534007  0.52528085  1
  O  O134  1  0.34147111  0.55590415  0.53475021  1
  O  O135  1  0.83677681  0.55010448  0.53773693  1
  O  O136  1  0.43604651  0.32701399  0.53362661  1
  O  O137  1  0.93386991  0.32835336  0.53704710  1
  O  O138  1  0.27653763  0.69220820  0.96786008  1
  O  O139  1  0.77723077  0.69261170  0.96746564  1
  O  O140  1  0.07159185  0.45356909  0.96405797  1
  O  O141  1  0.56902959  0.44619018  0.96814269  1
  O  O142  1  0.15328669  0.86487774  0.96857557  1
  O  O143  1  0.65436420  0.86595904  0.96862795  1
  O  O144  1  0.27648935  0.85950583  0.47107877  1
  O  O145  1  0.78289639  0.86875397  0.47173558  1
  O  O146  1  0.15233945  0.45565805  0.46599942  1
  O  O147  1  0.65999866  0.45476104  0.46548104  1
  O  O148  1  0.07070741  0.69106294  0.46429701  1
  O  O149  1  0.57317087  0.70152401  0.47120531  1
  O  O150  1  0.05635046  0.66469409  0.36165576  1
  O  O151  1  0.55833501  0.66091413  0.35653670  1
  O  O152  1  0.27310978  0.88155825  0.36898074  1
  O  O153  1  0.77279895  0.89086621  0.36975719  1
  O  O154  1  0.16762104  0.45359829  0.36335213  1
  O  O155  1  0.67155700  0.44386868  0.36267037  1
  O  O156  1  0.05478493  0.44457805  0.86140734  1
  O  O157  1  0.55742639  0.44981284  0.86567763  1
  O  O158  1  0.16436485  0.88695364  0.86532988  1
  O  O159  1  0.66551898  0.88381194  0.86534876  1
  O  O160  1  0.27799648  0.66226946  0.86511165  1
  O  O161  1  0.77607542  0.66504263  0.86435998  1
  O  O162  1  0.01472130  0.83489008  0.41385090  1
  O  O163  1  0.51418036  0.85319512  0.41340669  1
  O  O164  1  0.40118050  0.96351503  0.41649056  1
  O  O165  1  0.90612450  0.98380465  0.41348989  1
  O  O166  1  0.08589066  0.19478797  0.41447393  1
  O  O167  1  0.58625960  0.19188403  0.41616979  1
  O  O168  1  0.01448768  0.19434828  0.91515858  1
  O  O169  1  0.51492256  0.19344003  0.91546774  1
  O  O170  1  0.08250249  0.97884323  0.91608778  1
  O  O171  1  0.58371859  0.97826751  0.91514133  1
  O  O172  1  0.40527254  0.83765407  0.91559131  1
  O  O173  1  0.90467404  0.83764204  0.91389421  1
  O  O174  1  0.48941226  0.19468990  0.58871464  1
  O  O175  1  0.98946858  0.19340288  0.58843247  1
  O  O176  1  0.09084786  0.99217298  0.58424046  1
  O  O177  1  0.58785347  0.98316165  0.58511961  1
  O  O178  1  0.40410957  0.80221222  0.58739360  1
  O  O179  1  0.89767748  0.80269623  0.58690416  1
  O  O180  1  0.49535862  0.79627268  0.08835570  1
  O  O181  1  0.99582967  0.79679716  0.08800958  1
  O  O182  1  0.39386886  0.98902876  0.08574273  1
  O  O183  1  0.89444397  0.99064303  0.08542108  1
  O  O184  1  0.09426256  0.16880176  0.08598125  1
  O  O185  1  0.59452383  0.16867424  0.08549478  1
  O  O186  1  0.33943524  0.16878607  0.74730409  1
  O  O187  1  0.84615507  0.17843463  0.74424365  1
  O  O188  1  0.23394590  0.31728903  0.74942650  1
  O  O189  1  0.73715587  0.30853666  0.75122866  1
  O  O190  1  0.41820941  0.53878454  0.74823086  1
  O  O191  1  0.91767552  0.53455217  0.74881242  1
  O  O192  1  0.34703310  0.50679558  0.24782106  1
  O  O193  1  0.84669730  0.50766743  0.24722434  1
  O  O194  1  0.42232763  0.31633421  0.24937383  1
  O  O195  1  0.92086344  0.31281589  0.24958212  1
  O  O196  1  0.23254981  0.15639039  0.24673298  1
  O  O197  1  0.73409098  0.16028675  0.24662037  1
  O  O198  1  0.33470222  0.53931173  0.92188185  1
  O  O199  1  0.83352959  0.53889206  0.91976157  1
  O  O200  1  0.43674027  0.33476564  0.92175549  1
  O  O201  1  0.93705900  0.33752653  0.92061776  1
  O  O202  1  0.23277861  0.12896896  0.91926464  1
  O  O203  1  0.73400478  0.12869600  0.91812083  1
  O  O204  1  0.33428595  0.12733561  0.42150438  1
  O  O205  1  0.83117708  0.13279725  0.42352157  1
  O  O206  1  0.23589849  0.35681976  0.42015072  1
  O  O207  1  0.73344408  0.32924750  0.41935038  1
  O  O208  1  0.42158450  0.52571196  0.41774519  1
  O  O209  1  0.93690379  0.53471232  0.41995738  1
  O  O210  1  0.18274517  0.51350562  0.07804369  1
  O  O211  1  0.68300338  0.51408144  0.07798921  1
  O  O212  1  0.07214963  0.65498322  0.07870972  1
  O  O213  1  0.57199282  0.65540769  0.07883384  1
  O  O214  1  0.24643320  0.86621571  0.08111395  1
  O  O215  1  0.74686500  0.86713086  0.08097197  1
  O  O216  1  0.18281395  0.84223042  0.57876584  1
  O  O217  1  0.67930732  0.83888983  0.57903016  1
  O  O218  1  0.25565875  0.64903953  0.58170668  1
  O  O219  1  0.75037004  0.64038937  0.58377924  1
  O  O220  1  0.06898086  0.49286273  0.57976352  1
  O  O221  1  0.56631326  0.49552985  0.58145228  1
  O  O222  1  0.15320103  0.85578125  0.25583018  1
  O  O223  1  0.65814116  0.85923653  0.25434266  1
  O  O224  1  0.25452408  0.64857225  0.25139937  1
  O  O225  1  0.75585847  0.65284703  0.25281162  1
  O  O226  1  0.06749336  0.47165242  0.25888100  1
  O  O227  1  0.57018671  0.46964366  0.25638617  1
  O  O228  1  0.15825008  0.46089300  0.75971054  1
  O  O229  1  0.67007025  0.46806407  0.75845316  1
  O  O230  1  0.06500284  0.66224024  0.75936561  1
  O  O231  1  0.56841092  0.67870241  0.75698231  1
  O  O232  1  0.25777537  0.84217411  0.75390775  1
  O  O233  1  0.75940165  0.84903560  0.75568818  1
