# generated using pymatgen
data_Na3Hf2Nb2Si3(PO8)3
_symmetry_space_group_name_H-M   'P 1'
_cell_length_a   8.94305421
_cell_length_b   8.89661798
_cell_length_c   22.97475947
_cell_angle_alpha   90.00012932
_cell_angle_beta   90.06105007
_cell_angle_gamma   119.85250241
_symmetry_Int_Tables_number   1
_chemical_formula_structural   Na3Hf2Nb2Si3(PO8)3
_chemical_formula_sum   'Na9 Hf6 Nb6 Si9 P9 O72'
_cell_volume   1585.38830475
_cell_formula_units_Z   3
loop_
 _symmetry_equiv_pos_site_id
 _symmetry_equiv_pos_as_xyz
  1  'x, y, z'
loop_
 _atom_site_type_symbol
 _atom_site_label
 _atom_site_symmetry_multiplicity
 _atom_site_fract_x
 _atom_site_fract_y
 _atom_site_fract_z
 _atom_site_occupancy
  Na  Na0  1  0.99955467  0.63448877  0.25063683  1
  Na  Na1  1  0.66562774  0.96655886  0.58379016  1
  Na  Na2  1  0.66713725  0.69889912  0.08273957  1
  Na  Na3  1  0.00730212  0.00015387  0.50012867  1
  Na  Na4  1  0.00549067  0.00488299  0.99874245  1
  Na  Na5  1  0.66688283  0.33372466  0.83327940  1
  Na  Na6  1  0.66256035  0.32970113  0.33377080  1
  Na  Na7  1  0.33333069  0.66665571  0.16666657  1
  Na  Na8  1  0.32853231  0.66444497  0.66757656  1
  Hf  Hf9  1  0.00619250  0.99701994  0.64810497  1
  Hf  Hf10  1  0.00124466  0.00106105  0.14664607  1
  Hf  Hf11  1  0.66549055  0.33231199  0.18668691  1
  Hf  Hf12  1  0.32631343  0.66414940  0.01801011  1
  Hf  Hf13  1  0.32935997  0.66854284  0.51878792  1
  Hf  Hf14  1  0.33978255  0.66944198  0.31540192  1
  Nb  Nb15  1  0.99290625  0.99219080  0.35555725  1
  Nb  Nb16  1  0.98977732  0.99433018  0.85397967  1
  Nb  Nb17  1  0.66621447  0.32960024  0.68935165  1
  Nb  Nb18  1  0.67379350  0.34063401  0.97729226  1
  Nb  Nb19  1  0.66331218  0.33124254  0.47763915  1
  Nb  Nb20  1  0.33185101  0.66509903  0.81279595  1
  Si  Si21  1  0.70505432  0.70951122  0.24907126  1
  Si  Si22  1  0.00062975  0.70911255  0.75044458  1
  Si  Si23  1  0.70914570  0.99656255  0.74889286  1
  Si  Si24  1  0.37436494  0.04498379  0.58316035  1
  Si  Si25  1  0.96157409  0.62370155  0.08419875  1
  Si  Si26  1  0.62038663  0.66700621  0.91739443  1
  Si  Si27  1  0.04525329  0.37545250  0.91617681  1
  Si  Si28  1  0.62330255  0.95655295  0.41763582  1
  Si  Si29  1  0.04248165  0.66471348  0.41580946  1
  P  P30  1  0.28886518  0.00158638  0.25110852  1
  P  P31  1  0.00055392  0.28793957  0.25069292  1
  P  P32  1  0.28800876  0.28815240  0.75059147  1
  P  P33  1  0.95438718  0.33563121  0.58332607  1
  P  P34  1  0.66606975  0.61895973  0.58338445  1
  P  P35  1  0.66583797  0.04506733  0.08270505  1
  P  P36  1  0.37794678  0.33202659  0.08225174  1
  P  P37  1  0.33316404  0.95725696  0.91624945  1
  P  P38  1  0.33134000  0.37421680  0.41701832  1
  O  O39  1  0.20156053  0.02851555  0.30461289  1
  O  O40  1  0.83736878  0.80642356  0.30514558  1
  O  O41  1  0.97499856  0.17421872  0.30433282  1
  O  O42  1  0.20548675  0.17439953  0.80466141  1
  O  O43  1  0.97164763  0.80398480  0.80704138  1
  O  O44  1  0.83425024  0.03122623  0.80606447  1
  O  O45  1  0.79232619  0.96920786  0.69031767  1
  O  O46  1  0.17774167  0.20936566  0.69583502  1
  O  O47  1  0.03466816  0.82809879  0.69355931  1
  O  O48  1  0.79810836  0.82672989  0.19159316  1
  O  O49  1  0.02902641  0.20551829  0.19579120  1
  O  O50  1  0.17391441  0.96930552  0.19648054  1
  O  O51  1  0.86595948  0.36156995  0.63808383  1
  O  O52  1  0.50503667  0.14187630  0.63923200  1
  O  O53  1  0.64227986  0.50592191  0.63771923  1
  O  O54  1  0.86847093  0.50656994  0.14162467  1
  O  O55  1  0.63762253  0.12780625  0.13740505  1
  O  O56  1  0.49276967  0.36394812  0.13675025  1
  O  O57  1  0.46592209  0.30494029  0.02843128  1
  O  O58  1  0.82841299  0.52596780  0.02782745  1
  O  O59  1  0.69173599  0.15986508  0.02874686  1
  O  O60  1  0.47725773  0.16905825  0.52712790  1
  O  O61  1  0.69419450  0.53394032  0.52922855  1
  O  O62  1  0.83700965  0.30490660  0.52966771  1
  O  O63  1  0.54409233  0.70082987  0.97631605  1
  O  O64  1  0.16060092  0.46151904  0.97317371  1
  O  O65  1  0.30224759  0.84484636  0.97041465  1
  O  O66  1  0.54502598  0.84174874  0.47623218  1
  O  O67  1  0.30213142  0.45654719  0.47147193  1
  O  O68  1  0.16174544  0.69931599  0.47292444  1
  O  O69  1  0.12099037  0.63160064  0.35660437  1
  O  O70  1  0.50546810  0.87297635  0.36038300  1
  O  O71  1  0.36538201  0.48869211  0.36242170  1
  O  O72  1  0.13512567  0.50045425  0.85947385  1
  O  O73  1  0.36335513  0.87045114  0.86206933  1
  O  O74  1  0.49928432  0.63781481  0.86028881  1
  O  O75  1  0.02414325  0.83955676  0.40756080  1
  O  O76  1  0.81785054  0.98392282  0.40725587  1
  O  O77  1  0.17340456  0.19403663  0.40792962  1
  O  O78  1  0.02452581  0.18443965  0.90706527  1
  O  O79  1  0.17331713  0.97833132  0.90760583  1
  O  O80  1  0.81527512  0.83417537  0.90778921  1
  O  O81  1  0.96400326  0.16752130  0.58944412  1
  O  O82  1  0.18679555  0.02855300  0.58792328  1
  O  O83  1  0.82502094  0.80448986  0.58915559  1
  O  O84  1  0.96715184  0.81037557  0.08837442  1
  O  O85  1  0.82869379  0.02522124  0.08881328  1
  O  O86  1  0.19751161  0.17283242  0.08937699  1
  O  O87  1  0.68961495  0.17106946  0.74201738  1
  O  O88  1  0.47071406  0.31004958  0.74190593  1
  O  O89  1  0.82781961  0.51893144  0.74133912  1
  O  O90  1  0.69928195  0.52279163  0.24491502  1
  O  O91  1  0.83812746  0.30846395  0.24444532  1
  O  O92  1  0.46944825  0.16048148  0.24391086  1
  O  O93  1  0.64034093  0.49306620  0.92454700  1
  O  O94  1  0.85120663  0.35249664  0.92526713  1
  O  O95  1  0.49537774  0.13691226  0.92443860  1
  O  O96  1  0.64749351  0.15104040  0.42619635  1
  O  O97  1  0.49513188  0.35690634  0.42482851  1
  O  O98  1  0.84884705  0.49936195  0.42676609  1
  O  O99  1  0.36765541  0.50003424  0.07657495  1
  O  O100  1  0.15033703  0.64554083  0.07749147  1
  O  O101  1  0.50977650  0.86078170  0.07674225  1
  O  O102  1  0.36909770  0.85907811  0.57821307  1
  O  O103  1  0.50567163  0.64066671  0.57772278  1
  O  O104  1  0.13474716  0.49390517  0.57745600  1
  O  O105  1  0.29929155  0.83303458  0.25668845  1
  O  O106  1  0.51593051  0.68777782  0.25596115  1
  O  O107  1  0.15739589  0.47294530  0.25650578  1
  O  O108  1  0.31044883  0.47168394  0.75821191  1
  O  O109  1  0.16993374  0.68692730  0.75961660  1
  O  O110  1  0.51770803  0.83023350  0.75985858  1
