# generated using pymatgen
data_Na6Sc3NbSi4(SO12)2
_symmetry_space_group_name_H-M   'P 1'
_cell_length_a   9.12706619
_cell_length_b   9.13804470
_cell_length_c   22.84490504
_cell_angle_alpha   89.80171066
_cell_angle_beta   90.39618446
_cell_angle_gamma   119.96353897
_symmetry_Int_Tables_number   1
_chemical_formula_structural   Na6Sc3NbSi4(SO12)2
_chemical_formula_sum   'Na18 Sc9 Nb3 Si12 S6 O72'
_cell_volume   1650.64442604
_cell_formula_units_Z   3
loop_
 _symmetry_equiv_pos_site_id
 _symmetry_equiv_pos_as_xyz
  1  'x, y, z'
loop_
 _atom_site_type_symbol
 _atom_site_label
 _atom_site_symmetry_multiplicity
 _atom_site_fract_x
 _atom_site_fract_y
 _atom_site_fract_z
 _atom_site_occupancy
  Na  Na0  1  0.62283584  0.99910412  0.25156714  1
  Na  Na1  1  0.63790085  0.62597563  0.75095527  1
  Na  Na2  1  0.00230262  0.36652732  0.74571180  1
  Na  Na3  1  0.29699299  0.34187664  0.58428762  1
  Na  Na4  1  0.02443518  0.69156047  0.58720292  1
  Na  Na5  1  0.67423306  0.96290792  0.57856264  1
  Na  Na6  1  0.29847136  0.95423743  0.08591341  1
  Na  Na7  1  0.67046586  0.70944313  0.07907821  1
  Na  Na8  1  0.02762308  0.33697379  0.08268642  1
  Na  Na9  1  0.97204004  0.68085427  0.91490049  1
  Na  Na10  1  0.32723049  0.29620924  0.91308171  1
  Na  Na11  1  0.68727292  0.67224480  0.41565257  1
  Na  Na12  1  0.99711813  0.01537911  0.49592960  1
  Na  Na13  1  0.98468163  0.99404503  0.99533197  1
  Na  Na14  1  0.65546229  0.32678069  0.83000235  1
  Na  Na15  1  0.64736566  0.31990149  0.33052591  1
  Na  Na16  1  0.32179203  0.67390569  0.16883232  1
  Na  Na17  1  0.32642377  0.65950861  0.66564595  1
  Sc  Sc18  1  0.02304727  0.02138208  0.35334414  1
  Sc  Sc19  1  0.00642472  0.99723783  0.85279873  1
  Sc  Sc20  1  0.00511088  0.00304869  0.65057053  1
  Sc  Sc21  1  0.00221499  0.98604924  0.14981105  1
  Sc  Sc22  1  0.67146270  0.34956998  0.68569978  1
  Sc  Sc23  1  0.66518271  0.32523218  0.18536953  1
  Sc  Sc24  1  0.33509039  0.67595000  0.01584810  1
  Sc  Sc25  1  0.34091975  0.65485183  0.51526562  1
  Sc  Sc26  1  0.34131075  0.67712828  0.31730316  1
  Nb  Nb27  1  0.68368490  0.33504330  0.97623783  1
  Nb  Nb28  1  0.67333406  0.33291250  0.47765785  1
  Nb  Nb29  1  0.32317394  0.66109948  0.81740844  1
  Si  Si30  1  0.29680216  0.99904252  0.24994458  1
  Si  Si31  1  0.29628283  0.29196897  0.75106429  1
  Si  Si32  1  0.00433005  0.71017464  0.75013309  1
  Si  Si33  1  0.96063031  0.33487383  0.58523609  1
  Si  Si34  1  0.66819981  0.62836638  0.58278606  1
  Si  Si35  1  0.95833674  0.62303054  0.08490590  1
  Si  Si36  1  0.66773733  0.03957332  0.08496765  1
  Si  Si37  1  0.62659206  0.67072154  0.91878969  1
  Si  Si38  1  0.04458432  0.36931274  0.91924286  1
  Si  Si39  1  0.33696184  0.96115015  0.91768144  1
  Si  Si40  1  0.62989448  0.95882473  0.41699572  1
  Si  Si41  1  0.33214663  0.37253487  0.41658067  1
  S  S42  1  0.70704505  0.70505676  0.25075394  1
  S  S43  1  0.00259289  0.29372926  0.24912467  1
  S  S44  1  0.70524991  0.99822963  0.75018124  1
  S  S45  1  0.37962649  0.04548415  0.58271844  1
  S  S46  1  0.37748032  0.33357821  0.08310897  1
  S  S47  1  0.04146377  0.66683807  0.41747083  1
  O  O48  1  0.19627348  0.02158256  0.30456609  1
  O  O49  1  0.80937631  0.78619661  0.30341713  1
  O  O50  1  0.97103281  0.18228311  0.30055559  1
  O  O51  1  0.20407394  0.18537290  0.80903267  1
  O  O52  1  0.96384436  0.78857701  0.80706199  1
  O  O53  1  0.81333028  0.02707629  0.80149231  1
  O  O54  1  0.77927661  0.96755899  0.69619967  1
  O  O55  1  0.17526860  0.21771702  0.69210496  1
  O  O56  1  0.03152191  0.81952337  0.69021000  1
  O  O57  1  0.78551871  0.81353922  0.19720348  1
  O  O58  1  0.02263160  0.21400941  0.19509885  1
  O  O59  1  0.18524788  0.97725637  0.18942097  1
  O  O60  1  0.86910865  0.35827463  0.64222035  1
  O  O61  1  0.48468211  0.12038157  0.63507584  1
  O  O62  1  0.62923858  0.50707693  0.63973953  1
  O  O63  1  0.85869132  0.49874859  0.13828860  1
  O  O64  1  0.63154026  0.12568252  0.14072960  1
  O  O65  1  0.48443100  0.36095053  0.13481017  1
  O  O66  1  0.45310203  0.30441366  0.02961633  1
  O  O67  1  0.83317404  0.52828135  0.02507200  1
  O  O68  1  0.69130686  0.17125332  0.02800569  1
  O  O69  1  0.46004959  0.15398839  0.53007006  1
  O  O70  1  0.69319356  0.52554770  0.52650212  1
  O  O71  1  0.82879983  0.30738506  0.52884596  1
  O  O72  1  0.53834834  0.68797475  0.97698613  1
  O  O73  1  0.15658577  0.45599415  0.97657604  1
  O  O74  1  0.29830845  0.84472466  0.97509721  1
  O  O75  1  0.54119402  0.84847939  0.47593748  1
  O  O76  1  0.30751889  0.45272918  0.47706013  1
  O  O77  1  0.13894278  0.68993262  0.47168645  1
  O  O78  1  0.11684541  0.63620993  0.36602543  1
  O  O79  1  0.51348431  0.88194546  0.35825888  1
  O  O80  1  0.37619597  0.50140412  0.36180851  1
  O  O81  1  0.13025775  0.49879396  0.86083422  1
  O  O82  1  0.36424649  0.86126899  0.86121439  1
  O  O83  1  0.49957680  0.63485866  0.86012829  1
  O  O84  1  0.00898752  0.80952034  0.41086560  1
  O  O85  1  0.81153937  0.96702643  0.40949230  1
  O  O86  1  0.17081887  0.18323287  0.41319568  1
  O  O87  1  0.02350733  0.18724833  0.90940752  1
  O  O88  1  0.17159844  0.98229526  0.91050777  1
  O  O89  1  0.81653073  0.82463418  0.91078563  1
  O  O90  1  0.97612062  0.16323380  0.58607972  1
  O  O91  1  0.20935253  0.03149026  0.58687512  1
  O  O92  1  0.84124125  0.81338783  0.58639119  1
  O  O93  1  0.97234458  0.81043993  0.08618211  1
  O  O94  1  0.84423441  0.03392562  0.08790389  1
  O  O95  1  0.20503535  0.18097869  0.08867533  1
  O  O96  1  0.68645595  0.14925097  0.74299329  1
  O  O97  1  0.48780871  0.32280122  0.74585899  1
  O  O98  1  0.84133574  0.51519398  0.74607890  1
  O  O99  1  0.68861630  0.53640279  0.24326230  1
  O  O100  1  0.84520847  0.30656097  0.24449527  1
  O  O101  1  0.48940024  0.16685493  0.24589063  1
  O  O102  1  0.63391926  0.48941958  0.92441386  1
  O  O103  1  0.86047241  0.36894146  0.92159685  1
  O  O104  1  0.50298600  0.15320273  0.92495973  1
  O  O105  1  0.64777591  0.15044883  0.42741439  1
  O  O106  1  0.51160609  0.36204014  0.42752739  1
  O  O107  1  0.86438501  0.50964162  0.42272966  1
  O  O108  1  0.35807573  0.48553257  0.07804374  1
  O  O109  1  0.14349687  0.63819785  0.07894829  1
  O  O110  1  0.50183419  0.85136272  0.07898531  1
  O  O111  1  0.35542785  0.87295244  0.57556474  1
  O  O112  1  0.50057097  0.65132898  0.57892400  1
  O  O113  1  0.14230625  0.50966368  0.57743389  1
  O  O114  1  0.32124194  0.83052955  0.25396603  1
  O  O115  1  0.53737479  0.69348968  0.25414269  1
  O  O116  1  0.15291102  0.46270588  0.25634923  1
  O  O117  1  0.31665654  0.48888349  0.75843351  1
  O  O118  1  0.17423379  0.68505136  0.75779161  1
  O  O119  1  0.53620880  0.84040399  0.75601048  1
