# generated using pymatgen
data_Na14Zn4In4Si5S7O48
_symmetry_space_group_name_H-M   'P 1'
_cell_length_a   18.42034914
_cell_length_b   9.15646238
_cell_length_c   22.60017363
_cell_angle_alpha   90.03448637
_cell_angle_beta   90.45227155
_cell_angle_gamma   119.84700985
_symmetry_Int_Tables_number   1
_chemical_formula_structural   Na14Zn4In4Si5S7O48
_chemical_formula_sum   'Na42 Zn12 In12 Si15 S21 O144'
_cell_volume   3306.09999075
_cell_formula_units_Z   3
loop_
 _symmetry_equiv_pos_site_id
 _symmetry_equiv_pos_as_xyz
  1  'x, y, z'
loop_
 _atom_site_type_symbol
 _atom_site_label
 _atom_site_symmetry_multiplicity
 _atom_site_fract_x
 _atom_site_fract_y
 _atom_site_fract_z
 _atom_site_occupancy
  Na  Na0  1  0.80888892  0.99519456  0.25066156  1
  Na  Na1  1  0.18514692  0.35807579  0.25148339  1
  Na  Na2  1  0.68357363  0.35932577  0.25184444  1
  Na  Na3  1  0.00234398  0.64548301  0.24533621  1
  Na  Na4  1  0.50768593  0.64550170  0.24227694  1
  Na  Na5  1  0.31775825  0.62245774  0.75262880  1
  Na  Na6  1  0.00749797  0.36872253  0.74277196  1
  Na  Na7  1  0.50157838  0.37193509  0.74522950  1
  Na  Na8  1  0.18675167  0.01391144  0.75087518  1
  Na  Na9  1  0.67452364  0.99630120  0.74942684  1
  Na  Na10  1  0.14644722  0.32632788  0.58396745  1
  Na  Na11  1  0.65042273  0.32409351  0.58259215  1
  Na  Na12  1  0.33059443  0.97653613  0.58957059  1
  Na  Na13  1  0.83248351  0.98511243  0.58510831  1
  Na  Na14  1  0.15346508  0.98098396  0.07663182  1
  Na  Na15  1  0.64447174  0.96368164  0.07892587  1
  Na  Na16  1  0.33417496  0.68148815  0.08088242  1
  Na  Na17  1  0.82853430  0.68282283  0.08415217  1
  Na  Na18  1  0.48376784  0.67640275  0.91726012  1
  Na  Na19  1  0.98902452  0.67737708  0.91590872  1
  Na  Na20  1  0.34596437  0.03590116  0.91219282  1
  Na  Na21  1  0.84431647  0.03156349  0.91259485  1
  Na  Na22  1  0.16904470  0.28314725  0.91465087  1
  Na  Na23  1  0.66348987  0.28075323  0.91481441  1
  Na  Na24  1  0.48932484  0.30157060  0.41942589  1
  Na  Na25  1  0.98441845  0.29646579  0.42881929  1
  Na  Na26  1  0.16808192  0.05197929  0.42096139  1
  Na  Na27  1  0.66868966  0.05527150  0.41913181  1
  Na  Na28  1  0.34677986  0.65683169  0.41726177  1
  Na  Na29  1  0.84350336  0.65338019  0.41695223  1
  Na  Na30  1  0.00921915  0.01365082  0.50522123  1
  Na  Na31  1  0.51102232  0.00555446  0.50156463  1
  Na  Na32  1  0.01155117  0.01801469  0.99666369  1
  Na  Na33  1  0.50925123  0.00411211  -0.00002337  1
  Na  Na34  1  0.32932400  0.33435764  0.82898075  1
  Na  Na35  1  0.82187720  0.32808206  0.83176116  1
  Na  Na36  1  0.32457711  0.31734823  0.33363972  1
  Na  Na37  1  0.82061034  0.32361625  0.33584325  1
  Na  Na38  1  0.16909519  0.66905334  0.16435356  1
  Na  Na39  1  0.65416154  0.65068626  0.16327502  1
  Na  Na40  1  0.15673920  0.65827001  0.66611693  1
  Na  Na41  1  0.66034396  0.66767816  0.67049721  1
  Zn  Zn42  1  0.01742556  0.02603388  0.34844462  1
  Zn  Zn43  1  0.51949825  0.03324526  0.34676289  1
  Zn  Zn44  1  0.01744948  0.00334265  0.84608671  1
  Zn  Zn45  1  0.52087804  0.98863189  0.84030243  1
  Zn  Zn46  1  0.32443361  0.33012583  0.68666311  1
  Zn  Zn47  1  0.81205571  0.30825840  0.17891861  1
  Zn  Zn48  1  0.32495275  0.33192323  0.98931960  1
  Zn  Zn49  1  0.81744872  0.30594744  0.98559971  1
  Zn  Zn50  1  0.31811190  0.33266904  0.48965503  1
  Zn  Zn51  1  0.82545746  0.31988689  0.49317987  1
  Zn  Zn52  1  0.66522986  0.66539347  0.31970947  1
  Zn  Zn53  1  0.16864630  0.66988487  0.81806401  1
  In  In54  1  0.00931334  0.01720192  0.64892170  1
  In  In55  1  0.51203729  0.00318265  0.65402891  1
  In  In56  1  0.00938501  0.00902061  0.15049475  1
  In  In57  1  0.50929968  0.00155072  0.14793542  1
  In  In58  1  0.82772721  0.32397568  0.67993696  1
  In  In59  1  0.32845841  0.33061292  0.17882105  1
  In  In60  1  0.16286076  0.65937082  0.01400927  1
  In  In61  1  0.65396034  0.65361379  0.01967268  1
  In  In62  1  0.15588035  0.65648349  0.52193181  1
  In  In63  1  0.66196455  0.66419571  0.51559174  1
  In  In64  1  0.17177809  0.67592763  0.31814370  1
  In  In65  1  0.66592616  0.66783700  0.81531521  1
  Si  Si66  1  0.15182616  0.99801876  0.25086864  1
  Si  Si67  1  0.65210202  0.99389124  0.25318368  1
  Si  Si68  1  0.15000169  0.30962288  0.75377108  1
  Si  Si69  1  0.65288279  0.30590697  0.75080963  1
  Si  Si70  1  0.49472254  0.69024259  0.75155429  1
  Si  Si71  1  0.97721591  0.33177145  0.58321027  1
  Si  Si72  1  0.18832608  0.03902706  0.58368680  1
  Si  Si73  1  0.68097259  0.02748298  0.58012230  1
  Si  Si74  1  0.47710531  0.62173362  0.08349799  1
  Si  Si75  1  0.18128969  0.33636883  0.08182491  1
  Si  Si76  1  0.68603200  0.33987044  0.08273690  1
  Si  Si77  1  0.16792653  0.96130678  0.91606615  1
  Si  Si78  1  0.66887805  0.96452390  0.91722453  1
  Si  Si79  1  0.16764425  0.37331291  0.41553225  1
  Si  Si80  1  0.66817310  0.37551197  0.41492403  1
  S  S81  1  0.35422552  0.71123831  0.25163945  1
  S  S82  1  0.85607836  0.71126323  0.25048312  1
  S  S83  1  0.99775188  0.29538963  0.25110643  1
  S  S84  1  0.49700297  0.29160495  0.25145141  1
  S  S85  1  0.99732358  0.70240741  0.75145529  1
  S  S86  1  0.35401526  0.99827396  0.75050071  1
  S  S87  1  0.85592049  0.99889850  0.75171631  1
  S  S88  1  0.47797664  0.33173287  0.58276902  1
  S  S89  1  0.33678013  0.63476936  0.58262022  1
  S  S90  1  0.83446270  0.63323576  0.58181542  1
  S  S91  1  0.97776078  0.62117834  0.08454757  1
  S  S92  1  0.33396676  0.03502882  0.08223021  1
  S  S93  1  0.83768489  0.04142714  0.08464312  1
  S  S94  1  0.31618482  0.67022146  0.91596363  1
  S  S95  1  0.81713019  0.67027521  0.91794511  1
  S  S96  1  0.01491879  0.36623223  0.91554684  1
  S  S97  1  0.51445529  0.36126703  0.91548003  1
  S  S98  1  0.31813434  0.96666175  0.41790401  1
  S  S99  1  0.81722192  0.96304134  0.41363692  1
  S  S100  1  0.01596616  0.66735353  0.41397363  1
  S  S101  1  0.51521365  0.66440814  0.41458111  1
  O  O102  1  0.11053461  0.03430918  0.30843675  1
  O  O103  1  0.61290163  0.03605673  0.31062970  1
  O  O104  1  0.40329233  0.79693623  0.30550643  1
  O  O105  1  0.90798999  0.79832781  0.30357759  1
  O  O106  1  0.48527942  0.19273772  0.30638687  1
  O  O107  1  0.98313316  0.19054670  0.30468129  1
  O  O108  1  0.10904290  0.19073447  0.81147044  1
  O  O109  1  0.61216158  0.19060626  0.80951863  1
  O  O110  1  0.47265900  0.76282904  0.81122685  1
  O  O111  1  0.98497902  0.77646780  0.80649969  1
  O  O112  1  0.40575642  0.01782703  0.80362274  1
  O  O113  1  0.90594560  0.01362277  0.80521034  1
  O  O114  1  0.39267795  0.97422526  0.69535365  1
  O  O115  1  0.89367724  0.97752383  0.69672379  1
  O  O116  1  0.08946498  0.23335099  0.69448777  1
  O  O117  1  0.59378270  0.23534731  0.69030155  1
  O  O118  1  0.00683848  0.80825161  0.69906865  1
  O  O119  1  0.51629106  0.81592039  0.69541353  1
  O  O120  1  0.39202735  0.80834652  0.19709479  1
  O  O121  1  0.89443430  0.81646731  0.19587659  1
  O  O122  1  0.01084607  0.21461974  0.19848939  1
  O  O123  1  0.50689363  0.20544718  0.19904520  1
  O  O124  1  0.09084922  0.95034970  0.19160526  1
  O  O125  1  0.59257738  0.95358123  0.19412605  1
  O  O126  1  0.43980345  0.35237233  0.63583268  1
  O  O127  1  0.93711807  0.35891289  0.64394975  1
  O  O128  1  0.24808670  0.12458592  0.64166898  1
  O  O129  1  0.73797918  0.10137448  0.64054433  1
  O  O130  1  0.32637488  0.53195822  0.63484238  1
  O  O131  1  0.81963175  0.52506648  0.63381686  1
  O  O132  1  0.43900574  0.51810741  0.14584830  1
  O  O133  1  0.93940614  0.52460198  0.13890998  1
  O  O134  1  0.31837404  0.11115966  0.13542472  1
  O  O135  1  0.82920767  0.12394833  0.13874008  1
  O  O136  1  0.23561386  0.37320097  0.14390691  1
  O  O137  1  0.74351163  0.38249481  0.14324626  1
  O  O138  1  0.22122528  0.29568435  0.02486998  1
  O  O139  1  0.72675186  0.30325414  0.02498463  1
  O  O140  1  0.42067320  0.53308057  0.02468741  1
  O  O141  1  0.92946225  0.53935504  0.03024083  1
  O  O142  1  0.34520422  0.13217904  0.02835001  1
  O  O143  1  0.85136347  0.14258727  0.03075108  1
  O  O144  1  0.22355870  0.14583309  0.52211304  1
  O  O145  1  0.72074480  0.14279076  0.52140109  1
  O  O146  1  0.35025050  0.56213125  0.52721976  1
  O  O147  1  0.84632088  0.55935055  0.52667382  1
  O  O148  1  0.43038599  0.31858989  0.52727981  1
  O  O149  1  0.92361780  0.31118148  0.52247931  1
  O  O150  1  0.27642504  0.69131017  0.97116132  1
  O  O151  1  0.77884536  0.69616051  0.97218943  1
  O  O152  1  0.07093841  0.43908270  0.96863880  1
  O  O153  1  0.57235323  0.43769044  0.96754287  1
  O  O154  1  0.14768511  0.84391733  0.97708728  1
  O  O155  1  0.65482542  0.84946479  0.97633560  1
  O  O156  1  0.27807086  0.86019056  0.47034169  1
  O  O157  1  0.77879161  0.86071639  0.46803897  1
  O  O158  1  0.15228478  0.46485646  0.47226378  1
  O  O159  1  0.64912391  0.45661728  0.47462462  1
  O  O160  1  0.07352470  0.70452558  0.46508103  1
  O  O161  1  0.57161912  0.70261909  0.46697347  1
  O  O162  1  0.05423518  0.63964455  0.35967796  1
  O  O163  1  0.55377123  0.63818268  0.36119722  1
  O  O164  1  0.26177007  0.89423723  0.36492322  1
  O  O165  1  0.76278674  0.88202347  0.36112724  1
  O  O166  1  0.18425979  0.48708285  0.35477867  1
  O  O167  1  0.68237085  0.49414972  0.35664583  1
  O  O168  1  0.05400167  0.47025298  0.86281505  1
  O  O169  1  0.55428917  0.46830516  0.86230340  1
  O  O170  1  0.18130774  0.86766963  0.85881452  1
  O  O171  1  0.68896687  0.88235809  0.85930023  1
  O  O172  1  0.26111570  0.64220380  0.86391410  1
  O  O173  1  0.76003616  0.63415334  0.86618052  1
  O  O174  1  0.00409536  0.81621724  0.40871768  1
  O  O175  1  0.50153433  0.81124002  0.40973945  1
  O  O176  1  0.39960115  0.97220620  0.40970802  1
  O  O177  1  0.90044359  0.97360413  0.40825244  1
  O  O178  1  0.08107136  0.18677103  0.41351265  1
  O  O179  1  0.58090755  0.18725113  0.41370444  1
  O  O180  1  0.00068770  0.19175693  0.91100269  1
  O  O181  1  0.50275758  0.19006858  0.90974680  1
  O  O182  1  0.08070344  0.97534324  0.91397888  1
  O  O183  1  0.58370177  0.98072299  0.91469970  1
  O  O184  1  0.39791108  0.82644808  0.91245243  1
  O  O185  1  0.89928534  0.82693755  0.91046816  1
  O  O186  1  0.48246014  0.17018398  0.58482686  1
  O  O187  1  0.97958650  0.15134410  0.58481895  1
  O  O188  1  0.09444134  0.02097122  0.58725404  1
  O  O189  1  0.59061828  0.02390076  0.58354640  1
  O  O190  1  0.40794203  0.81134508  0.58721262  1
  O  O191  1  0.90705073  0.80433276  0.58928624  1
  O  O192  1  0.48028479  0.80802864  0.08557490  1
  O  O193  1  0.98134977  0.79171321  0.08672872  1
  O  O194  1  0.40660204  0.00905581  0.09048060  1
  O  O195  1  0.90972638  0.00871277  0.09035792  1
  O  O196  1  0.08908851  0.16017865  0.08541870  1
  O  O197  1  0.59378374  0.16822580  0.08665013  1
  O  O198  1  0.34627742  0.15201938  0.74641181  1
  O  O199  1  0.85106441  0.15854068  0.74944693  1
  O  O200  1  0.24117175  0.32057265  0.74762437  1
  O  O201  1  0.74311409  0.30632601  0.74480120  1
  O  O202  1  0.41418826  0.50044028  0.74278908  1
  O  O203  1  0.92442778  0.52900835  0.74676066  1
  O  O204  1  0.34857358  0.54118991  0.24980710  1
  O  O205  1  0.85201790  0.54469852  0.24613664  1
  O  O206  1  0.42399564  0.31872397  0.24711032  1
  O  O207  1  0.92473763  0.32053228  0.24385075  1
  O  O208  1  0.24301446  0.17351504  0.24455933  1
  O  O209  1  0.74669878  0.16475198  0.24689194  1
  O  O210  1  0.32593868  0.51886675  0.91983943  1
  O  O211  1  0.83085555  0.52324321  0.92263592  1
  O  O212  1  0.43339029  0.35480870  0.92244400  1
  O  O213  1  0.93325881  0.36101479  0.92416495  1
  O  O214  1  0.25342217  0.14862476  0.92157233  1
  O  O215  1  0.75533215  0.15265737  0.91921006  1
  O  O216  1  0.33183302  0.14052920  0.42296571  1
  O  O217  1  0.82775380  0.13440114  0.41785471  1
  O  O218  1  0.25360891  0.35781003  0.41888740  1
  O  O219  1  0.75354947  0.35862069  0.42007523  1
  O  O220  1  0.43334238  0.50703963  0.42274700  1
  O  O221  1  0.93383605  0.51271855  0.42045155  1
  O  O222  1  0.17879599  0.51506541  0.07716214  1
  O  O223  1  0.68465847  0.51886705  0.07728869  1
  O  O224  1  0.06635118  0.65601885  0.08216622  1
  O  O225  1  0.57535086  0.66479467  0.08398551  1
  O  O226  1  0.25602244  0.86305734  0.07871293  1
  O  O227  1  0.75973238  0.87393307  0.08042344  1
  O  O228  1  0.18657578  0.85580810  0.57833825  1
  O  O229  1  0.67952441  0.84438408  0.57568403  1
  O  O230  1  0.25784294  0.64451233  0.57752184  1
  O  O231  1  0.75661399  0.64829681  0.57753057  1
  O  O232  1  0.07552142  0.48533172  0.58398715  1
  O  O233  1  0.56703337  0.47595522  0.57991803  1
  O  O234  1  0.15387828  0.81841891  0.25583670  1
  O  O235  1  0.66093116  0.82205932  0.25928411  1
  O  O236  1  0.26617717  0.68075610  0.25270698  1
  O  O237  1  0.77078233  0.68879210  0.25298923  1
  O  O238  1  0.07600968  0.46360163  0.25543490  1
  O  O239  1  0.57538668  0.46000693  0.25435962  1
  O  O240  1  0.15939394  0.49967500  0.75940283  1
  O  O241  1  0.66004736  0.49108327  0.75630008  1
  O  O242  1  0.07576852  0.69199546  0.75441270  1
  O  O243  1  0.58313414  0.68383503  0.75498321  1
  O  O244  1  0.26878307  0.84646284  0.75294162  1
  O  O245  1  0.76893395  0.85395387  0.75326124  1
