# generated using pymatgen
data_Na4MgSi3Sn3(SO8)3
_symmetry_space_group_name_H-M   'P 1'
_cell_length_a   8.95055198
_cell_length_b   8.94091742
_cell_length_c   22.80229600
_cell_angle_alpha   89.90399083
_cell_angle_beta   90.46348052
_cell_angle_gamma   120.13434807
_symmetry_Int_Tables_number   1
_chemical_formula_structural   Na4MgSi3Sn3(SO8)3
_chemical_formula_sum   'Na12 Mg3 Si9 Sn9 S9 O72'
_cell_volume   1578.10435956
_cell_formula_units_Z   3
loop_
 _symmetry_equiv_pos_site_id
 _symmetry_equiv_pos_as_xyz
  1  'x, y, z'
loop_
 _atom_site_type_symbol
 _atom_site_label
 _atom_site_symmetry_multiplicity
 _atom_site_fract_x
 _atom_site_fract_y
 _atom_site_fract_z
 _atom_site_occupancy
  Na  Na0  1  0.63049167  0.00206785  0.24145754  1
  Na  Na1  1  0.37772036  0.35922797  0.25168413  1
  Na  Na2  1  0.99078979  0.64333894  0.24734556  1
  Na  Na3  1  0.99403222  0.35407643  0.75598479  1
  Na  Na4  1  0.38049696  0.01576121  0.75767863  1
  Na  Na5  1  0.69998752  0.67743952  0.40522949  1
  Na  Na6  1  0.00717139  0.02255522  0.48941217  1
  Na  Na7  1  0.00254411  0.01192362  0.00010877  1
  Na  Na8  1  0.65817223  0.32506907  0.83548277  1
  Na  Na9  1  0.64599000  0.31727282  0.32781260  1
  Na  Na10  1  0.35033911  0.68532181  0.16342394  1
  Na  Na11  1  0.35266241  0.66382126  0.67118599  1
  Mg  Mg12  1  0.00428030  0.00528777  0.35223426  1
  Mg  Mg13  1  0.66131192  0.32935843  0.68919712  1
  Mg  Mg14  1  0.65208537  0.31922798  0.18405378  1
  Si  Si15  1  0.28683516  0.00030331  0.25168427  1
  Si  Si16  1  0.70951678  0.70225856  0.25308801  1
  Si  Si17  1  0.30061169  0.29989749  0.74946069  1
  Si  Si18  1  0.70403852  0.99478160  0.75052585  1
  Si  Si19  1  0.66992647  0.03568530  0.08729364  1
  Si  Si20  1  0.04300409  0.38335949  0.91831692  1
  Si  Si21  1  0.32792471  0.96051696  0.91507159  1
  Si  Si22  1  0.63633106  0.96571642  0.41753705  1
  Si  Si23  1  0.32272324  0.36590651  0.41703522  1
  Sn  Sn24  1  0.01385011  0.02596337  0.85651105  1
  Sn  Sn25  1  0.99266454  0.00648833  0.65282819  1
  Sn  Sn26  1  0.98930384  0.98795952  0.14913015  1
  Sn  Sn27  1  0.66848550  0.31145739  0.98027493  1
  Sn  Sn28  1  0.65499984  0.32398898  0.47864327  1
  Sn  Sn29  1  0.33360552  0.67765653  0.01872027  1
  Sn  Sn30  1  0.33976242  0.66419692  0.51403591  1
  Sn  Sn31  1  0.35101489  0.68021803  0.31453476  1
  Sn  Sn32  1  0.34194088  0.66755618  0.81863843  1
  S  S33  1  0.00047927  0.29253575  0.25125617  1
  S  S34  1  0.99628799  0.70770472  0.74919916  1
  S  S35  1  0.96146443  0.33839183  0.58390746  1
  S  S36  1  0.36609097  0.03271911  0.58502719  1
  S  S37  1  0.67104358  0.62717389  0.58456304  1
  S  S38  1  0.95473868  0.62063626  0.08389803  1
  S  S39  1  0.37469770  0.33427401  0.08336879  1
  S  S40  1  0.63120391  0.66493686  0.91871597  1
  S  S41  1  0.04164452  0.66729303  0.41784397  1
  O  O42  1  0.19852122  0.03773195  0.30549757  1
  O  O43  1  0.81898783  0.78455400  0.31224254  1
  O  O44  1  0.96879678  0.18427520  0.30264503  1
  O  O45  1  0.21244629  0.16294405  0.80326402  1
  O  O46  1  0.96860849  0.78551200  0.80128324  1
  O  O47  1  0.83327113  0.02911242  0.80585508  1
  O  O48  1  0.77277447  0.94594577  0.68984611  1
  O  O49  1  0.17034879  0.22166361  0.69008788  1
  O  O50  1  0.03466317  0.82079149  0.69479287  1
  O  O51  1  0.78280045  0.83392208  0.19602835  1
  O  O52  1  0.04210402  0.22446605  0.19738073  1
  O  O53  1  0.16737815  0.95674899  0.19003222  1
  O  O54  1  0.88130608  0.35692825  0.63682954  1
  O  O55  1  0.47287949  0.11353412  0.63696384  1
  O  O56  1  0.65197697  0.51906362  0.63484707  1
  O  O57  1  0.87446472  0.52382264  0.13754916  1
  O  O58  1  0.64289043  0.11622366  0.14575545  1
  O  O59  1  0.47604221  0.35904874  0.13717074  1
  O  O60  1  0.45785267  0.31336534  0.02950344  1
  O  O61  1  0.84745637  0.54114435  0.02984022  1
  O  O62  1  0.70217453  0.14911282  0.02716574  1
  O  O63  1  0.44286059  0.13868187  0.53110341  1
  O  O64  1  0.69296927  0.55226885  0.52847405  1
  O  O65  1  0.85527931  0.31554741  0.52997592  1
  O  O66  1  0.55190523  0.69709986  0.97008744  1
  O  O67  1  0.17130177  0.46923353  0.97462946  1
  O  O68  1  0.30154555  0.84580457  0.97293469  1
  O  O69  1  0.54625026  0.84640585  0.47692022  1
  O  O70  1  0.29093931  0.44857957  0.47761629  1
  O  O71  1  0.14681742  0.69225525  0.47260223  1
  O  O72  1  0.11518273  0.63189997  0.36523430  1
  O  O73  1  0.51193137  0.89103672  0.35923646  1
  O  O74  1  0.36928802  0.49608861  0.35983812  1
  O  O75  1  0.12316584  0.48561908  0.85523439  1
  O  O76  1  0.36688619  0.88341403  0.85437207  1
  O  O77  1  0.52488333  0.63025349  0.86335876  1
  O  O78  1  0.02186347  0.81830383  0.41349932  1
  O  O79  1  0.81436734  0.96783317  0.41376410  1
  O  O80  1  0.16536223  0.17664993  0.41298781  1
  O  O81  1  0.01561851  0.18839420  0.91650612  1
  O  O82  1  0.14667274  0.96188820  0.91043573  1
  O  O83  1  0.80310721  0.82042825  0.91067229  1
  O  O84  1  0.98015314  0.18023827  0.58510900  1
  O  O85  1  0.18934435  0.01193930  0.58927256  1
  O  O86  1  0.82997392  0.80387361  0.58764806  1
  O  O87  1  0.98041725  0.79993264  0.08498945  1
  O  O88  1  0.84863771  0.01928708  0.08734846  1
  O  O89  1  0.19933480  0.17580193  0.08691325  1
  O  O90  1  0.69732129  0.17156457  0.74267251  1
  O  O91  1  0.48366269  0.31359214  0.74141428  1
  O  O92  1  0.84822526  0.53386455  0.73956544  1
  O  O93  1  0.69020881  0.51361051  0.24230174  1
  O  O94  1  0.85095769  0.31785935  0.24252322  1
  O  O95  1  0.48392110  0.16118814  0.24502738  1
  O  O96  1  0.64608316  0.50842705  0.92595548  1
  O  O97  1  0.85653945  0.37564224  0.92084911  1
  O  O98  1  0.49503797  0.15744814  0.91947779  1
  O  O99  1  0.65335216  0.15717919  0.42342292  1
  O  O100  1  0.51862823  0.38254942  0.42430741  1
  O  O101  1  0.86556184  0.50883730  0.42503360  1
  O  O102  1  0.35492117  0.49082293  0.07771186  1
  O  O103  1  0.12853385  0.63375270  0.07963634  1
  O  O104  1  0.49517125  0.83792579  0.07886219  1
  O  O105  1  0.34754965  0.85673645  0.57833290  1
  O  O106  1  0.51295302  0.64530634  0.58125772  1
  O  O107  1  0.13664576  0.49819393  0.57892611  1
  O  O108  1  0.29224171  0.81302260  0.25540027  1
  O  O109  1  0.50944542  0.67769044  0.25277941  1
  O  O110  1  0.15872870  0.47021091  0.25791419  1
  O  O111  1  0.29928674  0.48232085  0.75611510  1
  O  O112  1  0.15647458  0.69399285  0.75295652  1
  O  O113  1  0.50641268  0.83023213  0.75547718  1
