# generated using pymatgen
data_Na2Sc4Al4SiS11O48
_symmetry_space_group_name_H-M   'P 1'
_cell_length_a   17.16341698
_cell_length_b   8.59210734
_cell_length_c   22.41573916
_cell_angle_alpha   90.02320618
_cell_angle_beta   89.99099113
_cell_angle_gamma   120.03777697
_symmetry_Int_Tables_number   1
_chemical_formula_structural   Na2Sc4Al4SiS11O48
_chemical_formula_sum   'Na6 Sc12 Al12 Si3 S33 O144'
_cell_volume   2861.68390059
_cell_formula_units_Z   3
loop_
 _symmetry_equiv_pos_site_id
 _symmetry_equiv_pos_as_xyz
  1  'x, y, z'
loop_
 _atom_site_type_symbol
 _atom_site_label
 _atom_site_symmetry_multiplicity
 _atom_site_fract_x
 _atom_site_fract_y
 _atom_site_fract_z
 _atom_site_occupancy
  Na  Na0  1  0.00126185  0.98334953  0.49473302  1
  Na  Na1  1  0.50199835  0.01579418  0.99982701  1
  Na  Na2  1  0.33910137  0.33420697  0.83570520  1
  Na  Na3  1  0.84031587  0.34798311  0.83186621  1
  Na  Na4  1  0.33156250  0.33030912  0.33314532  1
  Na  Na5  1  0.84179707  0.34613664  0.33241552  1
  Sc  Sc6  1  0.99830490  0.98956061  0.85684692  1
  Sc  Sc7  1  0.49972995  0.00535656  0.85782435  1
  Sc  Sc8  1  0.00073510  0.99299729  0.64752512  1
  Sc  Sc9  1  0.50000369  -0.00002889  0.63968224  1
  Sc  Sc10  1  0.33709656  0.33843540  0.68449259  1
  Sc  Sc11  1  0.83506925  0.34103243  0.68489500  1
  Sc  Sc12  1  0.33708901  0.33379536  0.98271606  1
  Sc  Sc13  1  0.83804224  0.34286693  0.47424086  1
  Sc  Sc14  1  0.66269672  0.65494856  0.02642513  1
  Sc  Sc15  1  0.16138597  0.67253018  0.51538625  1
  Sc  Sc16  1  0.15917261  0.66380544  0.81039056  1
  Sc  Sc17  1  0.66554655  0.66136029  0.81539633  1
  Al  Al18  1  0.00204773  0.99698274  0.34941446  1
  Al  Al19  1  0.50025883  0.00105611  0.35273107  1
  Al  Al20  1  0.99874803  0.99975697  0.14673415  1
  Al  Al21  1  0.50002469  0.00002209  0.15314769  1
  Al  Al22  1  0.32645360  0.32884355  0.18337084  1
  Al  Al23  1  0.84077324  0.34016334  0.18530583  1
  Al  Al24  1  0.83598918  0.33615962  0.98636492  1
  Al  Al25  1  0.33490735  0.33444742  0.47880576  1
  Al  Al26  1  0.16369116  0.66229524  0.02326507  1
  Al  Al27  1  0.66497189  0.66682247  0.51547980  1
  Al  Al28  1  0.16629400  0.66741517  0.31331477  1
  Al  Al29  1  0.66307865  0.66170391  0.31110383  1
  Si  Si30  1  0.99635263  0.70191032  0.74952626  1
  Si  Si31  1  0.51828852  0.37396597  0.91912111  1
  Si  Si32  1  0.02300389  0.67656880  0.40784696  1
  S  S33  1  0.14498605  0.00262844  0.24707441  1
  S  S34  1  0.64393142  0.00026896  0.25259395  1
  S  S35  1  0.35567475  0.71241587  0.25252937  1
  S  S36  1  0.85514884  0.71147036  0.24798781  1
  S  S37  1  0.00083978  0.28430708  0.25045218  1
  S  S38  1  0.49937928  0.28732565  0.24974424  1
  S  S39  1  0.14965431  0.29128067  0.75144856  1
  S  S40  1  0.64397741  0.28950078  0.74859409  1
  S  S41  1  0.50137416  0.71126332  0.75043085  1
  S  S42  1  0.35488656  0.00019901  0.74885441  1
  S  S43  1  0.85353029  0.00163491  0.75138782  1
  S  S44  1  0.48159202  0.34499879  0.57475856  1
  S  S45  1  0.98160929  0.33155855  0.58056185  1
  S  S46  1  0.19200828  0.05210804  0.57723877  1
  S  S47  1  0.68847737  0.02868518  0.57798016  1
  S  S48  1  0.33297415  0.61788746  0.57679709  1
  S  S49  1  0.82489530  0.62807254  0.57765853  1
  S  S50  1  0.47495250  0.63098249  0.09242296  1
  S  S51  1  0.97791101  0.62682386  0.08547607  1
  S  S52  1  0.33357196  0.03524730  0.08874199  1
  S  S53  1  0.84068978  0.05900841  0.08804422  1
  S  S54  1  0.18302625  0.33155926  0.08722895  1
  S  S55  1  0.69091643  0.31938248  0.08928812  1
  S  S56  1  0.30532671  0.66334809  0.92280464  1
  S  S57  1  0.81284179  0.65347908  0.92308671  1
  S  S58  1  0.01860030  0.37965988  0.92508339  1
  S  S59  1  0.16486453  0.94750686  0.92361829  1
  S  S60  1  0.67647181  0.97196149  0.92207124  1
  S  S61  1  0.31723665  0.96439403  0.41149735  1
  S  S62  1  0.80573970  0.93942484  0.41142144  1
  S  S63  1  0.16972857  0.37571126  0.41145742  1
  S  S64  1  0.65824723  0.37741248  0.41128877  1
  S  S65  1  0.52291362  0.67013596  0.41352906  1
  O  O66  1  0.10620223  0.04359966  0.29982047  1
  O  O67  1  0.60273006  0.03772550  0.30546970  1
  O  O68  1  0.41587148  0.79275476  0.30529913  1
  O  O69  1  0.91429998  0.79359351  0.30038237  1
  O  O70  1  0.48162934  0.16834823  0.30202027  1
  O  O71  1  0.98039242  0.16612189  0.30398889  1
  O  O72  1  0.10663618  0.18506167  0.80544527  1
  O  O73  1  0.60110197  0.18314312  0.80289297  1
  O  O74  1  0.48760007  0.78958087  0.80527208  1
  O  O75  1  0.98425560  0.79826738  0.80856393  1
  O  O76  1  0.41019677  0.02795943  0.80260040  1
  O  O77  1  0.90904127  0.03593074  0.80570832  1
  O  O78  1  0.39864635  0.98790234  0.69372759  1
  O  O79  1  0.89858575  0.98930468  0.69714663  1
  O  O80  1  0.09794900  0.21079339  0.69658507  1
  O  O81  1  0.58999036  0.20330997  0.69440282  1
  O  O82  1  0.00740029  0.81173884  0.68814058  1
  O  O83  1  0.50336713  0.81147547  0.69649331  1
  O  O84  1  0.39714216  0.82854296  0.19957242  1
  O  O85  1  0.89549003  0.82381741  0.19394960  1
  O  O86  1  0.01149105  0.19505062  0.19733253  1
  O  O87  1  0.51761667  0.20733097  0.19608358  1
  O  O88  1  0.08704054  0.97019500  0.19405404  1
  O  O89  1  0.58626521  0.96820181  0.19922144  1
  O  O90  1  0.44492351  0.37878981  0.62986012  1
  O  O91  1  0.93816080  0.34877479  0.63474726  1
  O  O92  1  0.24136372  0.13957575  0.63242151  1
  O  O93  1  0.74237645  0.10336116  0.63224836  1
  O  O94  1  0.32119883  0.51454418  0.63220202  1
  O  O95  1  0.81180514  0.52333217  0.63240921  1
  O  O96  1  0.42702213  0.50786633  0.14349559  1
  O  O97  1  0.93883986  0.50966815  0.13940288  1
  O  O98  1  0.31684653  0.12517677  0.14047944  1
  O  O99  1  0.82639066  0.14344793  0.14230068  1
  O  O100  1  0.24447063  0.36961842  0.13999137  1
  O  O101  1  0.74727706  0.34213942  0.14260802  1
  O  O102  1  0.22040323  0.28918230  0.03502072  1
  O  O103  1  0.73054883  0.28873977  0.03467399  1
  O  O104  1  0.42225438  0.56163848  0.03706123  1
  O  O105  1  0.91684185  0.54402124  0.03386091  1
  O  O106  1  0.35597734  0.14884745  0.03505920  1
  O  O107  1  0.85698355  0.17574286  0.03511816  1
  O  O108  1  0.23891417  0.16175776  0.52330197  1
  O  O109  1  0.72974304  0.14588235  0.52578290  1
  O  O110  1  0.34624357  0.52655157  0.52412706  1
  O  O111  1  0.84164168  0.54288741  0.52551776  1
  O  O112  1  0.42125170  0.31275462  0.52279235  1
  O  O113  1  0.92680499  0.31230314  0.52682204  1
  O  O114  1  0.26094337  0.68494962  0.97679193  1
  O  O115  1  0.76805373  0.67535624  0.97574804  1
  O  O116  1  0.07660330  0.47177720  0.97766451  1
  O  O117  1  0.57360858  0.46750028  0.98028007  1
  O  O118  1  0.15825239  0.83997138  0.97756932  1
  O  O119  1  0.66404500  0.86159471  0.97500259  1
  O  O120  1  0.28122557  0.85638502  0.46549941  1
  O  O121  1  0.76573543  0.82826244  0.46559732  1
  O  O122  1  0.15437640  0.44923365  0.46608020  1
  O  O123  1  0.64465941  0.46055710  0.46495847  1
  O  O124  1  0.07703288  0.70671309  0.47066108  1
  O  O125  1  0.58012391  0.70267460  0.46630230  1
  O  O126  1  0.07502071  0.64346225  0.35322860  1
  O  O127  1  0.56140890  0.63082273  0.35965914  1
  O  O128  1  0.25880308  0.88278199  0.35846367  1
  O  O129  1  0.74954756  0.85069126  0.35782932  1
  O  O130  1  0.19170072  0.49744665  0.35912135  1
  O  O131  1  0.67424129  0.49198095  0.35752408  1
  O  O132  1  0.05409781  0.48655697  0.87014976  1
  O  O133  1  0.56503230  0.49001497  0.85967812  1
  O  O134  1  0.18013274  0.87202514  0.86894896  1
  O  O135  1  0.69336591  0.89998910  0.86700307  1
  O  O136  1  0.25757122  0.64904830  0.86749942  1
  O  O137  1  0.76021051  0.62117270  0.86778486  1
  O  O138  1  0.01201032  0.85350139  0.40006517  1
  O  O139  1  0.51441862  0.83176522  0.40342996  1
  O  O140  1  0.40704849  0.98426215  0.40050246  1
  O  O141  1  0.89755192  0.96668723  0.40409863  1
  O  O142  1  0.08731917  0.19968193  0.40026337  1
  O  O143  1  0.57657022  0.19932100  0.40232742  1
  O  O144  1  0.00930760  0.20252549  0.91924656  1
  O  O145  1  0.50791137  0.17534323  0.91688377  1
  O  O146  1  0.08368881  0.96098217  0.92024873  1
  O  O147  1  0.59476871  0.98781921  0.91615102  1
  O  O148  1  0.39776425  0.82020987  0.92123081  1
  O  O149  1  0.90139831  0.81444099  0.91850374  1
  O  O150  1  0.49009426  0.18401371  0.58190966  1
  O  O151  1  0.99002936  0.16925076  0.58246278  1
  O  O152  1  0.10193155  0.03437635  0.57797633  1
  O  O153  1  0.59792419  0.00646099  0.58623593  1
  O  O154  1  0.41468763  0.79508610  0.58179625  1
  O  O155  1  0.90341380  0.81186206  0.58218778  1
  O  O156  1  0.48316122  0.81069270  0.10233888  1
  O  O157  1  0.98644330  0.80488294  0.09651854  1
  O  O158  1  0.41482742  0.01739258  0.10063180  1
  O  O159  1  0.92169729  0.04184708  0.09656294  1
  O  O160  1  0.09425577  0.17380259  0.10025891  1
  O  O161  1  0.59894270  0.15651990  0.09680961  1
  O  O162  1  0.34528154  0.16310760  0.74494312  1
  O  O163  1  0.83715458  0.15433880  0.74619434  1
  O  O164  1  0.23979649  0.30442843  0.74702720  1
  O  O165  1  0.73116762  0.29678965  0.74414574  1
  O  O166  1  0.42171242  0.52552150  0.74681243  1
  O  O167  1  0.90659732  0.50451474  0.74600740  1
  O  O168  1  0.34475693  0.52919705  0.24349644  1
  O  O169  1  0.84630006  0.52808755  0.23944921  1
  O  O170  1  0.41794166  0.30588874  0.24078316  1
  O  O171  1  0.92005936  0.31017239  0.24274297  1
  O  O172  1  0.23672823  0.17057981  0.23840121  1
  O  O173  1  0.73558272  0.15989048  0.24429022  1
  O  O174  1  0.30978126  0.49642492  0.92800136  1
  O  O175  1  0.82233806  0.49022397  0.93165742  1
  O  O176  1  0.41909622  0.35559927  0.92193054  1
  O  O177  1  0.92837050  0.36335045  0.93459701  1
  O  O178  1  0.24461895  0.12943135  0.92933742  1
  O  O179  1  0.75653316  0.15542915  0.93089473  1
  O  O180  1  0.32829619  0.14909998  0.41977571  1
  O  O181  1  0.80990219  0.11486911  0.41653468  1
  O  O182  1  0.24953587  0.34768712  0.41964506  1
  O  O183  1  0.73717715  0.35373230  0.41689453  1
  O  O184  1  0.43110817  0.50857458  0.42226557  1
  O  O185  1  0.92283176  0.49557300  0.41340101  1
  O  O186  1  0.17428723  0.49274393  0.07744333  1
  O  O187  1  0.68343051  0.48091775  0.08480000  1
  O  O188  1  0.06731375  0.64671936  0.07483615  1
  O  O189  1  0.56446920  0.65220935  0.08837826  1
  O  O190  1  0.25367215  0.85662880  0.07932770  1
  O  O191  1  0.76111065  0.88263311  0.08078541  1
  O  O192  1  0.18767182  0.87815664  0.57450349  1
  O  O193  1  0.67826756  0.84957682  0.56662678  1
  O  O194  1  0.25356131  0.63460737  0.56916999  1
  O  O195  1  0.74233007  0.63691692  0.56704220  1
  O  O196  1  0.07094906  0.49221685  0.57630116  1
  O  O197  1  0.56969543  0.50411923  0.56376147  1
  O  O198  1  0.15903606  0.84886824  0.25574124  1
  O  O199  1  0.65082446  0.83646018  0.26225577  1
  O  O200  1  0.26633074  0.69550823  0.26220670  1
  O  O201  1  0.76459128  0.68822402  0.25811918  1
  O  O202  1  0.08328662  0.45941614  0.25818333  1
  O  O203  1  0.57951177  0.46792910  0.25930864  1
  O  O204  1  0.16363682  0.47233391  0.75707948  1
  O  O205  1  0.65636263  0.47023776  0.75288633  1
  O  O206  1  0.08435149  0.68219431  0.75532839  1
  O  O207  1  0.58456890  0.70474459  0.75312428  1
  O  O208  1  0.26781995  0.83920800  0.75449366  1
  O  O209  1  0.76762852  0.83400263  0.75703631  1
