# generated using pymatgen
data_NaHfMgP(SO6)2
_symmetry_space_group_name_H-M   'P 1'
_cell_length_a   8.75478690
_cell_length_b   8.74656863
_cell_length_c   23.05066250
_cell_angle_alpha   90.04053256
_cell_angle_beta   90.00000000
_cell_angle_gamma   120.03108656
_symmetry_Int_Tables_number   1
_chemical_formula_structural   NaHfMgP(SO6)2
_chemical_formula_sum   'Na6 Hf6 Mg6 P6 S12 O72'
_cell_volume   1528.13266365
_cell_formula_units_Z   6
loop_
 _symmetry_equiv_pos_site_id
 _symmetry_equiv_pos_as_xyz
  1  'x, y, z'
loop_
 _atom_site_type_symbol
 _atom_site_label
 _atom_site_symmetry_multiplicity
 _atom_site_fract_x
 _atom_site_fract_y
 _atom_site_fract_z
 _atom_site_occupancy
  Na  Na0  1  0.98864178  0.99171290  0.50430573  1
  Na  Na1  1  0.00307113  0.99171290  0.00430573  1
  Na  Na2  1  0.66110737  0.32170956  0.83769351  1
  Na  Na3  1  0.66060319  0.32170956  0.33769351  1
  Na  Na4  1  0.32745400  0.67207701  0.17109431  1
  Na  Na5  1  0.34462201  0.67207701  0.67109431  1
  Hf  Hf6  1  0.00294320  0.00037610  0.35279713  1
  Hf  Hf7  1  0.99743290  0.00037610  0.85279713  1
  Hf  Hf8  1  0.66633403  0.33337563  0.68617115  1
  Hf  Hf9  1  0.66704260  0.33337563  0.18617115  1
  Hf  Hf10  1  0.32377415  0.67329206  0.01961024  1
  Hf  Hf11  1  0.34951691  0.67329206  0.51961024  1
  Mg  Mg12  1  0.98511929  0.99143383  0.64790039  1
  Mg  Mg13  1  0.00631454  0.99143383  0.14790039  1
  Mg  Mg14  1  0.66590218  0.33444958  0.98147925  1
  Mg  Mg15  1  0.66854839  0.33444958  0.48147925  1
  Mg  Mg16  1  0.33820771  0.68172670  0.31478165  1
  Mg  Mg17  1  0.34351799  0.68172670  0.81478165  1
  P  P18  1  0.28886429  0.99488498  0.24821186  1
  P  P19  1  0.70602069  0.99488498  0.74821186  1
  P  P20  1  0.67451690  0.62492053  0.58135250  1
  P  P21  1  0.95040463  0.62492053  0.08135250  1
  P  P22  1  0.33955297  0.96452000  0.91443135  1
  P  P23  1  0.62496603  0.96452000  0.41443135  1
  S  S24  1  0.70634226  0.71136365  0.24881177  1
  S  S25  1  0.00544368  0.29262073  0.24866850  1
  S  S26  1  0.28717705  0.29262073  0.74866850  1
  S  S27  1  0.00502140  0.71136365  0.74881177  1
  S  S28  1  0.95742769  0.33105998  0.58196029  1
  S  S29  1  0.37177826  0.04486945  0.58234398  1
  S  S30  1  0.67309219  0.04486945  0.08234398  1
  S  S31  1  0.37363329  0.33105998  0.08196029  1
  S  S32  1  0.61993136  0.66120919  0.91593887  1
  S  S33  1  0.04168368  0.37930387  0.91507841  1
  S  S34  1  0.33761918  0.37930387  0.41507841  1
  S  S35  1  0.04127683  0.66120919  0.41593887  1
  O  O36  1  0.20379007  0.02779100  0.30401753  1
  O  O37  1  0.81805987  0.79095161  0.30197944  1
  O  O38  1  0.97153550  0.18057572  0.30204132  1
  O  O39  1  0.20904022  0.18057572  0.80204132  1
  O  O40  1  0.97289174  0.79095161  0.80197944  1
  O  O41  1  0.82400093  0.02779100  0.80401753  1
  O  O42  1  0.79602528  0.97569455  0.69558484  1
  O  O43  1  0.18422072  0.20827075  0.69696420  1
  O  O44  1  0.02973952  0.81783021  0.69747655  1
  O  O45  1  0.78809069  0.81783021  0.19747655  1
  O  O46  1  0.02405003  0.20827075  0.19696420  1
  O  O47  1  0.17966927  0.97569455  0.19558484  1
  O  O48  1  0.87578245  0.36056020  0.63536309  1
  O  O49  1  0.48502865  0.12243125  0.63551276  1
  O  O50  1  0.64044791  0.50809770  0.63714266  1
  O  O51  1  0.86765080  0.50809770  0.13714266  1
  O  O52  1  0.63740360  0.12243125  0.13551276  1
  O  O53  1  0.48477876  0.36056020  0.13536309  1
  O  O54  1  0.45561150  0.30542252  0.03088279  1
  O  O55  1  0.84363848  0.53480896  0.02809313  1
  O  O56  1  0.69300180  0.14853094  0.03079079  1
  O  O57  1  0.45553014  0.14853094  0.53079079  1
  O  O58  1  0.69117147  0.53480896  0.52809313  1
  O  O59  1  0.84981202  0.30542252  0.53088279  1
  O  O60  1  0.54113388  0.69277973  0.96903659  1
  O  O61  1  0.15333005  0.45708913  0.96853574  1
  O  O62  1  0.30527239  0.84508070  0.97042723  1
  O  O63  1  0.53980731  0.84508070  0.47042723  1
  O  O64  1  0.30375808  0.45708913  0.46853574  1
  O  O65  1  0.15164485  0.69277973  0.46903659  1
  O  O66  1  0.12260185  0.63800782  0.36420557  1
  O  O67  1  0.51411291  0.87375458  0.36231689  1
  O  O68  1  0.35667321  0.48302788  0.36354183  1
  O  O69  1  0.12635367  0.48302788  0.86354183  1
  O  O70  1  0.35964067  0.87375458  0.86231689  1
  O  O71  1  0.51540497  0.63800782  0.86420557  1
  O  O72  1  0.02641113  0.82643481  0.41025145  1
  O  O73  1  0.81087194  0.97740193  0.40899292  1
  O  O74  1  0.17294203  0.19931606  0.41051575  1
  O  O75  1  0.02637402  0.19931606  0.91051575  1
  O  O76  1  0.16652998  0.97740193  0.90899292  1
  O  O77  1  0.80002368  0.82643481  0.91025145  1
  O  O78  1  0.98243509  0.17925414  0.59031142  1
  O  O79  1  0.19793374  0.02467135  0.59147451  1
  O  O80  1  0.83234058  0.80954558  0.58920693  1
  O  O81  1  0.97720500  0.80954558  0.08920693  1
  O  O82  1  0.82673761  0.02467135  0.09147451  1
  O  O83  1  0.19681906  0.17925414  0.09031142  1
  O  O84  1  0.69063262  0.16732726  0.74263189  1
  O  O85  1  0.46713049  0.30826814  0.74381436  1
  O  O86  1  0.83919476  0.53297347  0.74355420  1
  O  O87  1  0.69377971  0.53297347  0.24355420  1
  O  O88  1  0.84113865  0.30826814  0.24381436  1
  O  O89  1  0.47669564  0.16732726  0.24263189  1
  O  O90  1  0.64544975  0.50968881  0.92334486  1
  O  O91  1  0.86641590  0.35642502  0.92328625  1
  O  O92  1  0.49917494  0.14715721  0.92468820  1
  O  O93  1  0.64798327  0.14715721  0.42468820  1
  O  O94  1  0.49001012  0.35642502  0.42328625  1
  O  O95  1  0.86424006  0.50968881  0.42334486  1
  O  O96  1  0.36183662  0.49613961  0.07637769  1
  O  O97  1  0.13923233  0.63928087  0.07696160  1
  O  O98  1  0.50979877  0.86416535  0.07703405  1
  O  O99  1  0.35436558  0.86416535  0.57703405  1
  O  O100  1  0.50004755  0.63928087  0.57696160  1
  O  O101  1  0.13430199  0.49613961  0.57637769  1
  O  O102  1  0.31195799  0.83459972  0.25623035  1
  O  O103  1  0.52949414  0.68429670  0.25708493  1
  O  O104  1  0.15904757  0.46744295  0.25769478  1
  O  O105  1  0.30839438  0.46744295  0.75769478  1
  O  O106  1  0.15480156  0.68429670  0.75708493  1
  O  O107  1  0.52264073  0.83459972  0.75623035  1
