# generated using pymatgen
data_Hf2Si(SO6)2
_symmetry_space_group_name_H-M   'P 1'
_cell_length_a   8.96894526
_cell_length_b   8.96822308
_cell_length_c   23.09148996
_cell_angle_alpha   90.01154060
_cell_angle_beta   90.00000000
_cell_angle_gamma   120.00266381
_symmetry_Int_Tables_number   1
_chemical_formula_structural   Hf2Si(SO6)2
_chemical_formula_sum   'Hf12 Si6 S12 O72'
_cell_volume   1608.49121934
_cell_formula_units_Z   6
loop_
 _symmetry_equiv_pos_site_id
 _symmetry_equiv_pos_as_xyz
  1  'x, y, z'
loop_
 _atom_site_type_symbol
 _atom_site_label
 _atom_site_symmetry_multiplicity
 _atom_site_fract_x
 _atom_site_fract_y
 _atom_site_fract_z
 _atom_site_occupancy
  Hf  Hf0  1  0.98963126  0.00919386  0.35616288  1
  Hf  Hf1  1  0.01956260  0.00919386  0.85616288  1
  Hf  Hf2  1  0.00760580  0.01898615  0.64402796  1
  Hf  Hf3  1  0.01138036  0.01898615  0.14402796  1
  Hf  Hf4  1  0.67126413  0.33690334  0.68923051  1
  Hf  Hf5  1  0.66564020  0.33690334  0.18923051  1
  Hf  Hf6  1  0.64800707  0.32422940  0.97705399  1
  Hf  Hf7  1  0.67622333  0.32422940  0.47705399  1
  Hf  Hf8  1  0.32921552  0.66747666  0.02284454  1
  Hf  Hf9  1  0.33826013  0.66747666  0.52284454  1
  Hf  Hf10  1  0.33483773  0.67045297  0.31066694  1
  Hf  Hf11  1  0.33561424  0.67045297  0.81066694  1
  Si  Si12  1  0.00001776  0.29345054  0.24992575  1
  Si  Si13  1  0.29343278  0.29345054  0.74992575  1
  Si  Si14  1  0.95801010  0.33761288  0.58391673  1
  Si  Si15  1  0.37960378  0.33761288  0.08391673  1
  Si  Si16  1  0.33357892  0.95154947  0.91669908  1
  Si  Si17  1  0.61796954  0.95154947  0.41669908  1
  S  S18  1  0.28720773  0.99967988  0.25014864  1
  S  S19  1  0.71315531  0.71276212  0.24990718  1
  S  S20  1  0.99960680  0.71276212  0.74990718  1
  S  S21  1  0.71247215  0.99967988  0.75014864  1
  S  S22  1  0.37881851  0.04553799  0.58331572  1
  S  S23  1  0.66831197  0.62136156  0.58331503  1
  S  S24  1  0.95305059  0.62136156  0.08331503  1
  S  S25  1  0.66672048  0.04553799  0.08331572  1
  S  S26  1  0.62211506  0.66889799  0.91655610  1
  S  S27  1  0.04432673  0.37964482  0.91675771  1
  S  S28  1  0.33531709  0.37964482  0.41675771  1
  S  S29  1  0.04678193  0.66889799  0.41655610  1
  O  O30  1  0.20893938  0.02661970  0.30209325  1
  O  O31  1  0.82206241  0.79051905  0.30196224  1
  O  O32  1  0.97199959  0.16810604  0.30556561  1
  O  O33  1  0.19610645  0.16810604  0.80556561  1
  O  O34  1  0.96845664  0.79051905  0.80196224  1
  O  O35  1  0.81768032  0.02661970  0.80209325  1
  O  O36  1  0.79033153  0.96849003  0.69810062  1
  O  O37  1  0.16800312  0.19581556  0.69435464  1
  O  O38  1  0.02660567  0.81764649  0.69789897  1
  O  O39  1  0.79104082  0.81764649  0.19789897  1
  O  O40  1  0.02781244  0.19581556  0.19435464  1
  O  O41  1  0.17815850  0.96849003  0.19810062  1
  O  O42  1  0.86169534  0.36196213  0.63973886  1
  O  O43  1  0.48660045  0.12498197  0.63500467  1
  O  O44  1  0.63672523  0.51149443  0.63532464  1
  O  O45  1  0.87477020  0.51149443  0.13532464  1
  O  O46  1  0.63838252  0.12498197  0.13500467  1
  O  O47  1  0.50026779  0.36196213  0.13973886  1
  O  O48  1  0.47243213  0.30660220  0.02771386  1
  O  O49  1  0.84894502  0.54092042  0.03117787  1
  O  O50  1  0.69973376  0.15514453  0.03150899  1
  O  O51  1  0.45541177  0.15514453  0.53150899  1
  O  O52  1  0.69197640  0.54092042  0.53117787  1
  O  O53  1  0.83417106  0.30660220  0.52771386  1
  O  O54  1  0.54046702  0.69390571  0.96844998  1
  O  O55  1  0.15480951  0.45658777  0.96849922  1
  O  O56  1  0.30626423  0.83231465  0.97310818  1
  O  O57  1  0.52604943  0.83231465  0.47310818  1
  O  O58  1  0.30177726  0.45658777  0.46849922  1
  O  O59  1  0.15343770  0.69390571  0.46844998  1
  O  O60  1  0.12351842  0.63526594  0.36477791  1
  O  O61  1  0.49902681  0.85961401  0.36023665  1
  O  O62  1  0.36051143  0.48655165  0.36494114  1
  O  O63  1  0.12603922  0.48655165  0.86494114  1
  O  O64  1  0.36058620  0.85961401  0.86023665  1
  O  O65  1  0.51174651  0.63526594  0.86477791  1
  O  O66  1  0.02944331  0.82171147  0.40698889  1
  O  O67  1  0.80783505  0.97144799  0.40776793  1
  O  O68  1  0.18371469  0.20519209  0.40791243  1
  O  O69  1  0.02147740  0.20519209  0.90791243  1
  O  O70  1  0.16361294  0.97144799  0.90776793  1
  O  O71  1  0.79226817  0.82171147  0.90698889  1
  O  O72  1  0.97167480  0.16386396  0.59236933  1
  O  O73  1  0.20407098  0.02096006  0.59202052  1
  O  O74  1  0.81996513  0.79223587  0.59330832  1
  O  O75  1  0.97227074  0.79223587  0.09330832  1
  O  O76  1  0.81688908  0.02096006  0.09202052  1
  O  O77  1  0.19218916  0.16386396  0.09236933  1
  O  O78  1  0.69112961  0.15142272  0.74094336  1
  O  O79  1  0.47929161  0.31052458  0.73777827  1
  O  O80  1  0.84613059  0.53933764  0.74229653  1
  O  O81  1  0.69320804  0.53933764  0.24229653  1
  O  O82  1  0.83123397  0.31052458  0.23777827  1
  O  O83  1  0.46029412  0.15142272  0.24094336  1
  O  O84  1  0.64514105  0.51726917  0.92530931  1
  O  O85  1  0.87439618  0.36259391  0.92628257  1
  O  O86  1  0.50334705  0.14140748  0.92567234  1
  O  O87  1  0.63806143  0.14140748  0.42567234  1
  O  O88  1  0.48819873  0.36259391  0.42628257  1
  O  O89  1  0.87212912  0.51726917  0.42530931  1
  O  O90  1  0.35623901  0.50230598  0.07140196  1
  O  O91  1  0.12618273  0.63955255  0.07549443  1
  O  O92  1  0.51376354  0.87334413  0.07465118  1
  O  O93  1  0.35957959  0.87334413  0.57465118  1
  O  O94  1  0.51336883  0.63955255  0.57549443  1
  O  O95  1  0.14606598  0.50230598  0.57140196  1
  O  O96  1  0.30680013  0.84610475  0.25777662  1
  O  O97  1  0.53989241  0.69113871  0.25894359  1
  O  O98  1  0.16851174  0.47930503  0.26209638  1
  O  O99  1  0.31079229  0.47930503  0.76209638  1
  O  O100  1  0.15124530  0.69113871  0.75894359  1
  O  O101  1  0.53930362  0.84610475  0.75777662  1
