# generated using pymatgen
data_Na6Hf2Zn2Si3(SO8)3
_symmetry_space_group_name_H-M   'P 1'
_cell_length_a   9.11425941
_cell_length_b   9.10599468
_cell_length_c   22.59389218
_cell_angle_alpha   89.76971650
_cell_angle_beta   90.53570571
_cell_angle_gamma   119.57168348
_symmetry_Int_Tables_number   1
_chemical_formula_structural   Na6Hf2Zn2Si3(SO8)3
_chemical_formula_sum   'Na18 Hf6 Zn6 Si9 S9 O72'
_cell_volume   1630.83362761
_cell_formula_units_Z   3
loop_
 _symmetry_equiv_pos_site_id
 _symmetry_equiv_pos_as_xyz
  1  'x, y, z'
loop_
 _atom_site_type_symbol
 _atom_site_label
 _atom_site_symmetry_multiplicity
 _atom_site_fract_x
 _atom_site_fract_y
 _atom_site_fract_z
 _atom_site_occupancy
  Na  Na0  1  0.37600684  0.35353230  0.24457003  1
  Na  Na1  1  0.99596674  0.63652518  0.23623318  1
  Na  Na2  1  0.98601854  0.34929485  0.74089807  1
  Na  Na3  1  0.38695364  0.02669973  0.74541819  1
  Na  Na4  1  0.29902048  0.33520062  0.58143280  1
  Na  Na5  1  0.65438539  0.97659237  0.59279588  1
  Na  Na6  1  0.30035411  0.95774998  0.07108029  1
  Na  Na7  1  0.65451722  0.68099013  0.07860158  1
  Na  Na8  1  0.98639431  0.68785701  0.91582829  1
  Na  Na9  1  0.31808011  0.27911042  0.90656849  1
  Na  Na10  1  0.98612219  0.30047143  0.42813348  1
  Na  Na11  1  0.32239255  0.03952350  0.41549868  1
  Na  Na12  1  0.00786438  -0.00101300  0.50299484  1
  Na  Na13  1  0.00444808  0.00919188  0.99002114  1
  Na  Na14  1  0.65077549  0.31575378  0.82168440  1
  Na  Na15  1  0.64555835  0.32146526  0.32806789  1
  Na  Na16  1  0.32096187  0.65524079  0.15450672  1
  Na  Na17  1  0.32364849  0.66587100  0.65955562  1
  Hf  Hf18  1  0.00374397  0.01183106  0.64883571  1
  Hf  Hf19  1  0.01485773  0.00171923  0.14457067  1
  Hf  Hf20  1  0.65608923  0.32616594  0.98299795  1
  Hf  Hf21  1  0.65420765  0.33162488  0.48619738  1
  Hf  Hf22  1  0.34211354  0.67134528  0.31540122  1
  Hf  Hf23  1  0.35114009  0.68132549  0.81103113  1
  Zn  Zn24  1  0.03243210  0.02302751  0.34802005  1
  Zn  Zn25  1  0.02164717  0.01603725  0.84024509  1
  Zn  Zn26  1  0.65402164  0.30403923  0.68277971  1
  Zn  Zn27  1  0.64935198  0.32864024  0.17567634  1
  Zn  Zn28  1  0.29803195  0.65433827  0.01997780  1
  Zn  Zn29  1  0.30304990  0.64435187  0.52322936  1
  Si  Si30  1  0.30846693  0.00411856  0.25143750  1
  Si  Si31  1  0.30842722  0.30366282  0.75163431  1
  Si  Si32  1  0.71451153  0.00025587  0.75226772  1
  Si  Si33  1  0.95698387  0.33429710  0.58602216  1
  Si  Si34  1  0.36137667  0.02121876  0.58351659  1
  Si  Si35  1  0.95421640  0.61829242  0.08819268  1
  Si  Si36  1  0.36887233  0.34408575  0.08473718  1
  Si  Si37  1  0.32950755  0.95940249  0.91935924  1
  Si  Si38  1  0.33503924  0.37370867  0.41805901  1
  S  S39  1  0.71266527  0.71981102  0.25361544  1
  S  S40  1  0.99882001  0.29358048  0.25348238  1
  S  S41  1  0.99931764  0.70570855  0.75334042  1
  S  S42  1  0.67237139  0.62869925  0.58539225  1
  S  S43  1  0.67111880  0.04267471  0.08562827  1
  S  S44  1  0.62813223  0.66652185  0.92024710  1
  S  S45  1  0.03688604  0.37254546  0.91742593  1
  S  S46  1  0.63264982  0.96215995  0.41788646  1
  S  S47  1  0.03657487  0.66618514  0.41436595  1
  O  O48  1  0.22754023  0.03220942  0.31082136  1
  O  O49  1  0.81359268  0.81119244  0.30401330  1
  O  O50  1  0.98094632  0.20080136  0.30835408  1
  O  O51  1  0.23837806  0.19094528  0.81130958  1
  O  O52  1  0.98436884  0.77910656  0.80907751  1
  O  O53  1  0.82900721  0.01689374  0.80837809  1
  O  O54  1  0.79388940  0.97081144  0.69005474  1
  O  O55  1  0.17347118  0.20399574  0.69475610  1
  O  O56  1  0.02701941  0.82038314  0.70227670  1
  O  O57  1  0.78340947  0.81333318  0.19669194  1
  O  O58  1  0.02051163  0.20495553  0.20162278  1
  O  O59  1  0.17368655  0.97140950  0.19486831  1
  O  O60  1  0.86744637  0.35435774  0.64322090  1
  O  O61  1  0.47368372  0.10059728  0.64209064  1
  O  O62  1  0.64963059  0.52451724  0.63661403  1
  O  O63  1  0.86734194  0.51495517  0.14793411  1
  O  O64  1  0.64587867  0.12005073  0.13813274  1
  O  O65  1  0.47319434  0.37400268  0.14627384  1
  O  O66  1  0.46412557  0.29993994  0.02978456  1
  O  O67  1  0.83596377  0.52830233  0.02870295  1
  O  O68  1  0.69519247  0.14758592  0.03197453  1
  O  O69  1  0.45705840  0.15868253  0.52561468  1
  O  O70  1  0.68978633  0.54327805  0.52999065  1
  O  O71  1  0.84441158  0.31228068  0.52346024  1
  O  O72  1  0.55137786  0.68265295  0.97404708  1
  O  O73  1  0.14318658  0.45097912  0.96956826  1
  O  O74  1  0.30679777  0.84949938  0.97873427  1
  O  O75  1  0.55850555  0.87001397  0.47121331  1
  O  O76  1  0.30784273  0.46551147  0.47406273  1
  O  O77  1  0.14475889  0.69646667  0.46644809  1
  O  O78  1  0.12507154  0.64427847  0.36054787  1
  O  O79  1  0.51543899  0.87353801  0.36505789  1
  O  O80  1  0.35236245  0.48457548  0.35682673  1
  O  O81  1  0.11538485  0.47773343  0.86353750  1
  O  O82  1  0.34760538  0.86006976  0.86107194  1
  O  O83  1  0.51527564  0.63864703  0.86771407  1
  O  O84  1  0.01022243  0.80960127  0.40678085  1
  O  O85  1  0.80200267  0.98889962  0.40737976  1
  O  O86  1  0.16476373  0.18382354  0.41529647  1
  O  O87  1  0.01297901  0.20358071  0.91279691  1
  O  O88  1  0.16126408  0.98160457  0.91448724  1
  O  O89  1  0.79841679  0.80457047  0.91291194  1
  O  O90  1  0.96219323  0.15101735  0.58621378  1
  O  O91  1  0.17700507  0.01528875  0.58710031  1
  O  O92  1  0.82789000  0.79648732  0.58663793  1
  O  O93  1  0.95723220  0.80802178  0.09069217  1
  O  O94  1  0.82647287  0.02765098  0.09094837  1
  O  O95  1  0.18267457  0.16453321  0.08900534  1
  O  O96  1  0.69199867  0.16658913  0.74973748  1
  O  O97  1  0.49196954  0.32642733  0.74064633  1
  O  O98  1  0.85925894  0.53765110  0.74596399  1
  O  O99  1  0.69395566  0.54840937  0.25161149  1
  O  O100  1  0.85925535  0.32767671  0.24755860  1
  O  O101  1  0.49099728  0.17189093  0.24275991  1
  O  O102  1  0.63663052  0.50149829  0.92165663  1
  O  O103  1  0.87001782  0.36906689  0.92334830  1
  O  O104  1  0.50014692  0.15192189  0.92282151  1
  O  O105  1  0.64182684  0.13529867  0.41771192  1
  O  O106  1  0.50465093  0.34812539  0.41930228  1
  O  O107  1  0.87362036  0.50285833  0.41759187  1
  O  O108  1  0.35950077  0.51403335  0.07324862  1
  O  O109  1  0.14982071  0.66769430  0.08474347  1
  O  O110  1  0.52707970  0.87328475  0.07878326  1
  O  O111  1  0.36089472  0.84692927  0.57070041  1
  O  O112  1  0.52524245  0.65237799  0.57764526  1
  O  O113  1  0.15280154  0.48193382  0.58352505  1
  O  O114  1  0.30558651  0.81911132  0.25556613  1
  O  O115  1  0.53323128  0.69346546  0.25630188  1
  O  O116  1  0.16371727  0.46559258  0.25508634  1
  O  O117  1  0.29582894  0.47874889  0.75865850  1
  O  O118  1  0.16188435  0.69451222  0.75529474  1
  O  O119  1  0.51712978  0.83453672  0.75517427  1
