# generated using pymatgen
data_Na7TiZn3P5SO24
_symmetry_space_group_name_H-M   'P 1'
_cell_length_a   9.01907750
_cell_length_b   9.00855533
_cell_length_c   21.75600645
_cell_angle_alpha   89.34983764
_cell_angle_beta   90.43851963
_cell_angle_gamma   120.01476338
_symmetry_Int_Tables_number   1
_chemical_formula_structural   Na7TiZn3P5SO24
_chemical_formula_sum   'Na21 Ti3 Zn9 P15 S3 O72'
_cell_volume   1530.50008560
_cell_formula_units_Z   3
loop_
 _symmetry_equiv_pos_site_id
 _symmetry_equiv_pos_as_xyz
  1  'x, y, z'
loop_
 _atom_site_type_symbol
 _atom_site_label
 _atom_site_symmetry_multiplicity
 _atom_site_fract_x
 _atom_site_fract_y
 _atom_site_fract_z
 _atom_site_occupancy
  Na  Na0  1  0.62499271  0.99820817  0.25121464  1
  Na  Na1  1  0.36812608  0.36112127  0.25301510  1
  Na  Na2  1  0.00788352  0.63972970  0.24911244  1
  Na  Na3  1  0.64877351  0.63750095  0.74749866  1
  Na  Na4  1  0.99161920  0.35327089  0.74893320  1
  Na  Na5  1  0.29346644  0.33893261  0.58648143  1
  Na  Na6  1  0.03566762  0.70373607  0.58756602  1
  Na  Na7  1  0.67133958  0.95628747  0.58426610  1
  Na  Na8  1  0.29250046  0.95567844  0.08077526  1
  Na  Na9  1  0.66216284  0.70367282  0.07791647  1
  Na  Na10  1  0.04280128  0.33735027  0.07825974  1
  Na  Na11  1  0.97638474  0.67876210  0.90885104  1
  Na  Na12  1  0.32304998  0.29551765  0.90892850  1
  Na  Na13  1  0.32707343  0.02083620  0.41248996  1
  Na  Na14  1  0.69406024  0.67676271  0.41671083  1
  Na  Na15  1  0.99526295  0.01565562  0.49742759  1
  Na  Na16  1  0.98365824  0.00048516  0.99285919  1
  Na  Na17  1  0.65097247  0.30204763  0.82692851  1
  Na  Na18  1  0.67081080  0.32323636  0.33276398  1
  Na  Na19  1  0.33230307  0.67240956  0.16294303  1
  Na  Na20  1  0.33471545  0.67400132  0.66616171  1
  Ti  Ti21  1  0.66804196  0.33002246  0.98077215  1
  Ti  Ti22  1  0.68045115  0.34191170  0.48028842  1
  Ti  Ti23  1  0.33534640  0.67457535  0.81634581  1
  Zn  Zn24  1  0.01033278  0.01019497  0.35266230  1
  Zn  Zn25  1  0.99696604  0.00284363  0.84599045  1
  Zn  Zn26  1  0.99474984  0.00079987  0.66324157  1
  Zn  Zn27  1  0.00953465  0.99840995  0.14569477  1
  Zn  Zn28  1  0.66750496  0.33556203  0.68517160  1
  Zn  Zn29  1  0.65617225  0.32271807  0.17532296  1
  Zn  Zn30  1  0.33719133  0.66722868  0.01104293  1
  Zn  Zn31  1  0.33185455  0.65666183  0.50881861  1
  Zn  Zn32  1  0.33000964  0.67328129  0.32997330  1
  P  P33  1  0.29892595  0.99722251  0.24994160  1
  P  P34  1  0.30014944  0.30520138  0.75232631  1
  P  P35  1  0.00728213  0.70492823  0.75164552  1
  P  P36  1  0.69578339  0.99673474  0.74935810  1
  P  P37  1  0.96278581  0.33582410  0.58592900  1
  P  P38  1  0.66472148  0.62586134  0.58325241  1
  P  P39  1  0.95653745  0.62345012  0.08455306  1
  P  P40  1  0.66738142  0.03732059  0.08530777  1
  P  P41  1  0.37316126  0.33561275  0.08300873  1
  P  P42  1  0.62966044  0.66416030  0.91905579  1
  P  P43  1  0.03527616  0.37108321  0.91898251  1
  P  P44  1  0.33753944  0.96317912  0.92019074  1
  P  P45  1  0.63695795  0.97284428  0.41820172  1
  P  P46  1  0.33853784  0.36584366  0.41796383  1
  P  P47  1  0.03232731  0.66587950  0.41721659  1
  S  S48  1  0.70203422  0.70319040  0.24978246  1
  S  S49  1  0.00045562  0.29652135  0.24803236  1
  S  S50  1  0.37572033  0.04248019  0.58156663  1
  O  O51  1  0.21169119  0.01879664  0.30718826  1
  O  O52  1  0.80131353  0.79026579  0.30556933  1
  O  O53  1  0.97765834  0.18547471  0.30145041  1
  O  O54  1  0.21534909  0.20003454  0.80998260  1
  O  O55  1  0.98184598  0.79114279  0.80741926  1
  O  O56  1  0.81853376  0.02916165  0.80242228  1
  O  O57  1  0.75870254  0.95006332  0.68953102  1
  O  O58  1  0.18738118  0.22894244  0.69366703  1
  O  O59  1  0.03182969  0.80647954  0.69094483  1
  O  O60  1  0.78465988  0.80539621  0.19325613  1
  O  O61  1  0.01484053  0.21797526  0.19006427  1
  O  O62  1  0.19248694  0.97404554  0.19062370  1
  O  O63  1  0.88315719  0.35511214  0.64481620  1
  O  O64  1  0.47945439  0.12653728  0.63584318  1
  O  O65  1  0.64320814  0.52244409  0.64212079  1
  O  O66  1  0.87507754  0.52178751  0.14400477  1
  O  O67  1  0.64472409  0.10987069  0.14589587  1
  O  O68  1  0.47147147  0.35924744  0.14363148  1
  O  O69  1  0.47922811  0.32145515  0.02795900  1
  O  O70  1  0.84100217  0.51935335  0.02760285  1
  O  O71  1  0.67979518  0.16255641  0.03110975  1
  O  O72  1  0.46429374  0.14227560  0.52408244  1
  O  O73  1  0.67154338  0.51758906  0.52668654  1
  O  O74  1  0.83968254  0.32457675  0.53062208  1
  O  O75  1  0.55385161  0.68414467  0.97868489  1
  O  O76  1  0.13722752  0.44947777  0.97816247  1
  O  O77  1  0.31001002  0.86183238  0.98007074  1
  O  O78  1  0.55156088  0.85956583  0.47519725  1
  O  O79  1  0.31915485  0.44547438  0.47678196  1
  O  O80  1  0.14636917  0.69464508  0.47349942  1
  O  O81  1  0.10296913  0.63524780  0.35761113  1
  O  O82  1  0.52220433  0.89984641  0.36011987  1
  O  O83  1  0.37043969  0.48163943  0.36053647  1
  O  O84  1  0.13130130  0.49520280  0.86331993  1
  O  O85  1  0.35502822  0.85889369  0.86606782  1
  O  O86  1  0.50636206  0.63952883  0.86385637  1
  O  O87  1  -0.00014911  0.81866023  0.41358348  1
  O  O88  1  0.81357458  0.98945038  0.41128050  1
  O  O89  1  0.18769584  0.18169541  0.41355922  1
  O  O90  1  0.01492469  0.19392233  0.91139579  1
  O  O91  1  0.18323036  0.99003978  0.91172743  1
  O  O92  1  0.81331521  0.81157754  0.91144984  1
  O  O93  1  0.97264848  0.16990179  0.58309074  1
  O  O94  1  0.20627147  0.03246981  0.58234524  1
  O  O95  1  0.83298501  0.79945029  0.58025278  1
  O  O96  1  0.96239642  0.79832249  0.08129874  1
  O  O97  1  0.83568594  0.03132604  0.08248313  1
  O  O98  1  0.19761284  0.16745186  0.08065776  1
  O  O99  1  0.67184643  0.15268904  0.74331270  1
  O  O100  1  0.48396785  0.33848835  0.74742229  1
  O  O101  1  0.85140892  0.52030490  0.74942064  1
  O  O102  1  0.68933101  0.53137628  0.24882385  1
  O  O103  1  0.84835199  0.32116041  0.24764471  1
  O  O104  1  0.48064864  0.16194910  0.24765366  1
  O  O105  1  0.63564039  0.49007719  0.92088471  1
  O  O106  1  0.85722535  0.36440164  0.92183743  1
  O  O107  1  0.50387167  0.14426519  0.92168687  1
  O  O108  1  0.65198357  0.15370458  0.42571787  1
  O  O109  1  0.50704035  0.35026018  0.42185821  1
  O  O110  1  0.84753555  0.50210642  0.42438821  1
  O  O111  1  0.35041703  0.49337907  0.07772615  1
  O  O112  1  0.13676388  0.64637646  0.08056179  1
  O  O113  1  0.50926755  0.85828775  0.07881743  1
  O  O114  1  0.35338726  0.86745910  0.57914155  1
  O  O115  1  0.50641558  0.64928424  0.57833401  1
  O  O116  1  0.14086311  0.49799523  0.57878316  1
  O  O117  1  0.31728741  0.83373160  0.25404117  1
  O  O118  1  0.52659377  0.68129243  0.25167924  1
  O  O119  1  0.16021117  0.46740883  0.25250074  1
  O  O120  1  0.31348056  0.48875005  0.75844193  1
  O  O121  1  0.17117650  0.68497107  0.75863755  1
  O  O122  1  0.51669954  0.82984544  0.76107968  1
