# generated using pymatgen
data_Na10Zn6Si3Sn2(S3O16)3
_symmetry_space_group_name_H-M   'P 1'
_cell_length_a   17.86991982
_cell_length_b   8.97581605
_cell_length_c   22.61782690
_cell_angle_alpha   90.29048548
_cell_angle_beta   89.72482849
_cell_angle_gamma   120.09193815
_symmetry_Int_Tables_number   1
_chemical_formula_structural   Na10Zn6Si3Sn2(S3O16)3
_chemical_formula_sum   'Na30 Zn18 Si9 Sn6 S27 O144'
_cell_volume   3138.83077271
_cell_formula_units_Z   3
loop_
 _symmetry_equiv_pos_site_id
 _symmetry_equiv_pos_as_xyz
  1  'x, y, z'
loop_
 _atom_site_type_symbol
 _atom_site_label
 _atom_site_symmetry_multiplicity
 _atom_site_fract_x
 _atom_site_fract_y
 _atom_site_fract_z
 _atom_site_occupancy
  Na  Na0  1  0.31613726  0.00336006  0.24640799  1
  Na  Na1  1  0.18720717  0.35950667  0.24903870  1
  Na  Na2  1  0.49774459  0.63324145  0.25215984  1
  Na  Na3  1  0.31046823  0.62040924  0.74537166  1
  Na  Na4  1  0.81564089  0.62964555  0.74622103  1
  Na  Na5  1  0.00083712  0.35968145  0.75162059  1
  Na  Na6  1  0.18400244  0.01167340  0.75362735  1
  Na  Na7  1  0.68792198  0.01613230  0.74906757  1
  Na  Na8  1  0.15850494  0.34774084  0.58641562  1
  Na  Na9  1  0.82990709  0.70119819  0.08187719  1
  Na  Na10  1  0.48189907  0.65744891  0.91749981  1
  Na  Na11  1  0.35207527  0.03954296  0.91726317  1
  Na  Na12  1  0.85451726  0.04036635  0.91902677  1
  Na  Na13  1  0.66205298  0.30026678  0.91713063  1
  Na  Na14  1  0.98094868  0.30489912  0.41627738  1
  Na  Na15  1  0.16156098  0.02322433  0.41619239  1
  Na  Na16  1  0.35428089  0.66810103  0.41998242  1
  Na  Na17  1  0.85192203  0.66459321  0.41629063  1
  Na  Na18  1  0.99570122  0.98259482  0.49817796  1
  Na  Na19  1  0.50303238  0.00250398  0.49990291  1
  Na  Na20  1  0.00696467  0.01249873  0.99872525  1
  Na  Na21  1  0.49932011  0.00817228  0.99896217  1
  Na  Na22  1  0.32986933  0.32952722  0.83407324  1
  Na  Na23  1  0.83487334  0.33368583  0.83071339  1
  Na  Na24  1  0.33465241  0.33462720  0.33056728  1
  Na  Na25  1  0.83097321  0.33249826  0.33303163  1
  Na  Na26  1  0.16418089  0.67060105  0.16271879  1
  Na  Na27  1  0.67262753  0.68160774  0.16335309  1
  Na  Na28  1  0.17142178  0.66526308  0.66258942  1
  Na  Na29  1  0.66453026  0.65725264  0.66234517  1
  Zn  Zn30  1  0.00178140  0.97781270  0.34746910  1
  Zn  Zn31  1  0.50359574  0.99938616  0.34912922  1
  Zn  Zn32  1  0.00602523  0.01978664  0.84687306  1
  Zn  Zn33  1  0.50432064  0.02722775  0.84878435  1
  Zn  Zn34  1  0.32969137  0.34445147  0.67911184  1
  Zn  Zn35  1  0.82597896  0.31800351  0.68427545  1
  Zn  Zn36  1  0.32654857  0.33389045  0.18430204  1
  Zn  Zn37  1  0.83237426  0.32033575  0.17907897  1
  Zn  Zn38  1  0.33307956  0.32953611  0.98271062  1
  Zn  Zn39  1  0.84366788  0.33009508  0.99195217  1
  Zn  Zn40  1  0.34615496  0.35564129  0.49184448  1
  Zn  Zn41  1  0.83234455  0.33597238  0.48211001  1
  Zn  Zn42  1  0.16425513  0.66352879  0.01534822  1
  Zn  Zn43  1  0.66367248  0.66630883  0.02057208  1
  Zn  Zn44  1  0.16909174  0.67762057  0.51977938  1
  Zn  Zn45  1  0.66315837  0.66342160  0.51560806  1
  Zn  Zn46  1  0.67104592  0.66713350  0.32028255  1
  Zn  Zn47  1  0.16466549  0.65011891  0.81974002  1
  Si  Si48  1  0.14616220  0.00289919  0.25031991  1
  Si  Si49  1  0.35434482  0.70695808  0.25400052  1
  Si  Si50  1  0.15034988  0.29681103  0.75070162  1
  Si  Si51  1  0.64597807  0.28947612  0.75030521  1
  Si  Si52  1  0.85219753  0.00031016  0.75438390  1
  Si  Si53  1  0.33259764  0.63383712  0.58238725  1
  Si  Si54  1  0.83002481  0.03450192  0.08288079  1
  Si  Si55  1  0.51938902  0.37471057  0.92087783  1
  Si  Si56  1  0.01923192  0.66443741  0.42100440  1
  Sn  Sn57  1  0.99531402  0.00115433  0.65195325  1
  Sn  Sn58  1  0.50038506  0.00569964  0.64540844  1
  Sn  Sn59  1  0.00052224  0.00213845  0.14814584  1
  Sn  Sn60  1  0.49728893  0.99545210  0.15010400  1
  Sn  Sn61  1  0.16168279  0.67240548  0.31396612  1
  Sn  Sn62  1  0.66229576  0.65153822  0.81471746  1
  S  S63  1  0.64825067  0.00280927  0.25129004  1
  S  S64  1  0.84940388  0.69859171  0.25011181  1
  S  S65  1  0.99719798  0.29025772  0.25263775  1
  S  S66  1  0.50351639  0.29542214  0.25072272  1
  S  S67  1  0.00073526  0.70908160  0.75088151  1
  S  S68  1  0.49932988  0.70860639  0.75186075  1
  S  S69  1  0.35294633  0.00236362  0.75071965  1
  S  S70  1  0.48090304  0.33714040  0.58404307  1
  S  S71  1  0.97779456  0.33080942  0.58372716  1
  S  S72  1  0.18504148  0.03681902  0.58423517  1
  S  S73  1  0.68802969  0.03791014  0.58207483  1
  S  S74  1  0.83335559  0.62888758  0.58398106  1
  S  S75  1  0.47871562  0.62644611  0.08461665  1
  S  S76  1  0.98157652  0.62568234  0.08366725  1
  S  S77  1  0.33319043  0.03771851  0.08360255  1
  S  S78  1  0.18815094  0.33846048  0.08216561  1
  S  S79  1  0.68504407  0.32807041  0.08430093  1
  S  S80  1  0.31261354  0.66537805  0.91691513  1
  S  S81  1  0.81721632  0.66570062  0.91790565  1
  S  S82  1  0.01934707  0.37492432  0.91717403  1
  S  S83  1  0.16423405  0.95455724  0.91656021  1
  S  S84  1  0.66647328  0.96049331  0.91646925  1
  S  S85  1  0.31634111  0.96660309  0.41777818  1
  S  S86  1  0.81118113  0.95784929  0.41704689  1
  S  S87  1  0.16618428  0.37227548  0.41676640  1
  S  S88  1  0.66397614  0.37160385  0.41677887  1
  S  S89  1  0.52109023  0.66630021  0.41558820  1
  O  O90  1  0.11014346  0.04824775  0.30928516  1
  O  O91  1  0.60686162  0.02881735  0.30330030  1
  O  O92  1  0.41293469  0.79210367  0.31167040  1
  O  O93  1  0.90211496  0.78021452  0.30366799  1
  O  O94  1  0.48771223  0.18420376  0.30209240  1
  O  O95  1  0.98609886  0.18888942  0.30623947  1
  O  O96  1  0.10720289  0.16443279  0.80431905  1
  O  O97  1  0.61052805  0.17222046  0.80901611  1
  O  O98  1  0.48481622  0.78494166  0.80573973  1
  O  O99  1  0.98296510  0.78481680  0.80253502  1
  O  O100  1  0.40322476  0.02363416  0.80507481  1
  O  O101  1  0.90840647  0.03012369  0.81299592  1
  O  O102  1  0.39234435  0.96359409  0.69815731  1
  O  O103  1  0.88799273  0.94197450  0.69553016  1
  O  O104  1  0.08827701  0.21699501  0.68899580  1
  O  O105  1  0.58418924  0.20077771  0.69222081  1
  O  O106  1  0.01838768  0.81906033  0.69585541  1
  O  O107  1  0.51534882  0.81948813  0.69862816  1
  O  O108  1  0.39259588  0.83693617  0.19552398  1
  O  O109  1  0.88978923  0.80914757  0.19550572  1
  O  O110  1  0.01507458  0.21382775  0.19877819  1
  O  O111  1  0.51927445  0.21937994  0.19531456  1
  O  O112  1  0.08471135  0.96848134  0.19196588  1
  O  O113  1  0.59052988  0.96610500  0.19632444  1
  O  O114  1  0.43968518  0.35622011  0.63750461  1
  O  O115  1  0.93744617  0.35038005  0.63799101  1
  O  O116  1  0.23561416  0.11731026  0.63819126  1
  O  O117  1  0.73628002  0.11082708  0.63773979  1
  O  O118  1  0.31500899  0.51924046  0.64178452  1
  O  O119  1  0.82406746  0.52985322  0.63812108  1
  O  O120  1  0.43783911  0.52520472  0.13860513  1
  O  O121  1  0.94139949  0.52547250  0.13762578  1
  O  O122  1  0.32393621  0.11871704  0.13819599  1
  O  O123  1  0.81719808  0.12174458  0.14087864  1
  O  O124  1  0.23663119  0.36253435  0.13790091  1
  O  O125  1  0.73935617  0.35632085  0.13672453  1
  O  O126  1  0.22905907  0.30843756  0.03039350  1
  O  O127  1  0.72109864  0.29960912  0.02911438  1
  O  O128  1  0.42691914  0.55445092  0.03066970  1
  O  O129  1  0.92590617  0.55418849  0.03065659  1
  O  O130  1  0.34742301  0.14165073  0.02992120  1
  O  O131  1  0.85069474  0.14049346  0.02103037  1
  O  O132  1  0.22297398  0.14447731  0.53035761  1
  O  O133  1  0.72916477  0.14945292  0.53037926  1
  O  O134  1  0.34912137  0.55581872  0.52148975  1
  O  O135  1  0.84770741  0.55317939  0.52987619  1
  O  O136  1  0.42806389  0.30152959  0.52976638  1
  O  O137  1  0.92629720  0.30206428  0.52997216  1
  O  O138  1  0.27231022  0.69859971  0.96873466  1
  O  O139  1  0.77630683  0.69704510  0.96980762  1
  O  O140  1  0.07345957  0.46035827  0.96935882  1
  O  O141  1  0.58752803  0.46758494  0.97356241  1
  O  O142  1  0.15453949  0.84881073  0.96929672  1
  O  O143  1  0.65455828  0.85125802  0.96813958  1
  O  O144  1  0.27533684  0.85149259  0.46788426  1
  O  O145  1  0.77241180  0.84608870  0.46935825  1
  O  O146  1  0.15459351  0.45482504  0.46935450  1
  O  O147  1  0.65173392  0.45266097  0.47030233  1
  O  O148  1  0.08703436  0.70769301  0.47365765  1
  O  O149  1  0.57406157  0.68833112  0.46834325  1
  O  O150  1  0.05823933  0.61532890  0.36035208  1
  O  O151  1  0.56037821  0.64418292  0.36016417  1
  O  O152  1  0.26184248  0.88979901  0.36127885  1
  O  O153  1  0.75952527  0.88001676  0.36274825  1
  O  O154  1  0.18353494  0.48354498  0.36200959  1
  O  O155  1  0.68147099  0.48245980  0.36338761  1
  O  O156  1  0.05728219  0.47369012  0.86173448  1
  O  O157  1  0.55815389  0.50116645  0.86039794  1
  O  O158  1  0.18077740  0.87875745  0.86150178  1
  O  O159  1  0.68351322  0.88464759  0.86100433  1
  O  O160  1  0.26334118  0.64245265  0.86159909  1
  O  O161  1  0.76137723  0.63378108  0.86230551  1
  O  O162  1  0.00768311  0.83490334  0.41361899  1
  O  O163  1  0.51039820  0.82124204  0.41296354  1
  O  O164  1  0.40246902  0.98376994  0.40991872  1
  O  O165  1  0.90040486  0.97935422  0.41079559  1
  O  O166  1  0.08574605  0.20251821  0.41072482  1
  O  O167  1  0.58650197  0.19864898  0.40960846  1
  O  O168  1  0.00891347  0.19903700  0.91445006  1
  O  O169  1  0.50760586  0.18089244  0.91383537  1
  O  O170  1  0.08615368  0.97047276  0.91181660  1
  O  O171  1  0.58573661  0.96855596  0.91105112  1
  O  O172  1  0.40171642  0.82197759  0.91144862  1
  O  O173  1  0.90265331  0.82113591  0.90993813  1
  O  O174  1  0.49024037  0.17745120  0.58730412  1
  O  O175  1  0.98873587  0.16940354  0.58672637  1
  O  O176  1  0.09559084  0.02677145  0.58873845  1
  O  O177  1  0.59930829  0.02223978  0.58687896  1
  O  O178  1  0.42290249  0.82781785  0.58919912  1
  O  O179  1  0.91681553  0.80776567  0.58803635  1
  O  O180  1  0.48846511  0.80818013  0.08925693  1
  O  O181  1  0.98798420  0.80226998  0.08808847  1
  O  O182  1  0.41650031  0.02553036  0.08751665  1
  O  O183  1  0.91988461  0.00808290  0.08985294  1
  O  O184  1  0.09926834  0.17682006  0.08719171  1
  O  O185  1  0.59494839  0.16535877  0.09039777  1
  O  O186  1  0.34489676  0.15621433  0.74265584  1
  O  O187  1  0.84584639  0.17257178  0.74428795  1
  O  O188  1  0.24630334  0.31486182  0.74512177  1
  O  O189  1  0.74408182  0.32152220  0.74309312  1
  O  O190  1  0.42461808  0.53460510  0.74456184  1
  O  O191  1  0.92435317  0.53504534  0.74194580  1
  O  O192  1  0.34632085  0.52007497  0.24439788  1
  O  O193  1  0.84288496  0.52883922  0.24216754  1
  O  O194  1  0.42430158  0.30925734  0.24308337  1
  O  O195  1  0.92367390  0.31787362  0.24532479  1
  O  O196  1  0.24416580  0.16746052  0.24320743  1
  O  O197  1  0.73348200  0.15753495  0.24412208  1
  O  O198  1  0.32275612  0.51187521  0.92323001  1
  O  O199  1  0.82029435  0.50423261  0.92302187  1
  O  O200  1  0.42257091  0.35539101  0.92336510  1
  O  O201  1  0.93110927  0.35646325  0.92076665  1
  O  O202  1  0.24472216  0.12828106  0.92224068  1
  O  O203  1  0.74285183  0.13625321  0.92011168  1
  O  O204  1  0.31974410  0.13530299  0.42353458  1
  O  O205  1  0.82203774  0.13240950  0.42331265  1
  O  O206  1  0.24310464  0.34891705  0.41984789  1
  O  O207  1  0.74434644  0.35858537  0.42236073  1
  O  O208  1  0.43246052  0.50890302  0.41933696  1
  O  O209  1  0.92245674  0.49027951  0.42325654  1
  O  O210  1  0.17693522  0.49041322  0.07601031  1
  O  O211  1  0.67493457  0.48150304  0.08029821  1
  O  O212  1  0.06851843  0.64730423  0.07663538  1
  O  O213  1  0.56629146  0.64992590  0.08007205  1
  O  O214  1  0.25722346  0.86275517  0.07811580  1
  O  O215  1  0.74979331  0.83404709  0.07690722  1
  O  O216  1  0.17303154  0.86404845  0.57998205  1
  O  O217  1  0.67678333  0.86345561  0.57568498  1
  O  O218  1  0.24339468  0.64412163  0.57650695  1
  O  O219  1  0.75716208  0.65156059  0.57835322  1
  O  O220  1  0.06643832  0.47981252  0.57951710  1
  O  O221  1  0.56818604  0.49143355  0.57780558  1
  O  O222  1  0.15820760  0.83118619  0.25305452  1
  O  O223  1  0.65192643  0.84054843  0.25539277  1
  O  O224  1  0.25461408  0.68084525  0.25848272  1
  O  O225  1  0.76320490  0.68481422  0.25531494  1
  O  O226  1  0.08203732  0.46165619  0.25507360  1
  O  O227  1  0.57945933  0.47187555  0.25574198  1
  O  O228  1  0.15640439  0.48655885  0.75485198  1
  O  O229  1  0.65752497  0.48473383  0.75336188  1
  O  O230  1  0.08022434  0.69537586  0.75584124  1
  O  O231  1  0.58249572  0.70409237  0.75530163  1
  O  O232  1  0.26480588  0.84559831  0.75516821  1
  O  O233  1  0.75248493  0.82728537  0.75852369  1
