# generated using pymatgen
data_Na6La4Sc4Si3(S3O16)3
_symmetry_space_group_name_H-M   'P 1'
_cell_length_a   18.51582243
_cell_length_b   9.25566074
_cell_length_c   24.22065390
_cell_angle_alpha   90.10264525
_cell_angle_beta   90.03792100
_cell_angle_gamma   119.98327815
_symmetry_Int_Tables_number   1
_chemical_formula_structural   Na6La4Sc4Si3(S3O16)3
_chemical_formula_sum   'Na18 La12 Sc12 Si9 S27 O144'
_cell_volume   3595.32939655
_cell_formula_units_Z   3
loop_
 _symmetry_equiv_pos_site_id
 _symmetry_equiv_pos_as_xyz
  1  'x, y, z'
loop_
 _atom_site_type_symbol
 _atom_site_label
 _atom_site_symmetry_multiplicity
 _atom_site_fract_x
 _atom_site_fract_y
 _atom_site_fract_z
 _atom_site_occupancy
  Na  Na0  1  0.00498260  0.64462234  0.25368770  1
  Na  Na1  1  0.50353583  0.36570102  0.74390649  1
  Na  Na2  1  0.16100533  0.30605163  0.91355403  1
  Na  Na3  1  0.66098203  0.30354782  0.91139859  1
  Na  Na4  1  0.16340916  0.02298301  0.41615475  1
  Na  Na5  1  0.65933936  0.00965746  0.41851124  1
  Na  Na6  1  0.99365026  0.98744138  0.49696479  1
  Na  Na7  1  0.49279206  0.00020042  0.50040525  1
  Na  Na8  1  0.99419907  0.00333865  0.99209551  1
  Na  Na9  1  0.49385179  0.00108288  0.99414220  1
  Na  Na10  1  0.33120184  0.33303793  0.82549392  1
  Na  Na11  1  0.83824238  0.33542878  0.83271141  1
  Na  Na12  1  0.34135667  0.34802578  0.33931607  1
  Na  Na13  1  0.83207073  0.33084809  0.33471630  1
  Na  Na14  1  0.17343421  0.68092616  0.17383294  1
  Na  Na15  1  0.66571988  0.68293405  0.17370806  1
  Na  Na16  1  0.16913701  0.65145033  0.67122816  1
  Na  Na17  1  0.66183894  0.65002009  0.66495877  1
  La  La18  1  0.00189826  0.01199267  0.64913473  1
  La  La19  1  0.50716590  0.01949846  0.64610555  1
  La  La20  1  0.00854186  0.00533301  0.14983576  1
  La  La21  1  0.50100627  0.99147550  0.14958439  1
  La  La22  1  0.82665408  0.33182132  0.69107710  1
  La  La23  1  0.32791411  0.32388546  0.19232146  1
  La  La24  1  0.15827503  0.65605203  0.01337025  1
  La  La25  1  0.66484425  0.65846027  0.01432555  1
  La  La26  1  0.16660031  0.67185620  0.51500639  1
  La  La27  1  0.64729354  0.64358446  0.51806182  1
  La  La28  1  0.66016364  0.67211876  0.31931742  1
  La  La29  1  0.16018342  0.64688355  0.81677443  1
  Sc  Sc30  1  0.00236885  0.99317314  0.35078499  1
  Sc  Sc31  1  0.50742172  0.99368555  0.34788193  1
  Sc  Sc32  1  0.00806080  0.02309445  0.84565173  1
  Sc  Sc33  1  0.50192328  0.01141822  0.84784076  1
  Sc  Sc34  1  0.33047101  0.33458660  0.68349015  1
  Sc  Sc35  1  0.82334778  0.31584947  0.18833944  1
  Sc  Sc36  1  0.34487602  0.33436057  0.97756003  1
  Sc  Sc37  1  0.83884078  0.33164181  0.97998719  1
  Sc  Sc38  1  0.34657193  0.34633005  0.48407097  1
  Sc  Sc39  1  0.84387949  0.35316624  0.47867299  1
  Sc  Sc40  1  0.16121024  0.67004969  0.32024173  1
  Sc  Sc41  1  0.65937569  0.65186622  0.81801577  1
  Si  Si42  1  0.14645169  0.98850036  0.25693844  1
  Si  Si43  1  0.65198018  0.00547991  0.25075648  1
  Si  Si44  1  0.15608621  0.29751929  0.75039838  1
  Si  Si45  1  0.64751060  0.30411981  0.75754465  1
  Si  Si46  1  0.47353974  0.33147284  0.58781772  1
  Si  Si47  1  0.00934455  0.34741301  0.91680157  1
  Si  Si48  1  0.51618476  0.36028731  0.91333278  1
  Si  Si49  1  0.01588495  0.66947709  0.41355345  1
  Si  Si50  1  0.50802015  0.66940559  0.41585819  1
  S  S51  1  0.34817672  0.70998858  0.25614213  1
  S  S52  1  0.85441627  0.69878945  0.24976444  1
  S  S53  1  -0.00007227  0.30173758  0.25276111  1
  S  S54  1  0.50066949  0.28927253  0.25316124  1
  S  S55  1  0.99968760  0.71201823  0.75332262  1
  S  S56  1  0.50056144  0.70231409  0.75358673  1
  S  S57  1  0.35430794  0.00843829  0.75142341  1
  S  S58  1  0.84837361  0.98752986  0.75640674  1
  S  S59  1  0.97650550  0.33242876  0.57993449  1
  S  S60  1  0.19301323  0.05291646  0.58138159  1
  S  S61  1  0.69140268  0.04648393  0.57718098  1
  S  S62  1  0.33204007  0.61211094  0.58343654  1
  S  S63  1  0.83486644  0.62542823  0.57865534  1
  S  S64  1  0.47637870  0.62079884  0.07993363  1
  S  S65  1  0.97148233  0.61138809  0.08474724  1
  S  S66  1  0.33378457  0.04372037  0.07890270  1
  S  S67  1  0.83313236  0.05422740  0.08380489  1
  S  S68  1  0.18946849  0.33465200  0.07802576  1
  S  S69  1  0.69438534  0.33429154  0.08223660  1
  S  S70  1  0.32323243  0.66478072  0.91862811  1
  S  S71  1  0.81785431  0.66539448  0.91400353  1
  S  S72  1  0.16745833  0.98227369  0.91699669  1
  S  S73  1  0.66616437  0.96977507  0.91437770  1
  S  S74  1  0.31747637  0.96844998  0.41263393  1
  S  S75  1  0.82276249  0.97970937  0.41888209  1
  S  S76  1  0.16489641  0.36296411  0.41280400  1
  S  S77  1  0.66809005  0.35217267  0.41610407  1
  O  O78  1  0.09432436  0.00917899  0.30820036  1
  O  O79  1  0.60656807  0.02342593  0.30690342  1
  O  O80  1  0.40495806  0.80602579  0.30158798  1
  O  O81  1  0.90685920  0.78482950  0.29885520  1
  O  O82  1  0.49585996  0.18793352  0.30104703  1
  O  O83  1  0.98574744  0.19198121  0.30006359  1
  O  O84  1  0.10777689  0.19108827  0.80778054  1
  O  O85  1  0.59743757  0.18259931  0.81030580  1
  O  O86  1  0.48887593  0.78785443  0.80166900  1
  O  O87  1  0.99535261  0.80501000  0.80169864  1
  O  O88  1  0.40693236  0.02293047  0.80052440  1
  O  O89  1  0.90599149  0.00656271  0.80223906  1
  O  O90  1  0.38983172  0.98020150  0.70089988  1
  O  O91  1  0.88033045  0.96330266  0.70304071  1
  O  O92  1  0.09526903  0.20572138  0.69735692  1
  O  O93  1  0.59197486  0.22981795  0.70149705  1
  O  O94  1  0.00101765  0.79423703  0.70077459  1
  O  O95  1  0.51285495  0.79605720  0.70213437  1
  O  O96  1  0.37987246  0.79681818  0.20231136  1
  O  O97  1  0.89111424  0.79978833  0.19926976  1
  O  O98  1  0.01256889  0.23126281  0.20091580  1
  O  O99  1  0.50185994  0.20932956  0.20015089  1
  O  O100  1  0.09074115  0.95298742  0.19997628  1
  O  O101  1  0.59541407  0.98238939  0.19605976  1
  O  O102  1  0.42562135  0.33839371  0.64449227  1
  O  O103  1  0.93797403  0.34147903  0.63209261  1
  O  O104  1  0.24082268  0.14343140  0.63116213  1
  O  O105  1  0.73476898  0.12940132  0.62937909  1
  O  O106  1  0.32583439  0.51669331  0.63434759  1
  O  O107  1  0.82954305  0.53679136  0.63079648  1
  O  O108  1  0.43769776  0.53440334  0.13203875  1
  O  O109  1  0.93045605  0.52010782  0.13606026  1
  O  O110  1  0.32826004  0.12139382  0.13108317  1
  O  O111  1  0.82892128  0.14148567  0.13456757  1
  O  O112  1  0.23332823  0.34131461  0.13010270  1
  O  O113  1  0.74304825  0.34088210  0.13225503  1
  O  O114  1  0.23470656  0.32820743  0.02874386  1
  O  O115  1  0.73601255  0.32608025  0.03075201  1
  O  O116  1  0.42673231  0.52388231  0.03125767  1
  O  O117  1  0.92394215  0.52177382  0.03430440  1
  O  O118  1  0.33680020  0.14618127  0.03064205  1
  O  O119  1  0.83694232  0.14994713  0.03348511  1
  O  O120  1  0.23275421  0.14151697  0.52914070  1
  O  O121  1  0.73738177  0.14635959  0.52816126  1
  O  O122  1  0.33381891  0.52328112  0.53287200  1
  O  O123  1  0.83814342  0.52764165  0.53042900  1
  O  O124  1  0.42328300  0.32969535  0.53108696  1
  O  O125  1  0.92683622  0.32976121  0.53120160  1
  O  O126  1  0.28536643  0.69874591  0.96746903  1
  O  O127  1  0.78579112  0.70050115  0.96593716  1
  O  O128  1  0.07435918  0.42830790  0.96947116  1
  O  O129  1  0.57803635  0.43793299  0.96750418  1
  O  O130  1  0.15471803  0.88016149  0.96698286  1
  O  O131  1  0.65420751  0.87360903  0.96587147  1
  O  O132  1  0.28566809  0.87003281  0.46439295  1
  O  O133  1  0.78506498  0.87109249  0.46707157  1
  O  O134  1  0.15271141  0.43440162  0.46441362  1
  O  O135  1  0.65583720  0.42904162  0.46580865  1
  O  O136  1  0.07900321  0.71707387  0.46654691  1
  O  O137  1  0.57554138  0.72544857  0.46685017  1
  O  O138  1  0.06169360  0.64000298  0.35952077  1
  O  O139  1  0.54875445  0.63023054  0.36208692  1
  O  O140  1  0.25764133  0.87481487  0.36657213  1
  O  O141  1  0.76888041  0.90873665  0.36897967  1
  O  O142  1  0.17705103  0.47387621  0.36537197  1
  O  O143  1  0.68566014  0.45797698  0.36708220  1
  O  O144  1  0.04914926  0.46961666  0.86421403  1
  O  O145  1  0.56330256  0.48557326  0.86113833  1
  O  O146  1  0.18490683  0.91038617  0.86839531  1
  O  O147  1  0.68075209  0.88846933  0.86687620  1
  O  O148  1  0.26814614  0.62798366  0.86978594  1
  O  O149  1  0.75870716  0.63615793  0.86795643  1
  O  O150  1  0.00716333  0.83830298  0.40516940  1
  O  O151  1  0.50388190  0.84235763  0.40552876  1
  O  O152  1  0.40159139  0.99831597  0.40190893  1
  O  O153  1  0.90714590  0.00491601  0.40848013  1
  O  O154  1  0.08823095  0.19398903  0.40540938  1
  O  O155  1  0.59193021  0.18483432  0.40885000  1
  O  O156  1  0.00521208  0.16650355  0.90749162  1
  O  O157  1  0.50688033  0.17394322  0.90549535  1
  O  O158  1  0.09131326  0.99759893  0.91006975  1
  O  O159  1  0.59088468  0.98830616  0.90710810  1
  O  O160  1  0.40713819  0.80852944  0.90945581  1
  O  O161  1  0.90245554  0.80441318  0.90414388  1
  O  O162  1  0.48221029  0.16326788  0.58301140  1
  O  O163  1  0.98218647  0.17774293  0.57719688  1
  O  O164  1  0.10742113  0.03070438  0.58289229  1
  O  O165  1  0.60675816  0.02704507  0.57668354  1
  O  O166  1  0.40828753  0.77816765  0.58475037  1
  O  O167  1  0.91239857  0.79094614  0.57793634  1
  O  O168  1  0.48213228  0.78684223  0.07746279  1
  O  O169  1  0.97915683  0.77970990  0.08383706  1
  O  O170  1  0.41033512  0.03007678  0.07809849  1
  O  O171  1  0.90910312  0.03843771  0.08516831  1
  O  O172  1  0.10469981  0.18227303  0.07807403  1
  O  O173  1  0.60955554  0.18492276  0.08352016  1
  O  O174  1  0.35443834  0.17041952  0.74810272  1
  O  O175  1  0.84386094  0.14416905  0.75433388  1
  O  O176  1  0.24693927  0.30769237  0.74406421  1
  O  O177  1  0.73959624  0.32064547  0.75587428  1
  O  O178  1  0.42653387  0.52914360  0.74883848  1
  O  O179  1  0.92537492  0.54114097  0.75467249  1
  O  O180  1  0.34321567  0.54387519  0.25379710  1
  O  O181  1  0.85528814  0.53666460  0.24375321  1
  O  O182  1  0.42611873  0.31146644  0.25387885  1
  O  O183  1  0.92644204  0.32911715  0.24538106  1
  O  O184  1  0.23785268  0.15601508  0.25389163  1
  O  O185  1  0.74450138  0.18035964  0.24313743  1
  O  O186  1  0.32602130  0.50696756  0.92805660  1
  O  O187  1  0.81772172  0.50228736  0.92199589  1
  O  O188  1  0.42428667  0.34421068  0.92449737  1
  O  O189  1  0.91816518  0.33131168  0.93017271  1
  O  O190  1  0.23983765  0.15630369  0.92614660  1
  O  O191  1  0.73960543  0.14431267  0.92196789  1
  O  O192  1  0.31591451  0.12908681  0.41916967  1
  O  O193  1  0.82677106  0.14545974  0.42738084  1
  O  O194  1  0.23722419  0.33485382  0.41834461  1
  O  O195  1  0.74059531  0.32225774  0.42453305  1
  O  O196  1  0.41688915  0.50385171  0.42664465  1
  O  O197  1  0.92377484  0.50241583  0.42377098  1
  O  O198  1  0.18076034  0.48633954  0.07858624  1
  O  O199  1  0.68770056  0.48836085  0.08299300  1
  O  O200  1  0.05690503  0.63227280  0.08310610  1
  O  O201  1  0.56169028  0.64286403  0.07807718  1
  O  O202  1  0.25854678  0.87498096  0.07628785  1
  O  O203  1  0.75747144  0.88622552  0.08207354  1
  O  O204  1  0.18594646  0.88461843  0.58233894  1
  O  O205  1  0.68572046  0.88109049  0.57750579  1
  O  O206  1  0.25664150  0.63168736  0.58204807  1
  O  O207  1  0.76069492  0.64507763  0.57553413  1
  O  O208  1  0.06168579  0.48092562  0.57788544  1
  O  O209  1  0.56748189  0.49898703  0.58907720  1
  O  O210  1  0.15289493  0.81663978  0.26272604  1
  O  O211  1  0.66689083  0.84569302  0.25166976  1
  O  O212  1  0.26321362  0.68564281  0.26401134  1
  O  O213  1  0.76870500  0.66622017  0.25540306  1
  O  O214  1  0.07557540  0.47130074  0.26001478  1
  O  O215  1  0.57738930  0.45571959  0.25334794  1
  O  O216  1  0.16686173  0.48514106  0.75218718  1
  O  O217  1  0.65405683  0.48887949  0.76438065  1
  O  O218  1  0.07645167  0.69927234  0.75400973  1
  O  O219  1  0.57623531  0.68285527  0.76146583  1
  O  O220  1  0.26857607  0.86826903  0.75770155  1
  O  O221  1  0.76426159  0.84260335  0.76559273  1
