# generated using pymatgen
data_MgFe2(OF)2
_symmetry_space_group_name_H-M   'P 1'
_cell_length_a   5.53874475
_cell_length_b   5.40824063
_cell_length_c   3.09142919
_cell_angle_alpha   90.00000000
_cell_angle_beta   90.00000000
_cell_angle_gamma   78.77666611
_symmetry_Int_Tables_number   1
_chemical_formula_structural   MgFe2(OF)2
_chemical_formula_sum   'Mg1 Fe2 O2 F2'
_cell_volume   90.83239320
_cell_formula_units_Z   1
loop_
 _symmetry_equiv_pos_site_id
 _symmetry_equiv_pos_as_xyz
  1  'x, y, z'
loop_
 _atom_site_type_symbol
 _atom_site_label
 _atom_site_symmetry_multiplicity
 _atom_site_fract_x
 _atom_site_fract_y
 _atom_site_fract_z
 _atom_site_occupancy
  Mg  Mg0  1  0.52963931  0.95634352  0.50000000  1
  Fe  Fe1  1  0.01573263  0.13992639  0.00000000  1
  Fe  Fe2  1  0.47462473  0.44442324  0.50000000  1
  O  O3  1  0.35366641  0.21082555  0.00000000  1
  O  O4  1  0.78765702  0.17590047  0.50000000  1
  F  F5  1  0.23731352  0.78477823  0.50000000  1
  F  F6  1  0.64303337  0.70446959  0.00000000  1
