# generated using pymatgen
data_Na6Hf2Mg6SiS11O48
_symmetry_space_group_name_H-M   'P 1'
_cell_length_a   17.55353606
_cell_length_b   8.77451398
_cell_length_c   22.72817456
_cell_angle_alpha   90.14777058
_cell_angle_beta   89.98501512
_cell_angle_gamma   119.97823313
_symmetry_Int_Tables_number   1
_chemical_formula_structural   Na6Hf2Mg6SiS11O48
_chemical_formula_sum   'Na18 Hf6 Mg18 Si3 S33 O144'
_cell_volume   3032.32913946
_cell_formula_units_Z   3
loop_
 _symmetry_equiv_pos_site_id
 _symmetry_equiv_pos_as_xyz
  1  'x, y, z'
loop_
 _atom_site_type_symbol
 _atom_site_label
 _atom_site_symmetry_multiplicity
 _atom_site_fract_x
 _atom_site_fract_y
 _atom_site_fract_z
 _atom_site_occupancy
  Na  Na0  1  0.68674158  0.36485101  0.24468058  1
  Na  Na1  1  0.99563670  0.63450810  0.25350270  1
  Na  Na2  1  0.33463140  0.96593078  0.58926585  1
  Na  Na3  1  0.83544396  0.96659365  0.58929761  1
  Na  Na4  1  0.33440491  0.69952913  0.08236148  1
  Na  Na5  1  0.34591669  0.66510444  0.41499292  1
  Na  Na6  1  0.00502765  0.99792424  0.49721023  1
  Na  Na7  1  0.50767058  0.01050788  0.50044132  1
  Na  Na8  1  0.99994137  0.99912435  0.99877024  1
  Na  Na9  1  0.50736617  0.01120318  0.00260337  1
  Na  Na10  1  0.33360903  0.32545714  0.83803857  1
  Na  Na11  1  0.83306589  0.32544916  0.83816546  1
  Na  Na12  1  0.32995922  0.32395598  0.33078305  1
  Na  Na13  1  0.83717623  0.33904028  0.33401150  1
  Na  Na14  1  0.16826841  0.66954090  0.16607428  1
  Na  Na15  1  0.66838282  0.67243377  0.15936915  1
  Na  Na16  1  0.16859689  0.66902242  0.67352576  1
  Na  Na17  1  0.66957577  0.66969897  0.67392694  1
  Hf  Hf18  1  0.99528956  0.00302509  0.85248046  1
  Hf  Hf19  1  0.49608671  0.00372373  0.85287422  1
  Hf  Hf20  1  0.99436902  0.99405072  0.14808103  1
  Hf  Hf21  1  0.33419237  0.32836622  0.68934677  1
  Hf  Hf22  1  0.83434386  0.32893148  0.68892378  1
  Hf  Hf23  1  0.66991352  0.67314410  0.31443017  1
  Mg  Mg24  1  0.99982912  0.99301155  0.35196992  1
  Mg  Mg25  1  0.49917245  0.00261410  0.34950719  1
  Mg  Mg26  1  0.99876733  0.99765714  0.65156844  1
  Mg  Mg27  1  0.49921243  0.99797028  0.65204858  1
  Mg  Mg28  1  0.50201103  0.00372709  0.14739132  1
  Mg  Mg29  1  0.33431780  0.33484127  0.18298993  1
  Mg  Mg30  1  0.83287428  0.33388227  0.18176704  1
  Mg  Mg31  1  0.33467152  0.32979744  0.98204372  1
  Mg  Mg32  1  0.83072696  0.33104778  0.98229804  1
  Mg  Mg33  1  0.33033874  0.32527650  0.48214534  1
  Mg  Mg34  1  0.83633590  0.34099441  0.48027416  1
  Mg  Mg35  1  0.16360066  0.66973916  0.01560724  1
  Mg  Mg36  1  0.66656153  0.66535830  0.01721300  1
  Mg  Mg37  1  0.16089518  0.65877520  0.51538877  1
  Mg  Mg38  1  0.66453451  0.66086196  0.51775618  1
  Mg  Mg39  1  0.16901098  0.66613938  0.31717757  1
  Mg  Mg40  1  0.17079914  0.67587158  0.81511869  1
  Mg  Mg41  1  0.67137148  0.67634244  0.81542860  1
  Si  Si42  1  0.85463143  0.70255572  0.25275310  1
  Si  Si43  1  0.34901997  0.98562620  0.74580831  1
  Si  Si44  1  0.84876243  0.98627815  0.74567095  1
  S  S45  1  0.14859880  0.00464092  0.25134180  1
  S  S46  1  0.64359654  0.00036576  0.24982773  1
  S  S47  1  0.35311896  0.70585234  0.25005749  1
  S  S48  1  0.00065950  0.29280115  0.25185621  1
  S  S49  1  0.49630117  0.28652351  0.25057911  1
  S  S50  1  0.14362534  0.29277409  0.74893102  1
  S  S51  1  0.64382270  0.29310774  0.74888319  1
  S  S52  1  0.00268392  0.71243043  0.74894079  1
  S  S53  1  0.50267586  0.71238979  0.74898549  1
  S  S54  1  0.48118860  0.33632769  0.58126967  1
  S  S55  1  0.98110666  0.33554780  0.58132967  1
  S  S56  1  0.18490966  0.04012473  0.58180776  1
  S  S57  1  0.68562395  0.04181459  0.58100415  1
  S  S58  1  0.33377224  0.62703874  0.58052362  1
  S  S59  1  0.83374872  0.62597951  0.58117656  1
  S  S60  1  0.47982195  0.62377957  0.08363937  1
  S  S61  1  0.98038398  0.62186280  0.08299902  1
  S  S62  1  0.33297301  0.04156191  0.08357361  1
  S  S63  1  0.83105275  0.04313325  0.08258423  1
  S  S64  1  0.18905843  0.33538629  0.08259749  1
  S  S65  1  0.68621864  0.33347465  0.08354110  1
  S  S66  1  0.31054292  0.66021919  0.91782916  1
  S  S67  1  0.81009376  0.66036081  0.91743019  1
  S  S68  1  0.02167662  0.38205132  0.91687115  1
  S  S69  1  0.52215803  0.38262808  0.91681095  1
  S  S70  1  0.16826996  0.95960315  0.91700886  1
  S  S71  1  0.66822025  0.95802278  0.91747322  1
  S  S72  1  0.31302609  0.96084135  0.41732116  1
  S  S73  1  0.81484138  0.96352459  0.41997015  1
  S  S74  1  0.16559540  0.37210871  0.41698626  1
  S  S75  1  0.66572042  0.37063067  0.41787266  1
  S  S76  1  0.02048446  0.66748024  0.41639898  1
  S  S77  1  0.51955033  0.66722273  0.41852639  1
  O  O78  1  0.10876342  0.03264513  0.30326785  1
  O  O79  1  0.60484770  0.03101448  0.30300974  1
  O  O80  1  0.40651888  0.78710431  0.30430199  1
  O  O81  1  0.91717245  0.79297894  0.30719723  1
  O  O82  1  0.48615376  0.18462916  0.30395186  1
  O  O83  1  0.98907968  0.18666551  0.30339273  1
  O  O84  1  0.10636171  0.17956950  0.80236061  1
  O  O85  1  0.60631561  0.17962050  0.80229063  1
  O  O86  1  0.48734324  0.79252958  0.80243658  1
  O  O87  1  0.98764981  0.79295467  0.80248171  1
  O  O88  1  0.41486514  0.02769105  0.80405966  1
  O  O89  1  0.91457112  0.02847660  0.80401924  1
  O  O90  1  0.39362176  0.97218065  0.68584841  1
  O  O91  1  0.89369834  0.97238584  0.68603413  1
  O  O92  1  0.09307343  0.20906173  0.69608136  1
  O  O93  1  0.59312670  0.20938487  0.69600127  1
  O  O94  1  0.01579192  0.81726948  0.69641647  1
  O  O95  1  0.51559979  0.81690006  0.69636472  1
  O  O96  1  0.39471097  0.81444499  0.19705781  1
  O  O97  1  0.89714417  0.82532144  0.19308938  1
  O  O98  1  0.01540832  0.21130298  0.19741724  1
  O  O99  1  0.51679337  0.21396621  0.19850379  1
  O  O100  1  0.09081762  0.97417672  0.19755317  1
  O  O101  1  0.59041222  0.97020514  0.19723555  1
  O  O102  1  0.43791986  0.36045127  0.63517467  1
  O  O103  1  0.93761268  0.36023057  0.63529717  1
  O  O104  1  0.24334057  0.12655785  0.63510470  1
  O  O105  1  0.74304639  0.12628030  0.63483277  1
  O  O106  1  0.32166634  0.51727813  0.63348606  1
  O  O107  1  0.82084237  0.51842411  0.63511706  1
  O  O108  1  0.43913425  0.51786164  0.13683080  1
  O  O109  1  0.94202073  0.52396814  0.13802215  1
  O  O110  1  0.32000713  0.12161112  0.13667210  1
  O  O111  1  0.82129996  0.12312204  0.13681576  1
  O  O112  1  0.24254272  0.36394820  0.13585416  1
  O  O113  1  0.73736371  0.35756191  0.13868226  1
  O  O114  1  0.22811472  0.30658293  0.02997185  1
  O  O115  1  0.72886663  0.30755861  0.03196406  1
  O  O116  1  0.42299193  0.54370586  0.03129650  1
  O  O117  1  0.92522577  0.54350112  0.03140413  1
  O  O118  1  0.34594442  0.14699517  0.03075879  1
  O  O119  1  0.84664025  0.15085888  0.03034262  1
  O  O120  1  0.22724556  0.14913767  0.53003631  1
  O  O121  1  0.72808008  0.15077350  0.52938911  1
  O  O122  1  0.34477780  0.54306541  0.52727994  1
  O  O123  1  0.84397707  0.53893711  0.52947609  1
  O  O124  1  0.42324828  0.30494289  0.53026084  1
  O  O125  1  0.92289652  0.30315953  0.53057100  1
  O  O126  1  0.27471336  0.69360099  0.97234630  1
  O  O127  1  0.77341859  0.69531265  0.97024216  1
  O  O128  1  0.07515536  0.45740653  0.97013227  1
  O  O129  1  0.57492993  0.45783018  0.96992156  1
  O  O130  1  0.15277275  0.85309229  0.97031069  1
  O  O131  1  0.65306158  0.85118639  0.97042895  1
  O  O132  1  0.27466909  0.85221770  0.47125086  1
  O  O133  1  0.77218396  0.85377784  0.47197910  1
  O  O134  1  0.15419655  0.45478672  0.47023485  1
  O  O135  1  0.65274508  0.45704551  0.46875269  1
  O  O136  1  0.07508078  0.68978805  0.46859244  1
  O  O137  1  0.57436408  0.69313348  0.46985541  1
  O  O138  1  0.05983537  0.64153800  0.36170966  1
  O  O139  1  0.56105872  0.64122867  0.36448879  1
  O  O140  1  0.25890004  0.87664241  0.36500362  1
  O  O141  1  0.75688678  0.87238422  0.36623453  1
  O  O142  1  0.18285801  0.48601630  0.36470970  1
  O  O143  1  0.67752773  0.48025101  0.36278325  1
  O  O144  1  0.06228211  0.48222574  0.86358757  1
  O  O145  1  0.56223275  0.48221755  0.86327318  1
  O  O146  1  0.17902199  0.87769080  0.86427352  1
  O  O147  1  0.67886265  0.87715014  0.86419876  1
  O  O148  1  0.25812325  0.63899077  0.86578612  1
  O  O149  1  0.75918397  0.63805192  0.86417950  1
  O  O150  1  0.01301245  0.82798684  0.41257988  1
  O  O151  1  0.50868196  0.82402645  0.41078671  1
  O  O152  1  0.40143854  0.97324445  0.41073222  1
  O  O153  1  0.90117748  0.98009151  0.41155516  1
  O  O154  1  0.08798757  0.19646501  0.40985222  1
  O  O155  1  0.58652580  0.19611592  0.40952286  1
  O  O156  1  0.01376559  0.19956545  0.91142704  1
  O  O157  1  0.51373135  0.19968094  0.91129378  1
  O  O158  1  0.08739943  0.97924891  0.91028549  1
  O  O159  1  0.58737051  0.97841087  0.91038458  1
  O  O160  1  0.40202689  0.82308164  0.91098197  1
  O  O161  1  0.90236567  0.82346351  0.91066498  1
  O  O162  1  0.48906597  0.17654695  0.58777416  1
  O  O163  1  0.98913706  0.17628633  0.58826693  1
  O  O164  1  0.09819254  0.02139677  0.59060646  1
  O  O165  1  0.59822505  0.02181466  0.58993716  1
  O  O166  1  0.41347649  0.80405756  0.58601667  1
  O  O167  1  0.91303784  0.80328077  0.58655079  1
  O  O168  1  0.48614285  0.80101964  0.09017114  1
  O  O169  1  0.99130492  0.80584274  0.08955272  1
  O  O170  1  0.41143626  0.01640239  0.08989656  1
  O  O171  1  0.91444946  0.02770433  0.08861884  1
  O  O172  1  0.09893331  0.17681645  0.09001511  1
  O  O173  1  0.59742502  0.17387679  0.08965280  1
  O  O174  1  0.34443122  0.17392017  0.74336266  1
  O  O175  1  0.84421089  0.17429529  0.74322506  1
  O  O176  1  0.23429813  0.31350170  0.74284940  1
  O  O177  1  0.73420813  0.31329109  0.74283958  1
  O  O178  1  0.41887478  0.53664220  0.74277953  1
  O  O179  1  0.91899722  0.53676645  0.74295408  1
  O  O180  1  0.34433890  0.52894665  0.24389813  1
  O  O181  1  0.84001000  0.50545933  0.24349890  1
  O  O182  1  0.42015967  0.31097070  0.24350392  1
  O  O183  1  0.92193242  0.31134394  0.24282306  1
  O  O184  1  0.23639187  0.15801851  0.24196961  1
  O  O185  1  0.73301352  0.15361784  0.24359086  1
  O  O186  1  0.32312515  0.50672368  0.92396703  1
  O  O187  1  0.82337254  0.50772260  0.92386715  1
  O  O188  1  0.43197871  0.35406377  0.92279755  1
  O  O189  1  0.93196791  0.35428305  0.92335827  1
  O  O190  1  0.24604415  0.13777174  0.92360286  1
  O  O191  1  0.74578368  0.13684894  0.92363556  1
  O  O192  1  0.32403875  0.13830385  0.42372579  1
  O  O193  1  0.81968718  0.13579095  0.42308112  1
  O  O194  1  0.24804547  0.35969027  0.42314673  1
  O  O195  1  0.74563543  0.35709347  0.42207432  1
  O  O196  1  0.43025891  0.50979051  0.42314593  1
  O  O197  1  0.93200799  0.50761966  0.42258468  1
  O  O198  1  0.18009572  0.49541128  0.07658904  1
  O  O199  1  0.67743872  0.49267035  0.07727798  1
  O  O200  1  0.06946042  0.64554185  0.07694936  1
  O  O201  1  0.56835322  0.64591961  0.07671130  1
  O  O202  1  0.25466398  0.85898134  0.07750361  1
  O  O203  1  0.75518784  0.86388204  0.07694466  1
  O  O204  1  0.18111204  0.86712506  0.57705094  1
  O  O205  1  0.68091666  0.86756294  0.57660870  1
  O  O206  1  0.25525756  0.64954678  0.57599774  1
  O  O207  1  0.75503994  0.64903723  0.57644237  1
  O  O208  1  0.06781183  0.49485396  0.57685620  1
  O  O209  1  0.56784262  0.49498714  0.57636210  1
  O  O210  1  0.15222624  0.83813874  0.25555751  1
  O  O211  1  0.65201809  0.83852766  0.25815537  1
  O  O212  1  0.26485048  0.68916564  0.25665938  1
  O  O213  1  0.75364777  0.67804593  0.25667215  1
  O  O214  1  0.07899698  0.47366938  0.25569353  1
  O  O215  1  0.57864253  0.46765333  0.25871355  1
  O  O216  1  0.15234291  0.46492012  0.75779597  1
  O  O217  1  0.65227676  0.46503117  0.75769956  1
  O  O218  1  0.07608606  0.68195971  0.75743565  1
  O  O219  1  0.57595126  0.68162736  0.75742619  1
  O  O220  1  0.25294562  0.82210397  0.75494151  1
  O  O221  1  0.75279060  0.82244536  0.75489229  1
