# generated using pymatgen
data_NaMgMn4O8
_symmetry_space_group_name_H-M   'P 1'
_cell_length_a   6.20878720
_cell_length_b   6.20864718
_cell_length_c   6.34251761
_cell_angle_alpha   86.48134848
_cell_angle_beta   119.07097416
_cell_angle_gamma   124.49805709
_symmetry_Int_Tables_number   1
_chemical_formula_structural   NaMgMn4O8
_chemical_formula_sum   'Na1 Mg1 Mn4 O8'
_cell_volume   168.17403014
_cell_formula_units_Z   1
loop_
 _symmetry_equiv_pos_site_id
 _symmetry_equiv_pos_as_xyz
  1  'x, y, z'
loop_
 _atom_site_type_symbol
 _atom_site_label
 _atom_site_symmetry_multiplicity
 _atom_site_fract_x
 _atom_site_fract_y
 _atom_site_fract_z
 _atom_site_occupancy
  Na  Na0  1  0.50694400  0.99475400  0.50154600  1
  Mg  Mg1  1  0.23034200  0.32523300  0.55543600  1
  Mn  Mn2  1  0.00007800  0.99480800  0.99473600  1
  Mn  Mn3  1  0.98748400  0.50326500  0.98761500  1
  Mn  Mn4  1  0.48449900  0.00030100  0.98761800  1
  Mn  Mn5  1  0.52557900  0.52835300  0.05380800  1
  O  O6  1  0.02868000  0.78528800  0.81388400  1
  O  O7  1  0.06268900  0.25727300  0.79339600  1
  O  O8  1  0.53278000  0.24972100  0.78239400  1
  O  O9  1  0.53626400  0.73086900  0.79340000  1
  O  O10  1  0.43669100  0.75137500  0.18786000  1
  O  O11  1  0.44909600  0.24053500  0.21107200  1
  O  O12  1  0.95650600  0.21986000  0.17616800  1
  O  O13  1  0.97070100  0.76211900  0.21108400  1
