# generated using pymatgen
data_Na4Mg(Mo2O5)2
_symmetry_space_group_name_H-M   'P 1'
_cell_length_a   6.08877628
_cell_length_b   5.98270533
_cell_length_c   8.46664074
_cell_angle_alpha   112.41363583
_cell_angle_beta   111.06898758
_cell_angle_gamma   89.99691296
_symmetry_Int_Tables_number   1
_chemical_formula_structural   Na4Mg(Mo2O5)2
_chemical_formula_sum   'Na4 Mg1 Mo4 O10'
_cell_volume   262.67996978
_cell_formula_units_Z   1
loop_
 _symmetry_equiv_pos_site_id
 _symmetry_equiv_pos_as_xyz
  1  'x, y, z'
loop_
 _atom_site_type_symbol
 _atom_site_label
 _atom_site_symmetry_multiplicity
 _atom_site_fract_x
 _atom_site_fract_y
 _atom_site_fract_z
 _atom_site_occupancy
  Na  Na0  1  0.55953337  0.24532921  0.34247947  1
  Na  Na1  1  0.21723279  0.75470039  0.65760598  1
  Na  Na2  1  0.08992296  0.57267322  0.19779932  1
  Na  Na3  1  0.89175716  0.42735677  0.80213700  1
  Mg  Mg4  1  0.57452049  0.99997851  0.00000666  1
  Mo  Mo5  1  0.05328720  0.99999149  0.00000488  1
  Mo  Mo6  1  0.54073609  0.49996362  0.99999996  1
  Mo  Mo7  1  0.16761905  0.17262094  0.49235417  1
  Mo  Mo8  1  0.67527124  0.82742179  0.50766583  1
  O  O9  1  0.29743263  0.18641710  0.93917294  1
  O  O10  1  0.35829779  0.81360145  0.06087349  1
  O  O11  1  0.76518760  0.21201263  0.94572404  1
  O  O12  1  0.81943145  0.78792219  0.05426131  1
  O  O13  1  0.17556916  0.25111608  0.29479152  1
  O  O14  1  0.88081681  0.74891621  0.70516865  1
  O  O15  1  0.68820837  0.56249857  0.29464560  1
  O  O16  1  0.39369744  0.43745735  0.70532504  1
  O  O17  1  0.86141687  0.11867782  0.51952014  1
  O  O18  1  0.34187253  0.88134466  0.48046400  1
