# generated using pymatgen
data_MgV2Ni(TeO5)2
_symmetry_space_group_name_H-M   'P 1'
_cell_length_a   5.27268455
_cell_length_b   6.75885761
_cell_length_c   7.53731997
_cell_angle_alpha   78.75201205
_cell_angle_beta   58.51138074
_cell_angle_gamma   74.61491246
_symmetry_Int_Tables_number   1
_chemical_formula_structural   MgV2Ni(TeO5)2
_chemical_formula_sum   'Mg1 V2 Ni1 Te2 O10'
_cell_volume   220.32546382
_cell_formula_units_Z   1
loop_
 _symmetry_equiv_pos_site_id
 _symmetry_equiv_pos_as_xyz
  1  'x, y, z'
loop_
 _atom_site_type_symbol
 _atom_site_label
 _atom_site_symmetry_multiplicity
 _atom_site_fract_x
 _atom_site_fract_y
 _atom_site_fract_z
 _atom_site_occupancy
  Mg  Mg0  1  0.31409842  0.37510057  0.09976532  1
  V  V1  1  0.67590498  0.59741941  0.59007547  1
  V  V2  1  0.35429367  0.41817703  0.43269575  1
  Ni  Ni3  1  0.94171317  0.55429872  0.92644895  1
  Te  Te4  1  0.32528449  0.89160021  0.23196018  1
  Te  Te5  1  0.74308671  0.08028771  0.72074291  1
  O  O6  1  0.04180558  0.55260430  0.33706657  1
  O  O7  1  0.63152835  0.41207231  0.15600569  1
  O  O8  1  0.33936506  0.13881935  0.96271846  1
  O  O9  1  0.61280926  0.31190111  0.55829464  1
  O  O10  1  0.70705376  0.88230841  0.59470299  1
  O  O11  1  0.28647672  0.13048059  0.35042024  1
  O  O12  1  0.42484640  0.68847305  0.44046968  1
  O  O13  1  0.74281787  0.83754059  0.00670021  1
  O  O14  1  0.35516780  0.57659337  0.85312177  1
  O  O15  1  0.97596976  0.44815629  0.68881116  1
