# generated using pymatgen
data_Na2In2P2SO12
_symmetry_space_group_name_H-M   'P 1'
_cell_length_a   9.01076406
_cell_length_b   9.01076375
_cell_length_c   23.08387880
_cell_angle_alpha   90.56893858
_cell_angle_beta   89.43106143
_cell_angle_gamma   119.92884899
_symmetry_Int_Tables_number   1
_chemical_formula_structural   Na2In2P2SO12
_chemical_formula_sum   'Na12 In12 P12 S6 O72'
_cell_volume   1624.22053297
_cell_formula_units_Z   6
loop_
 _symmetry_equiv_pos_site_id
 _symmetry_equiv_pos_as_xyz
  1  'x, y, z'
loop_
 _atom_site_type_symbol
 _atom_site_label
 _atom_site_symmetry_multiplicity
 _atom_site_fract_x
 _atom_site_fract_y
 _atom_site_fract_z
 _atom_site_occupancy
  Na  Na0  1  0.99351298  0.62838303  0.25271174  1
  Na  Na1  1  0.37161697  0.00648702  0.75271174  1
  Na  Na2  1  0.66017998  0.96171603  0.58604474  1
  Na  Na3  1  0.03828397  0.33982002  0.08604474  1
  Na  Na4  1  0.32684598  0.29505003  0.91937874  1
  Na  Na5  1  0.70494997  0.67315402  0.41937874  1
  Na  Na6  1  0.02085036  0.99469570  0.50046626  1
  Na  Na7  1  0.00530430  0.97914964  0.00046626  1
  Na  Na8  1  0.68751736  0.32802870  0.83379926  1
  Na  Na9  1  0.67197130  0.31248264  0.33379926  1
  Na  Na10  1  0.35418336  0.66136270  0.16713326  1
  Na  Na11  1  0.33863730  0.64581664  0.66713326  1
  In  In12  1  0.99256490  0.00362927  0.34895532  1
  In  In13  1  0.99637073  0.00743510  0.84895532  1
  In  In14  1  0.00136083  0.99870113  0.65040807  1
  In  In15  1  0.00129887  0.99863917  0.15040807  1
  In  In16  1  0.65923190  0.33696227  0.68228832  1
  In  In17  1  0.66303773  0.34076810  0.18228832  1
  In  In18  1  0.66802783  0.33203413  0.98374107  1
  In  In19  1  0.66796587  0.33197217  0.48374107  1
  In  In20  1  0.32589790  0.67029627  0.01562232  1
  In  In21  1  0.32970373  0.67410210  0.51562232  1
  In  In22  1  0.33469383  0.66536813  0.31707507  1
  In  In23  1  0.33463187  0.66530617  0.81707507  1
  P  P24  1  0.70121437  0.70300035  0.25089856  1
  P  P25  1  0.99931033  0.30016826  0.24785529  1
  P  P26  1  0.29699965  0.29878563  0.75089856  1
  P  P27  1  0.69983174  0.00068967  0.74785529  1
  P  P28  1  0.36788137  0.03633335  0.58423156  1
  P  P29  1  0.66597733  0.63350126  0.58118829  1
  P  P30  1  0.96366665  0.63211863  0.08423156  1
  P  P31  1  0.36649874  0.33402267  0.08118829  1
  P  P32  1  0.03454737  0.36966735  0.91756556  1
  P  P33  1  0.33264333  0.96683526  0.91452229  1
  P  P34  1  0.63033265  0.96545263  0.41756556  1
  P  P35  1  0.03316474  0.66735667  0.41452229  1
  S  S36  1  0.29878466  0.00190398  0.25071457  1
  S  S37  1  0.99809602  0.70121534  0.75071457  1
  S  S38  1  0.96545166  0.33523698  0.58404757  1
  S  S39  1  0.66476302  0.03454834  0.08404757  1
  S  S40  1  0.63211766  0.66857098  0.91738157  1
  S  S41  1  0.33142902  0.36788234  0.41738157  1
  O  O42  1  0.21971163  0.02691413  0.30360440  1
  O  O43  1  0.80942911  0.77707176  0.30691316  1
  O  O44  1  0.98155878  0.19357459  0.30157786  1
  O  O45  1  0.22292824  0.19057089  0.80691316  1
  O  O46  1  0.97308587  0.78028837  0.80360440  1
  O  O47  1  0.80642541  0.01844122  0.80157786  1
  O  O48  1  0.77697113  0.97535343  0.69068918  1
  O  O49  1  0.18717108  0.20941881  0.69753574  1
  O  O50  1  0.02555930  0.80688847  0.69857128  1
  O  O51  1  0.79058119  0.81282892  0.19753574  1
  O  O52  1  0.02464657  0.22302887  0.19068918  1
  O  O53  1  0.19311153  0.97444070  0.19857128  1
  O  O54  1  0.88637863  0.36024713  0.63693740  1
  O  O55  1  0.47609611  0.11040476  0.64024616  1
  O  O56  1  0.64822578  0.52690759  0.63491086  1
  O  O57  1  0.88959524  0.52390389  0.14024616  1
  O  O58  1  0.63975287  0.11362137  0.13693740  1
  O  O59  1  0.47309241  0.35177422  0.13491086  1
  O  O60  1  0.44363813  0.30868643  0.02402218  1
  O  O61  1  0.85383808  0.54275181  0.03086874  1
  O  O62  1  0.69222630  0.14022147  0.03190428  1
  O  O63  1  0.45724819  0.14616192  0.53086874  1
  O  O64  1  0.69131357  0.55636187  0.52402218  1
  O  O65  1  0.85977853  0.30777370  0.53190428  1
  O  O66  1  0.55304463  0.69358113  0.97027140  1
  O  O67  1  0.14276211  0.44373876  0.97358016  1
  O  O68  1  0.31489178  0.86024159  0.96824486  1
  O  O69  1  0.55626124  0.85723789  0.47358016  1
  O  O70  1  0.30641887  0.44695537  0.47027140  1
  O  O71  1  0.13975841  0.68510822  0.46824486  1
  O  O72  1  0.11030413  0.64202043  0.35735618  1
  O  O73  1  0.52050408  0.87608581  0.36420274  1
  O  O74  1  0.35889230  0.47355547  0.36523828  1
  O  O75  1  0.12391419  0.47949592  0.86420274  1
  O  O76  1  0.35797957  0.88969587  0.85735618  1
  O  O77  1  0.52644453  0.64110770  0.86523828  1
  O  O78  1  0.01380620  0.83024525  0.41152714  1
  O  O79  1  0.80926880  0.97778135  0.41285271  1
  O  O80  1  0.18082602  0.19416647  0.41177681  1
  O  O81  1  0.02221865  0.19073120  0.91285271  1
  O  O82  1  0.16975475  0.98619380  0.91152714  1
  O  O83  1  0.80583353  0.81917398  0.91177681  1
  O  O84  1  0.97526233  0.17472160  0.58808954  1
  O  O85  1  0.18772491  0.01701699  0.58862923  1
  O  O86  1  0.82315469  0.81910783  0.58622314  1
  O  O87  1  0.98298301  0.81227509  0.08862923  1
  O  O88  1  0.82527840  0.02473767  0.08808954  1
  O  O89  1  0.18089217  0.17684531  0.08622314  1
  O  O90  1  0.68047320  0.16357825  0.74486014  1
  O  O91  1  0.47593580  0.31111435  0.74618571  1
  O  O92  1  0.84749302  0.52749947  0.74510981  1
  O  O93  1  0.68888565  0.52406420  0.24618571  1
  O  O94  1  0.83642175  0.31952680  0.24486014  1
  O  O95  1  0.47250053  0.15250698  0.24510981  1
  O  O96  1  0.64192933  0.50805460  0.92142254  1
  O  O97  1  0.85439191  0.35034999  0.92196223  1
  O  O98  1  0.48982169  0.15244083  0.91955614  1
  O  O99  1  0.64965001  0.14560809  0.42196223  1
  O  O100  1  0.49194540  0.35807067  0.42142254  1
  O  O101  1  0.84755917  0.51017831  0.41955614  1
  O  O102  1  0.34713920  0.49691225  0.07819414  1
  O  O103  1  0.14260180  0.64444835  0.07951971  1
  O  O104  1  0.51415902  0.86083347  0.07844381  1
  O  O105  1  0.35555165  0.85739820  0.57951971  1
  O  O106  1  0.50308775  0.65286080  0.57819414  1
  O  O107  1  0.13916653  0.48584098  0.57844381  1
  O  O108  1  0.30859533  0.84138860  0.25475654  1
  O  O109  1  0.52105791  0.68368399  0.25529623  1
  O  O110  1  0.15648769  0.48577483  0.25289014  1
  O  O111  1  0.31631601  0.47894209  0.75529623  1
  O  O112  1  0.15861140  0.69140467  0.75475654  1
  O  O113  1  0.51422517  0.84351231  0.75289014  1
