# generated using pymatgen
data_Na6Ca4In4SiS11O48
_symmetry_space_group_name_H-M   'P 1'
_cell_length_a   18.11659070
_cell_length_b   9.07415569
_cell_length_c   23.87346722
_cell_angle_alpha   89.95195712
_cell_angle_beta   89.96625810
_cell_angle_gamma   120.01228215
_symmetry_Int_Tables_number   1
_chemical_formula_structural   Na6Ca4In4SiS11O48
_chemical_formula_sum   'Na18 Ca12 In12 Si3 S33 O144'
_cell_volume   3398.40096310
_cell_formula_units_Z   3
loop_
 _symmetry_equiv_pos_site_id
 _symmetry_equiv_pos_as_xyz
  1  'x, y, z'
loop_
 _atom_site_type_symbol
 _atom_site_label
 _atom_site_symmetry_multiplicity
 _atom_site_fract_x
 _atom_site_fract_y
 _atom_site_fract_z
 _atom_site_occupancy
  Na  Na0  1  0.81850038  0.99247344  0.24684358  1
  Na  Na1  1  0.99419782  0.63859694  0.25553336  1
  Na  Na2  1  0.31942805  0.65352156  0.74701384  1
  Na  Na3  1  0.81765090  0.65095048  0.74431086  1
  Na  Na4  1  0.99344465  0.35101536  0.75226802  1
  Na  Na5  1  0.69373529  0.00040219  0.74866621  1
  Na  Na6  1  0.99708201  0.99562303  0.49806034  1
  Na  Na7  1  0.50290151  0.00485977  0.49519608  1
  Na  Na8  1  0.00060643  0.00159587  0.00195025  1
  Na  Na9  1  0.49968765  0.00012261  0.00195655  1
  Na  Na10  1  0.33625863  0.30097262  0.83377826  1
  Na  Na11  1  0.83488784  0.31532268  0.83693308  1
  Na  Na12  1  0.33523608  0.33518391  0.33187377  1
  Na  Na13  1  0.82630083  0.35633469  0.33538906  1
  Na  Na14  1  0.17730650  0.67003289  0.16585935  1
  Na  Na15  1  0.66691056  0.65258954  0.17028110  1
  Na  Na16  1  0.17757927  0.69983367  0.66523506  1
  Na  Na17  1  0.67257689  0.67544910  0.66254566  1
  Ca  Ca18  1  0.49806853  0.99773933  0.35153444  1
  Ca  Ca19  1  0.83417394  0.32757007  0.67873818  1
  Ca  Ca20  1  0.33328268  0.33371745  0.17997550  1
  Ca  Ca21  1  0.82935477  0.34441454  0.18105601  1
  Ca  Ca22  1  0.33279251  0.33316760  0.98747827  1
  Ca  Ca23  1  0.83258017  0.33226108  0.98612602  1
  Ca  Ca24  1  0.83271306  0.33140631  0.48377771  1
  Ca  Ca25  1  0.16558934  0.66243318  0.51547693  1
  Ca  Ca26  1  0.66999265  0.67176302  0.51637117  1
  Ca  Ca27  1  0.17520792  0.67246220  0.31986880  1
  Ca  Ca28  1  0.17271041  0.68627908  0.81556222  1
  Ca  Ca29  1  0.66511504  0.66381841  0.81754919  1
  In  In30  1  0.99973755  0.99545714  0.35061114  1
  In  In31  1  0.99961087  0.00472561  0.85232253  1
  In  In32  1  0.49361721  0.00630777  0.85160017  1
  In  In33  1  0.99610568  0.99846910  0.64863729  1
  In  In34  1  0.49655873  0.00163231  0.64761537  1
  In  In35  1  0.99397863  0.99204601  0.15110846  1
  In  In36  1  0.50146574  0.00263466  0.15242655  1
  In  In37  1  0.33430436  0.31679987  0.68389335  1
  In  In38  1  0.33285020  0.33270868  0.48373325  1
  In  In39  1  0.16720532  0.66783046  0.01414595  1
  In  In40  1  0.66631417  0.66998945  0.01434679  1
  In  In41  1  0.66540096  0.65551862  0.31697685  1
  Si  Si42  1  0.85119463  0.70668269  0.25227773  1
  Si  Si43  1  0.35393181  0.00305378  0.74767304  1
  Si  Si44  1  0.85385637  0.00081859  0.75137056  1
  S  S45  1  0.14589195  0.00079920  0.24989499  1
  S  S46  1  0.64687094  0.99127746  0.24992365  1
  S  S47  1  0.35235196  0.70521616  0.24730604  1
  S  S48  1  0.00211252  0.29439601  0.24915569  1
  S  S49  1  0.50148588  0.29904013  0.24963576  1
  S  S50  1  0.14821241  0.28990335  0.74889327  1
  S  S51  1  0.64561569  0.28770485  0.75012190  1
  S  S52  1  0.99971893  0.71001266  0.74951859  1
  S  S53  1  0.49802355  0.70957632  0.74842657  1
  S  S54  1  0.47982192  0.33078066  0.58283757  1
  S  S55  1  0.98800038  0.33001745  0.58578909  1
  S  S56  1  0.18307578  0.04170334  0.58439892  1
  S  S57  1  0.67410042  0.02692627  0.58743379  1
  S  S58  1  0.33607463  0.62128830  0.58637502  1
  S  S59  1  0.83716259  0.64297653  0.58635005  1
  S  S60  1  0.48935986  0.64598331  0.08297647  1
  S  S61  1  0.99073770  0.64427909  0.08329345  1
  S  S62  1  0.33326594  0.02159609  0.08319869  1
  S  S63  1  0.83250165  0.02206470  0.08336799  1
  S  S64  1  0.17645887  0.33178451  0.08348748  1
  S  S65  1  0.67550806  0.33300015  0.08210949  1
  S  S66  1  0.31843184  0.67053931  0.91653608  1
  S  S67  1  0.81842413  0.67142629  0.91653396  1
  S  S68  1  0.01996709  0.36621616  0.91562127  1
  S  S69  1  0.51885072  0.36440519  0.91840236  1
  S  S70  1  0.16163848  0.96534528  0.91744982  1
  S  S71  1  0.66092153  0.96452550  0.91466546  1
  S  S72  1  0.31813458  0.97872872  0.42037918  1
  S  S73  1  0.81784770  0.96704466  0.41217786  1
  S  S74  1  0.16667240  0.35521222  0.41687644  1
  S  S75  1  0.66626906  0.36802458  0.41628802  1
  S  S76  1  0.01665812  0.67328563  0.41400606  1
  S  S77  1  0.51529774  0.65676167  0.41656467  1
  O  O78  1  0.10689078  0.02552704  0.30130057  1
  O  O79  1  0.60682648  0.01583028  0.29966388  1
  O  O80  1  0.40106949  0.78983402  0.29789400  1
  O  O81  1  0.91457895  0.79664022  0.30550500  1
  O  O82  1  0.49390148  0.19919670  0.29949524  1
  O  O83  1  0.99363909  0.19319385  0.30039142  1
  O  O84  1  0.11369365  0.18659094  0.80025853  1
  O  O85  1  0.60630574  0.18001027  0.80074322  1
  O  O86  1  0.48563379  0.78799804  0.79977086  1
  O  O87  1  0.99271779  0.79475539  0.80085097  1
  O  O88  1  0.40824880  0.03283665  0.80560869  1
  O  O89  1  0.91718117  0.04048298  0.80564839  1
  O  O90  1  0.39763868  0.96655963  0.69341515  1
  O  O91  1  0.89710627  0.96240516  0.69707487  1
  O  O92  1  0.09714246  0.20444058  0.69847660  1
  O  O93  1  0.59720813  0.20651020  0.69860101  1
  O  O94  1  0.01459051  0.81457148  0.69849634  1
  O  O95  1  0.51508434  0.81861590  0.69835706  1
  O  O96  1  0.39520756  0.80709583  0.19545775  1
  O  O97  1  0.88901372  0.83074955  0.19623055  1
  O  O98  1  0.01639990  0.21896979  0.19822731  1
  O  O99  1  0.51392311  0.22076689  0.19737943  1
  O  O100  1  0.09345725  0.98092205  0.19912555  1
  O  O101  1  0.59786126  0.97413979  0.19763163  1
  O  O102  1  0.43976132  0.35104707  0.63453583  1
  O  O103  1  0.94978369  0.34147645  0.63939564  1
  O  O104  1  0.23335431  0.12500708  0.63577692  1
  O  O105  1  0.71999574  0.10280924  0.64017170  1
  O  O106  1  0.32898971  0.52339062  0.63902144  1
  O  O107  1  0.83099227  0.55518189  0.63995808  1
  O  O108  1  0.45056916  0.54341953  0.13331862  1
  O  O109  1  0.95443473  0.54966016  0.13579252  1
  O  O110  1  0.32061338  0.09855758  0.13360260  1
  O  O111  1  0.82231548  0.09457383  0.13589908  1
  O  O112  1  0.22790987  0.35659057  0.13372491  1
  O  O113  1  0.72552503  0.35702699  0.13303446  1
  O  O114  1  0.21521523  0.30782270  0.03284444  1
  O  O115  1  0.71478393  0.30815758  0.03197794  1
  O  O116  1  0.43852455  0.56856429  0.03238368  1
  O  O117  1  0.93714609  0.55844070  0.03439992  1
  O  O118  1  0.34470647  0.12226968  0.03250878  1
  O  O119  1  0.84080570  0.12736558  0.03426834  1
  O  O120  1  0.22383636  0.14621277  0.53367786  1
  O  O121  1  0.71785534  0.13336964  0.53799322  1
  O  O122  1  0.34377886  0.53313995  0.53601943  1
  O  O123  1  0.84205542  0.54849714  0.53784116  1
  O  O124  1  0.42682207  0.30900347  0.53271574  1
  O  O125  1  0.93326267  0.31191794  0.53741715  1
  O  O126  1  0.27389625  0.69231341  0.96616513  1
  O  O127  1  0.77300980  0.69059700  0.96592958  1
  O  O128  1  0.07300934  0.45745308  0.96553828  1
  O  O129  1  0.57097781  0.45206344  0.96909869  1
  O  O130  1  0.15006117  0.86003279  0.96856581  1
  O  O131  1  0.65071626  0.85695475  0.96477775  1
  O  O132  1  0.27467112  0.87672997  0.47031823  1
  O  O133  1  0.77625058  0.86320207  0.46241553  1
  O  O134  1  0.15503428  0.43265929  0.46751978  1
  O  O135  1  0.65907517  0.45394712  0.46661839  1
  O  O136  1  0.06815113  0.68543422  0.46343524  1
  O  O137  1  0.56508715  0.67290609  0.46725624  1
  O  O138  1  0.05658805  0.66142902  0.36141715  1
  O  O139  1  0.55657250  0.63695272  0.36499434  1
  O  O140  1  0.26961496  0.90268676  0.36873164  1
  O  O141  1  0.76856569  0.88319874  0.36025048  1
  O  O142  1  0.17856647  0.45582517  0.36610231  1
  O  O143  1  0.67428809  0.46739156  0.36426536  1
  O  O144  1  0.05907829  0.45761269  0.86290123  1
  O  O145  1  0.55927497  0.45955274  0.86696610  1
  O  O146  1  0.17025336  0.88476696  0.86665249  1
  O  O147  1  0.67012341  0.88708480  0.86252639  1
  O  O148  1  0.27219227  0.65570627  0.86392268  1
  O  O149  1  0.77297006  0.65748996  0.86369413  1
  O  O150  1  0.01092297  0.83409617  0.41442518  1
  O  O151  1  0.50453565  0.80709636  0.41240569  1
  O  O152  1  0.40450653  0.99975132  0.41760027  1
  O  O153  1  0.90527824  0.98646508  0.40984562  1
  O  O154  1  0.08905685  0.18019635  0.41147427  1
  O  O155  1  0.58925703  0.19759775  0.41334119  1
  O  O156  1  0.01511717  0.19538565  0.91620618  1
  O  O157  1  0.51458995  0.19398116  0.91753155  1
  O  O158  1  0.08130674  0.97757719  0.91392937  1
  O  O159  1  0.58122260  0.97718389  0.91179541  1
  O  O160  1  0.40506580  0.82879990  0.91561019  1
  O  O161  1  0.90520884  0.82893379  0.91592470  1
  O  O162  1  0.48663474  0.17324361  0.58574200  1
  O  O163  1  0.99691000  0.17315730  0.58598670  1
  O  O164  1  0.09726587  0.02750973  0.58916500  1
  O  O165  1  0.58745120  0.01356179  0.58884233  1
  O  O166  1  0.41584198  0.79008727  0.58763070  1
  O  O167  1  0.91838438  0.81427835  0.58496825  1
  O  O168  1  0.49974682  0.82120811  0.08885550  1
  O  O169  1  0.00171409  0.81985756  0.08673188  1
  O  O170  1  0.41052296  0.00128355  0.08908505  1
  O  O171  1  0.91124632  0.00559280  0.08469097  1
  O  O172  1  0.08862576  0.17756360  0.08968478  1
  O  O173  1  0.58799805  0.17749201  0.08816035  1
  O  O174  1  0.34483762  0.17539983  0.74542086  1
  O  O175  1  0.84414041  0.17168968  0.74927983  1
  O  O176  1  0.23861997  0.32963415  0.74240376  1
  O  O177  1  0.73290676  0.30953211  0.74657785  1
  O  O178  1  0.41607557  0.54378956  0.74182452  1
  O  O179  1  0.91751760  0.54520470  0.74553733  1
  O  O180  1  0.34439181  0.53509230  0.24359889  1
  O  O181  1  0.84739800  0.52420720  0.24769873  1
  O  O182  1  0.42488971  0.31610929  0.24446846  1
  O  O183  1  0.92062005  0.29728924  0.24437049  1
  O  O184  1  0.23237156  0.14832192  0.24501512  1
  O  O185  1  0.73554911  0.13576763  0.24439634  1
  O  O186  1  0.32743077  0.51968125  0.92286994  1
  O  O187  1  0.82724011  0.51942129  0.92242643  1
  O  O188  1  0.43273659  0.34163770  0.92306552  1
  O  O189  1  0.93380243  0.34401053  0.92104386  1
  O  O190  1  0.23664228  0.13637673  0.92276202  1
  O  O191  1  0.73693413  0.13526380  0.92062882  1
  O  O192  1  0.32563111  0.15205686  0.42407845  1
  O  O193  1  0.82602021  0.13695825  0.41576432  1
  O  O194  1  0.24437078  0.33577919  0.42218785  1
  O  O195  1  0.74405231  0.35282095  0.41806421  1
  O  O196  1  0.42829403  0.49875345  0.42004795  1
  O  O197  1  0.92968044  0.52255457  0.41779390  1
  O  O198  1  0.16694322  0.48770680  0.07729193  1
  O  O199  1  0.66542501  0.48720575  0.07608743  1
  O  O200  1  0.07766481  0.66199565  0.07661845  1
  O  O201  1  0.57713694  0.66647551  0.07694875  1
  O  O202  1  0.25547768  0.84570396  0.07729658  1
  O  O203  1  0.75537115  0.84654982  0.07679512  1
  O  O204  1  0.17449683  0.87222083  0.58038809  1
  O  O205  1  0.66320902  0.85443496  0.58281233  1
  O  O206  1  0.26032857  0.64024745  0.58287472  1
  O  O207  1  0.76210218  0.66758372  0.58314778  1
  O  O208  1  0.07316040  0.48287441  0.58148800  1
  O  O209  1  0.56502987  0.48209883  0.57876831  1
  O  O210  1  0.14701511  0.83780065  0.25412862  1
  O  O211  1  0.65243260  0.83189687  0.25456263  1
  O  O212  1  0.26677365  0.69045022  0.24856018  1
  O  O213  1  0.75822034  0.69946257  0.25765835  1
  O  O214  1  0.07378503  0.47188532  0.25422688  1
  O  O215  1  0.57981115  0.47268740  0.25267619  1
  O  O216  1  0.14961611  0.45527594  0.75376925  1
  O  O217  1  0.65478225  0.45877751  0.75478318  1
  O  O218  1  0.06975681  0.67094242  0.75329268  1
  O  O219  1  0.57181565  0.68396624  0.75384452  1
  O  O220  1  0.26166155  0.82651345  0.74841537  1
  O  O221  1  0.75826463  0.83082585  0.75271603  1
