# generated using pymatgen
data_Na10La7Nb(PO4)12
_symmetry_space_group_name_H-M   'P 1'
_cell_length_a   19.00132218
_cell_length_b   9.51756432
_cell_length_c   23.86593477
_cell_angle_alpha   89.99113225
_cell_angle_beta   90.10939678
_cell_angle_gamma   120.20999660
_symmetry_Int_Tables_number   1
_chemical_formula_structural   Na10La7Nb(PO4)12
_chemical_formula_sum   'Na30 La21 Nb3 P36 O144'
_cell_volume   3729.87993924
_cell_formula_units_Z   3
loop_
 _symmetry_equiv_pos_site_id
 _symmetry_equiv_pos_as_xyz
  1  'x, y, z'
loop_
 _atom_site_type_symbol
 _atom_site_label
 _atom_site_symmetry_multiplicity
 _atom_site_fract_x
 _atom_site_fract_y
 _atom_site_fract_z
 _atom_site_occupancy
  Na  Na0  1  0.31516973  0.99893733  0.25395627  1
  Na  Na1  1  0.68686802  0.36930328  0.25363465  1
  Na  Na2  1  0.31178447  0.62852360  0.76076886  1
  Na  Na3  1  0.81164350  0.62777851  0.75931809  1
  Na  Na4  1  0.15400036  0.33536712  0.58040347  1
  Na  Na5  1  0.65344221  0.33690981  0.58161563  1
  Na  Na6  1  0.01211389  0.69992235  0.58287878  1
  Na  Na7  1  0.51459759  0.69539629  0.57983646  1
  Na  Na8  1  0.33049631  0.96222962  0.58109362  1
  Na  Na9  1  0.83582667  0.97191305  0.58107239  1
  Na  Na10  1  0.15253456  0.96953061  0.07888810  1
  Na  Na11  1  0.65393677  0.97398182  0.08078928  1
  Na  Na12  1  0.33180298  0.69552137  0.08105726  1
  Na  Na13  1  0.83179153  0.69425198  0.08127502  1
  Na  Na14  1  0.01395264  0.33162553  0.07809512  1
  Na  Na15  1  0.51498259  0.33203728  0.08272424  1
  Na  Na16  1  0.66788779  0.03213737  0.41349157  1
  Na  Na17  1  0.34586154  0.66559209  0.41154597  1
  Na  Na18  1  0.00024002  0.99909829  0.49142389  1
  Na  Na19  1  0.50001105  0.01455462  0.49321481  1
  Na  Na20  1  0.00014547  0.00097109  0.99479868  1
  Na  Na21  1  0.50023484  0.99953705  0.99446859  1
  Na  Na22  1  0.33228042  0.31740163  0.83719618  1
  Na  Na23  1  0.83253301  0.31800858  0.83756751  1
  Na  Na24  1  0.33061327  0.33241252  0.33255281  1
  Na  Na25  1  0.84863740  0.35074490  0.33423335  1
  Na  Na26  1  0.16292962  0.65016315  0.17008605  1
  Na  Na27  1  0.66450751  0.68478927  0.17067857  1
  Na  Na28  1  0.15829897  0.66490585  0.66890284  1
  Na  Na29  1  0.65810807  0.66287743  0.66918129  1
  La  La30  1  0.49963936  0.00634454  0.34746992  1
  La  La31  1  0.00348579  0.00724280  0.65776959  1
  La  La32  1  0.50304238  0.00471812  0.65539502  1
  La  La33  1  0.99968622  0.99716130  0.15636493  1
  La  La34  1  0.50074047  0.99656633  0.15472460  1
  La  La35  1  0.33361866  0.32288934  0.69008558  1
  La  La36  1  0.83320591  0.32236214  0.69115955  1
  La  La37  1  0.32937659  0.34137922  0.18419239  1
  La  La38  1  0.84281853  0.33491156  0.18713774  1
  La  La39  1  0.33344287  0.33455889  0.97843047  1
  La  La40  1  0.83352392  0.33544057  0.97860830  1
  La  La41  1  0.33248954  0.32076402  0.48128598  1
  La  La42  1  0.83947274  0.34724350  0.48074758  1
  La  La43  1  0.16615635  0.66775458  0.00115459  1
  La  La44  1  0.66591949  0.66569558  0.00285249  1
  La  La45  1  0.15602700  0.65541557  0.50516185  1
  La  La46  1  0.67306145  0.67050391  0.50673494  1
  La  La47  1  0.16072845  0.65777943  0.31774898  1
  La  La48  1  0.66312696  0.66944124  0.31808940  1
  La  La49  1  0.16123045  0.66797938  0.81884931  1
  La  La50  1  0.66100216  0.66743526  0.81901001  1
  Nb  Nb51  1  0.00036779  0.00006626  0.34636872  1
  Nb  Nb52  1  0.00196948  0.00392002  0.84873419  1
  Nb  Nb53  1  0.50205789  0.00382578  0.84867810  1
  P  P54  1  0.15012947  0.00560215  0.25352404  1
  P  P55  1  0.65773972  0.00699572  0.24964323  1
  P  P56  1  0.34152726  0.69296437  0.25020642  1
  P  P57  1  0.85320605  0.69791077  0.25407918  1
  P  P58  1  0.99659135  0.28682838  0.25226755  1
  P  P59  1  0.49967971  0.30865440  0.24376877  1
  P  P60  1  0.15141896  0.29745876  0.75409501  1
  P  P61  1  0.65060346  0.29609411  0.75388992  1
  P  P62  1  0.99559887  0.70570951  0.75255398  1
  P  P63  1  0.49560440  0.70610713  0.75230558  1
  P  P64  1  0.35513390  0.99980390  0.75324683  1
  P  P65  1  0.85454856  0.99936015  0.75355594  1
  P  P66  1  0.48768729  0.33834421  0.58417537  1
  P  P67  1  0.98623727  0.33672270  0.58477535  1
  P  P68  1  0.18110866  0.02308623  0.58419686  1
  P  P69  1  0.68403670  0.02956710  0.57960404  1
  P  P70  1  0.32969138  0.63175958  0.58334689  1
  P  P71  1  0.83202531  0.63504476  0.58941848  1
  P  P72  1  0.48695679  0.63578396  0.08152048  1
  P  P73  1  0.98881685  0.63829651  0.08148191  1
  P  P74  1  0.32970975  0.02484525  0.08533047  1
  P  P75  1  0.83138239  0.02671893  0.08159243  1
  P  P76  1  0.17969060  0.33808659  0.08011919  1
  P  P77  1  0.68479742  0.34102368  0.08617749  1
  P  P78  1  0.32916217  0.68225703  0.91073866  1
  P  P79  1  0.82893749  0.68225209  0.91074535  1
  P  P80  1  0.01117404  0.33988001  0.91565989  1
  P  P81  1  0.51142636  0.33953663  0.91582099  1
  P  P82  1  0.15912845  0.97815358  0.91541469  1
  P  P83  1  0.65905758  0.97734254  0.91548573  1
  P  P84  1  0.32125491  0.96672319  0.41679591  1
  P  P85  1  0.82935630  0.97839335  0.41586019  1
  P  P86  1  0.15956602  0.34367602  0.41632362  1
  P  P87  1  0.66663999  0.35037197  0.41643661  1
  P  P88  1  0.01096732  0.68740883  0.41539040  1
  P  P89  1  0.51211166  0.67368060  0.42135927  1
  O  O90  1  0.08821054  0.99928710  0.29995868  1
  O  O91  1  0.60889269  0.00607265  0.30194186  1
  O  O92  1  0.38969385  0.78336581  0.30356780  1
  O  O93  1  0.91294586  0.82217328  0.30051083  1
  O  O94  1  0.49483675  0.19623429  0.29229516  1
  O  O95  1  0.00079582  0.16883992  0.29811103  1
  O  O96  1  0.09059166  0.17984151  0.80031489  1
  O  O97  1  0.59023512  0.17950098  0.80051141  1
  O  O98  1  0.49983857  0.82940266  0.79873032  1
  O  O99  1  0.99995702  0.82978214  0.79875706  1
  O  O100  1  0.41574797  0.00323768  0.79978265  1
  O  O101  1  0.91577922  0.00299890  0.79957462  1
  O  O102  1  0.39038955  0.99604371  0.69531708  1
  O  O103  1  0.88916137  0.99640576  0.69532334  1
  O  O104  1  0.11426376  0.23011030  0.69592587  1
  O  O105  1  0.61294814  0.22686929  0.69596468  1
  O  O106  1  0.99948135  0.77970856  0.69433925  1
  O  O107  1  0.49968408  0.78071181  0.69414521  1
  O  O108  1  0.38862951  0.78361828  0.19636358  1
  O  O109  1  0.88734112  0.77616676  0.19663562  1
  O  O110  1  0.99545720  0.21588368  0.19402920  1
  O  O111  1  0.50392716  0.23183866  0.18744053  1
  O  O112  1  0.11304893  0.00464164  0.19600087  1
  O  O113  1  0.61108312  0.99690149  0.19484485  1
  O  O114  1  0.44480468  0.35517649  0.63661502  1
  O  O115  1  0.94198901  0.35097076  0.63667198  1
  O  O116  1  0.23404450  0.10765355  0.63643711  1
  O  O117  1  0.73893414  0.12542280  0.62979595  1
  O  O118  1  0.32158826  0.52888117  0.63616130  1
  O  O119  1  0.82382751  0.53951048  0.64387954  1
  O  O120  1  0.44532672  0.53484539  0.13448388  1
  O  O121  1  0.95004813  0.53657991  0.13494186  1
  O  O122  1  0.31846030  0.09370063  0.14158523  1
  O  O123  1  0.82098080  0.10858003  0.13444328  1
  O  O124  1  0.23069938  0.36276338  0.13354705  1
  O  O125  1  0.73190601  0.36192647  0.14179127  1
  O  O126  1  0.22334585  0.31575215  0.02995009  1
  O  O127  1  0.73125589  0.31914514  0.03739671  1
  O  O128  1  0.43341561  0.55093865  0.03031138  1
  O  O129  1  0.93373420  0.55230944  0.03107243  1
  O  O130  1  0.34029560  0.14252583  0.03760660  1
  O  O131  1  0.84385938  0.13537772  0.03074379  1
  O  O132  1  0.22289307  0.12779203  0.53245963  1
  O  O133  1  0.72254646  0.11979849  0.52425208  1
  O  O134  1  0.33928293  0.54869991  0.53049229  1
  O  O135  1  0.84106582  0.54302706  0.53935252  1
  O  O136  1  0.43465875  0.31581815  0.53255228  1
  O  O137  1  0.93671153  0.32022838  0.53174131  1
  O  O138  1  0.29533261  0.71086969  0.96627912  1
  O  O139  1  0.79482663  0.71003733  0.96630932  1
  O  O140  1  0.05408918  0.39706671  0.97350675  1
  O  O141  1  0.55473438  0.39742692  0.97354870  1
  O  O142  1  0.14416883  0.89177538  0.97305417  1
  O  O143  1  0.64416706  0.88931938  0.97281001  1
  O  O144  1  0.27309763  0.87297377  0.47058993  1
  O  O145  1  0.80545386  0.89478560  0.47437137  1
  O  O146  1  0.14113396  0.39366206  0.47414743  1
  O  O147  1  0.66909396  0.44083838  0.47166038  1
  O  O148  1  0.05023855  0.71169783  0.47454934  1
  O  O149  1  0.55509547  0.67524898  0.47736053  1
  O  O150  1  0.06408601  0.66954583  0.37157179  1
  O  O151  1  0.56202554  0.66478287  0.37240494  1
  O  O152  1  0.27426376  0.87595106  0.36365141  1
  O  O153  1  0.76277093  0.87200856  0.37343644  1
  O  O154  1  0.17397119  0.47432332  0.37301717  1
  O  O155  1  0.66481974  0.44463598  0.36456160  1
  O  O156  1  0.06264633  0.46266432  0.87066654  1
  O  O157  1  0.56220332  0.46210926  0.87060581  1
  O  O158  1  0.16936928  0.87653475  0.87024266  1
  O  O159  1  0.66983874  0.87796457  0.86971887  1
  O  O160  1  0.27396026  0.66185243  0.86087090  1
  O  O161  1  0.77388165  0.66191243  0.86082366  1
  O  O162  1  0.00476215  0.84374200  0.40182010  1
  O  O163  1  0.51086829  0.83533099  0.41937170  1
  O  O164  1  0.40226661  0.96381063  0.42030428  1
  O  O165  1  0.91389947  0.99641654  0.39849595  1
  O  O166  1  0.08399669  0.17470566  0.39916426  1
  O  O167  1  0.59020155  0.17783910  0.41979055  1
  O  O168  1  0.00662902  0.17210789  0.90122433  1
  O  O169  1  0.50698298  0.17195539  0.90143920  1
  O  O170  1  0.08039114  0.98912544  0.90077368  1
  O  O171  1  0.58011572  0.98805346  0.90096049  1
  O  O172  1  0.41517113  0.84162270  0.89979076  1
  O  O173  1  0.91507298  0.84169679  0.89983176  1
  O  O174  1  0.49884573  0.18678782  0.58650115  1
  O  O175  1  0.99775123  0.18605911  0.58714935  1
  O  O176  1  0.09476745  0.00368715  0.58755045  1
  O  O177  1  0.59788084  0.01059608  0.58450941  1
  O  O178  1  0.40584117  0.80660272  0.58689542  1
  O  O179  1  0.90804584  0.80935345  0.58910625  1
  O  O180  1  0.49840145  0.81031441  0.08446007  1
  O  O181  1  0.99926775  0.81151270  0.08569722  1
  O  O182  1  0.40597820  0.00287912  0.08571712  1
  O  O183  1  0.90650275  0.00194000  0.08593271  1
  O  O184  1  0.09293702  0.18519811  0.08454761  1
  O  O185  1  0.59742351  0.18804356  0.08675029  1
  O  O186  1  0.34714520  0.15127775  0.75982767  1
  O  O187  1  0.84650106  0.15061408  0.76059531  1
  O  O188  1  0.23500773  0.30882736  0.76038445  1
  O  O189  1  0.73404842  0.30691834  0.76040941  1
  O  O190  1  0.41232841  0.54849966  0.75888827  1
  O  O191  1  0.91263147  0.54793612  0.75964721  1
  O  O192  1  0.32774561  0.51944722  0.25185748  1
  O  O193  1  0.84958389  0.53342108  0.26028940  1
  O  O194  1  0.42079700  0.31761041  0.24743747  1
  O  O195  1  0.91888896  0.29377954  0.26232377  1
  O  O196  1  0.23469687  0.15792021  0.26130423  1
  O  O197  1  0.73761970  0.17469801  0.25102703  1
  O  O198  1  0.34354028  0.53835524  0.91481558  1
  O  O199  1  0.84342072  0.53844153  0.91479578  1
  O  O200  1  0.42423249  0.30812014  0.91595892  1
  O  O201  1  0.92428008  0.30975162  0.91551133  1
  O  O202  1  0.23174961  0.15114303  0.91549611  1
  O  O203  1  0.73106075  0.15123581  0.91624347  1
  O  O204  1  0.33618718  0.14090769  0.41533102  1
  O  O205  1  0.83664316  0.14681922  0.41682748  1
  O  O206  1  0.23721405  0.33142973  0.41788471  1
  O  O207  1  0.74082850  0.32383039  0.41311889  1
  O  O208  1  0.42294500  0.53186055  0.41747324  1
  O  O209  1  0.92470558  0.53993943  0.41374161  1
  O  O210  1  0.17164986  0.49307419  0.07405995  1
  O  O211  1  0.67735028  0.49613216  0.07722355  1
  O  O212  1  0.07447012  0.65535378  0.07505062  1
  O  O213  1  0.57277777  0.65181365  0.07651424  1
  O  O214  1  0.25256074  0.85358565  0.07582302  1
  O  O215  1  0.75290759  0.85556407  0.07568209  1
  O  O216  1  0.17145981  0.85035031  0.57984570  1
  O  O217  1  0.67547617  0.85738641  0.57976171  1
  O  O218  1  0.25142057  0.64660297  0.57841233  1
  O  O219  1  0.75393902  0.64969322  0.58321229  1
  O  O220  1  0.07184765  0.49425160  0.58245141  1
  O  O221  1  0.57374568  0.49383207  0.58013947  1
  O  O222  1  0.16032683  0.85560394  0.25722581  1
  O  O223  1  0.67241787  0.86204971  0.24981473  1
  O  O224  1  0.26094769  0.69785034  0.24742720  1
  O  O225  1  0.76647393  0.66956781  0.26030627  1
  O  O226  1  0.07326187  0.45410464  0.25602840  1
  O  O227  1  0.57955039  0.47460011  0.24795782  1
  O  O228  1  0.16412973  0.47019898  0.75813680  1
  O  O229  1  0.66355283  0.46906948  0.75774195  1
  O  O230  1  0.06787016  0.67796551  0.75651250  1
  O  O231  1  0.56772590  0.67793188  0.75636771  1
  O  O232  1  0.27371882  0.83890195  0.75775762  1
  O  O233  1  0.77328496  0.83836493  0.75806273  1
