# generated using pymatgen
data_Na3MgNb5Si3(PO6)6
_symmetry_space_group_name_H-M   'P 1'
_cell_length_a   8.80882754
_cell_length_b   8.80882725
_cell_length_c   22.90343170
_cell_angle_alpha   90.00000000
_cell_angle_beta   90.00000000
_cell_angle_gamma   120.00000110
_symmetry_Int_Tables_number   1
_chemical_formula_structural   Na3MgNb5Si3(PO6)6
_chemical_formula_sum   'Na6 Mg2 Nb10 Si6 P12 O72'
_cell_volume   1539.10194277
_cell_formula_units_Z   2
loop_
 _symmetry_equiv_pos_site_id
 _symmetry_equiv_pos_as_xyz
  1  'x, y, z'
loop_
 _atom_site_type_symbol
 _atom_site_label
 _atom_site_symmetry_multiplicity
 _atom_site_fract_x
 _atom_site_fract_y
 _atom_site_fract_z
 _atom_site_occupancy
  Na  Na0  1  0.00000000  -0.00000000  0.49941187  1
  Na  Na1  1  0.00000000  -0.00000000  0.99941187  1
  Na  Na2  1  0.66666700  0.33333300  0.82827482  1
  Na  Na3  1  0.66666700  0.33333300  0.32827482  1
  Na  Na4  1  0.33333300  0.66666700  0.16668630  1
  Na  Na5  1  0.33333300  0.66666700  0.66668630  1
  Mg  Mg6  1  0.66666700  0.33333300  0.68667536  1
  Mg  Mg7  1  0.66666700  0.33333300  0.18667536  1
  Nb  Nb8  1  0.00000000  -0.00000000  0.35528828  1
  Nb  Nb9  1  0.00000000  -0.00000000  0.85528828  1
  Nb  Nb10  1  0.00000000  -0.00000000  0.64584889  1
  Nb  Nb11  1  0.00000000  -0.00000000  0.14584889  1
  Nb  Nb12  1  0.66666700  0.33333300  0.97807558  1
  Nb  Nb13  1  0.66666700  0.33333300  0.47807558  1
  Nb  Nb14  1  0.33333300  0.66666700  0.02022543  1
  Nb  Nb15  1  0.33333300  0.66666700  0.52022543  1
  Nb  Nb16  1  0.33333300  0.66666700  0.31243054  1
  Nb  Nb17  1  0.33333300  0.66666700  0.81243054  1
  Si  Si18  1  0.61984697  0.66628968  0.91650440  1
  Si  Si19  1  0.04644171  0.38015303  0.91650440  1
  Si  Si20  1  0.33371032  0.95355829  0.91650440  1
  Si  Si21  1  0.61984697  0.95355829  0.41650440  1
  Si  Si22  1  0.33371032  0.38015303  0.41650440  1
  Si  Si23  1  0.04644171  0.66628968  0.41650440  1
  P  P24  1  0.29311770  0.00463111  0.24970317  1
  P  P25  1  0.71151341  0.70688230  0.24970317  1
  P  P26  1  0.99536889  0.28848659  0.24970317  1
  P  P27  1  0.29311770  0.28848659  0.74970317  1
  P  P28  1  0.99536889  0.70688230  0.74970317  1
  P  P29  1  0.71151341  0.00463111  0.74970317  1
  P  P30  1  0.95250313  0.33475932  0.58574515  1
  P  P31  1  0.38225719  0.04749687  0.58574515  1
  P  P32  1  0.66524068  0.61774281  0.58574515  1
  P  P33  1  0.95250313  0.61774281  0.08574515  1
  P  P34  1  0.66524068  0.04749687  0.08574515  1
  P  P35  1  0.38225719  0.33475932  0.08574515  1
  O  O36  1  0.19523055  0.02106033  0.30395408  1
  O  O37  1  0.82582978  0.80476945  0.30395408  1
  O  O38  1  0.97893967  0.17417022  0.30395408  1
  O  O39  1  0.19523055  0.17417022  0.80395408  1
  O  O40  1  0.97893967  0.80476945  0.80395408  1
  O  O41  1  0.82582978  0.02106033  0.80395408  1
  O  O42  1  0.80288101  0.97248518  0.69546518  1
  O  O43  1  0.16960416  0.19711899  0.69546518  1
  O  O44  1  0.02751482  0.83039584  0.69546518  1
  O  O45  1  0.80288101  0.83039584  0.19546518  1
  O  O46  1  0.02751482  0.19711899  0.19546518  1
  O  O47  1  0.16960416  0.97248518  0.19546518  1
  O  O48  1  0.87575082  0.36497948  0.63915421  1
  O  O49  1  0.48922966  0.12424918  0.63915421  1
  O  O50  1  0.63502052  0.51077034  0.63915421  1
  O  O51  1  0.87575082  0.51077034  0.13915421  1
  O  O52  1  0.63502052  0.12424918  0.13915421  1
  O  O53  1  0.48922966  0.36497948  0.13915421  1
  O  O54  1  0.46232628  0.30391220  0.02896682  1
  O  O55  1  0.84158693  0.53767372  0.02896682  1
  O  O56  1  0.69608780  0.15841307  0.02896682  1
  O  O57  1  0.46232628  0.15841307  0.52896682  1
  O  O58  1  0.69608780  0.53767372  0.52896682  1
  O  O59  1  0.84158693  0.30391220  0.52896682  1
  O  O60  1  0.53148875  0.69893985  0.97397042  1
  O  O61  1  0.16745010  0.46851125  0.97397042  1
  O  O62  1  0.30106015  0.83254990  0.97397042  1
  O  O63  1  0.53148875  0.83254990  0.47397042  1
  O  O64  1  0.30106015  0.46851125  0.47397042  1
  O  O65  1  0.16745010  0.69893985  0.47397042  1
  O  O66  1  0.13560061  0.63383359  0.35885057  1
  O  O67  1  0.49823198  0.86439939  0.35885057  1
  O  O68  1  0.36616641  0.50176802  0.35885057  1
  O  O69  1  0.13560061  0.50176802  0.85885057  1
  O  O70  1  0.36616641  0.86439939  0.85885057  1
  O  O71  1  0.49823198  0.63383359  0.85885057  1
  O  O72  1  0.02450221  0.83735743  0.40783584  1
  O  O73  1  0.81285521  0.97549779  0.40783584  1
  O  O74  1  0.16264257  0.18714479  0.40783584  1
  O  O75  1  0.02450221  0.18714479  0.90783584  1
  O  O76  1  0.16264257  0.97549779  0.90783584  1
  O  O77  1  0.81285521  0.83735743  0.90783584  1
  O  O78  1  0.97635981  0.16809139  0.59092192  1
  O  O79  1  0.19173159  0.02364019  0.59092192  1
  O  O80  1  0.83190861  0.80826841  0.59092192  1
  O  O81  1  0.97635981  0.80826841  0.09092192  1
  O  O82  1  0.83190861  0.02364019  0.09092192  1
  O  O83  1  0.19173159  0.16809139  0.09092192  1
  O  O84  1  0.69361114  0.16393071  0.74443197  1
  O  O85  1  0.47032057  0.30638886  0.74443197  1
  O  O86  1  0.83606929  0.52967943  0.74443197  1
  O  O87  1  0.69361114  0.52967943  0.24443197  1
  O  O88  1  0.83606929  0.30638886  0.24443197  1
  O  O89  1  0.47032057  0.16393071  0.24443197  1
  O  O90  1  0.64147932  0.49518669  0.92585642  1
  O  O91  1  0.85370836  0.35852068  0.92585642  1
  O  O92  1  0.50481331  0.14629164  0.92585642  1
  O  O93  1  0.64147932  0.14629164  0.42585642  1
  O  O94  1  0.50481331  0.35852068  0.42585642  1
  O  O95  1  0.85370836  0.49518669  0.42585642  1
  O  O96  1  0.35266804  0.49373012  0.07536937  1
  O  O97  1  0.14106108  0.64733196  0.07536937  1
  O  O98  1  0.50626988  0.85893892  0.07536937  1
  O  O99  1  0.35266804  0.85893892  0.57536937  1
  O  O100  1  0.50626988  0.64733196  0.57536937  1
  O  O101  1  0.14106108  0.49373012  0.57536937  1
  O  O102  1  0.30019684  0.83139564  0.25563146  1
  O  O103  1  0.53119780  0.69980316  0.25563146  1
  O  O104  1  0.16860436  0.46880220  0.25563146  1
  O  O105  1  0.30019684  0.46880220  0.75563146  1
  O  O106  1  0.16860436  0.69980316  0.75563146  1
  O  O107  1  0.53119780  0.83139564  0.75563146  1
