# generated using pymatgen
data_Na7La3TaSi3(PO8)3
_symmetry_space_group_name_H-M   'P 1'
_cell_length_a   9.55577107
_cell_length_b   9.57986822
_cell_length_c   23.22322382
_cell_angle_alpha   89.95445698
_cell_angle_beta   89.93503285
_cell_angle_gamma   119.91700366
_symmetry_Int_Tables_number   1
_chemical_formula_structural   Na7La3TaSi3(PO8)3
_chemical_formula_sum   'Na21 La9 Ta3 Si9 P9 O72'
_cell_volume   1842.63875649
_cell_formula_units_Z   3
loop_
 _symmetry_equiv_pos_site_id
 _symmetry_equiv_pos_as_xyz
  1  'x, y, z'
loop_
 _atom_site_type_symbol
 _atom_site_label
 _atom_site_symmetry_multiplicity
 _atom_site_fract_x
 _atom_site_fract_y
 _atom_site_fract_z
 _atom_site_occupancy
  Na  Na0  1  0.62910427  0.99827814  0.25298052  1
  Na  Na1  1  0.36962115  0.37252771  0.25349772  1
  Na  Na2  1  0.00251071  0.63199864  0.25721766  1
  Na  Na3  1  0.64654863  0.65032561  0.74618681  1
  Na  Na4  1  0.99581225  0.34576816  0.74082736  1
  Na  Na5  1  0.29978797  0.34777234  0.58048196  1
  Na  Na6  1  0.03464129  0.69349389  0.57846640  1
  Na  Na7  1  0.66491356  0.95628701  0.57445840  1
  Na  Na8  1  0.30953361  0.96629337  0.07754045  1
  Na  Na9  1  0.64885270  0.69374223  0.07875429  1
  Na  Na10  1  0.04754502  0.33962633  0.07263763  1
  Na  Na11  1  0.31881083  0.29998467  0.90811978  1
  Na  Na12  1  0.97941449  0.31107866  0.42143572  1
  Na  Na13  1  0.33823585  0.02525412  0.42213171  1
  Na  Na14  1  0.68657647  0.66687816  0.42120724  1
  Na  Na15  1  0.99434316  0.99830058  0.49938881  1
  Na  Na16  1  0.98721904  0.00281335  0.99722435  1
  Na  Na17  1  0.65511702  0.32311098  0.83196984  1
  Na  Na18  1  0.66392822  0.33110794  0.33877153  1
  Na  Na19  1  0.34389414  0.66710677  0.16706926  1
  Na  Na20  1  0.33427729  0.66823703  0.65820045  1
  La  La21  1  0.99951956  0.00050986  0.34909181  1
  La  La22  1  0.00027097  0.99590572  0.85104310  1
  La  La23  1  0.00361613  0.00441370  0.65289560  1
  La  La24  1  0.00227488  0.00532543  0.14416856  1
  La  La25  1  0.65616359  0.32884556  0.68672985  1
  La  La26  1  0.66293962  0.33029102  0.17764649  1
  La  La27  1  0.33470218  0.66903976  0.00558379  1
  La  La28  1  0.33236737  0.66207666  0.51109099  1
  La  La29  1  0.33517371  0.66717807  0.32785194  1
  Ta  Ta30  1  0.66882195  0.32586135  0.97909311  1
  Ta  Ta31  1  0.67135571  0.33856007  0.48567373  1
  Ta  Ta32  1  0.32653131  0.66667688  0.82318410  1
  Si  Si33  1  0.30867903  0.32735955  0.75721578  1
  Si  Si34  1  0.95869955  0.32699651  0.58602790  1
  Si  Si35  1  0.67410498  0.63521341  0.58482398  1
  Si  Si36  1  0.66977807  0.03729485  0.07944227  1
  Si  Si37  1  0.37056323  0.32998727  0.07656999  1
  Si  Si38  1  0.02240154  0.37226739  0.92085503  1
  Si  Si39  1  0.64890315  0.99459635  0.41958224  1
  Si  Si40  1  0.34536157  0.34983013  0.41858587  1
  Si  Si41  1  0.00779570  0.65681695  0.41904306  1
  P  P42  1  0.30880915  0.99183432  0.24860838  1
  P  P43  1  0.68528013  0.69119517  0.24821564  1
  P  P44  1  0.00792965  0.31827345  0.24880819  1
  P  P45  1  0.01855920  0.69181319  0.75160227  1
  P  P46  1  0.67497176  0.97898894  0.75361754  1
  P  P47  1  0.36984525  0.04397725  0.57822714  1
  P  P48  1  0.95213798  0.62633951  0.07634717  1
  P  P49  1  0.62222610  0.64069372  0.91745775  1
  P  P50  1  0.35696495  0.98382732  0.91973027  1
  O  O51  1  0.21737521  0.99540045  0.30278412  1
  O  O52  1  0.77837038  0.78178240  0.30267247  1
  O  O53  1  0.00071556  0.22290277  0.30337385  1
  O  O54  1  0.21706825  0.21668658  0.81197087  1
  O  O55  1  0.97877042  0.78066066  0.79746351  1
  O  O56  1  0.80014659  0.00329867  0.79954657  1
  O  O57  1  0.72968644  0.93661923  0.69587092  1
  O  O58  1  0.19858160  0.25313324  0.69819256  1
  O  O59  1  0.04591244  0.77722680  0.69266794  1
  O  O60  1  0.77780435  0.78609300  0.19332696  1
  O  O61  1  0.01186883  0.22539744  0.19431577  1
  O  O62  1  0.21465154  0.98873837  0.19346968  1
  O  O63  1  0.87925526  0.33299491  0.64675872  1
  O  O64  1  0.46308776  0.12067673  0.63323640  1
  O  O65  1  0.66004807  0.54590518  0.64550689  1
  O  O66  1  0.89034391  0.54644002  0.13558076  1
  O  O67  1  0.65862474  0.11064546  0.14111624  1
  O  O68  1  0.45775068  0.34751821  0.13855192  1
  O  O69  1  0.49460543  0.33012201  0.02341314  1
  O  O70  1  0.83577485  0.50709391  0.02799704  1
  O  O71  1  0.67045719  0.16461058  0.02673439  1
  O  O72  1  0.47470589  0.14723946  0.52529813  1
  O  O73  1  0.66606037  0.50878183  0.53131314  1
  O  O74  1  0.83723926  0.32758593  0.53222870  1
  O  O75  1  0.56784874  0.66495067  0.97672302  1
  O  O76  1  0.11268156  0.43446281  0.98177537  1
  O  O77  1  0.33221649  0.90678659  0.97967092  1
  O  O78  1  0.56796204  0.87063201  0.47330348  1
  O  O79  1  0.30076733  0.42975843  0.47221362  1
  O  O80  1  0.12967677  0.69727385  0.47288059  1
  O  O81  1  0.08172304  0.61641742  0.36141529  1
  O  O82  1  0.53465622  0.91866915  0.36196558  1
  O  O83  1  0.38552386  0.46529500  0.36114584  1
  O  O84  1  0.14783814  0.51478842  0.87126582  1
  O  O85  1  0.36689007  0.86894461  0.87330371  1
  O  O86  1  0.49362996  0.63446443  0.87133883  1
  O  O87  1  0.96172274  0.79825082  0.41404121  1
  O  O88  1  0.83595056  0.03634101  0.41478032  1
  O  O89  1  0.20079742  0.16356868  0.41370987  1
  O  O90  1  0.00840165  0.19978212  0.90887928  1
  O  O91  1  0.22194200  0.02130899  0.90890446  1
  O  O92  1  0.79304250  0.77741040  0.90536158  1
  O  O93  1  0.96403204  0.15805598  0.57998944  1
  O  O94  1  0.20801860  0.04563492  0.57659250  1
  O  O95  1  0.84799502  0.80386569  0.57907746  1
  O  O96  1  0.94584973  0.78419363  0.07131511  1
  O  O97  1  0.84072938  0.03826657  0.07236898  1
  O  O98  1  0.20200638  0.15517257  0.07179477  1
  O  O99  1  0.65706992  0.12914213  0.75196984  1
  O  O100  1  0.49797490  0.37468438  0.75606792  1
  O  O101  1  0.88428621  0.51258049  0.75187767  1
  O  O102  1  0.66656006  0.52001059  0.25085139  1
  O  O103  1  0.85734750  0.34084238  0.25028509  1
  O  O104  1  0.48041942  0.14444533  0.25126691  1
  O  O105  1  0.61275247  0.47156803  0.91556134  1
  O  O106  1  0.84383073  0.36480623  0.92368588  1
  O  O107  1  0.52082858  0.15158938  0.92001160  1
  O  O108  1  0.65743891  0.17000585  0.43067149  1
  O  O109  1  0.51349683  0.34343613  0.42988857  1
  O  O110  1  0.83218204  0.48828081  0.43073064  1
  O  O111  1  0.34242353  0.48489258  0.07351263  1
  O  O112  1  0.12626604  0.65727855  0.07073474  1
  O  O113  1  0.51100695  0.85767963  0.07596354  1
  O  O114  1  0.34124114  0.87059464  0.57508341  1
  O  O115  1  0.51813923  0.66262692  0.58050553  1
  O  O116  1  0.13864390  0.48758190  0.58147549  1
  O  O117  1  0.32340962  0.83699747  0.24813674  1
  O  O118  1  0.51553303  0.67710456  0.24730607  1
  O  O119  1  0.16474672  0.48609537  0.24816323  1
  O  O120  1  0.31377440  0.50702878  0.76919261  1
  O  O121  1  0.18114849  0.69315506  0.76872425  1
  O  O122  1  0.50927043  0.82511514  0.77041021  1
