# generated using pymatgen
data_Na2Hf4Ga4Si3(S3O16)3
_symmetry_space_group_name_H-M   'P 1'
_cell_length_a   17.50790073
_cell_length_b   8.74341820
_cell_length_c   22.75884020
_cell_angle_alpha   89.74651470
_cell_angle_beta   90.69617787
_cell_angle_gamma   119.98717483
_symmetry_Int_Tables_number   1
_chemical_formula_structural   Na2Hf4Ga4Si3(S3O16)3
_chemical_formula_sum   'Na6 Hf12 Ga12 Si9 S27 O144'
_cell_volume   3017.30595579
_cell_formula_units_Z   3
loop_
 _symmetry_equiv_pos_site_id
 _symmetry_equiv_pos_as_xyz
  1  'x, y, z'
loop_
 _atom_site_type_symbol
 _atom_site_label
 _atom_site_symmetry_multiplicity
 _atom_site_fract_x
 _atom_site_fract_y
 _atom_site_fract_z
 _atom_site_occupancy
  Na  Na0  1  0.99616701  0.00546344  0.49988243  1
  Na  Na1  1  0.49675787  0.98910333  0.00378022  1
  Na  Na2  1  0.33027624  0.32648081  0.84144474  1
  Na  Na3  1  0.82668419  0.33003455  0.83452957  1
  Na  Na4  1  0.32923236  0.32485769  0.33304403  1
  Na  Na5  1  0.82314014  0.32296155  0.33746199  1
  Hf  Hf6  1  0.50994446  0.01351698  0.35669116  1
  Hf  Hf7  1  0.00345783  0.99821108  0.85905480  1
  Hf  Hf8  1  0.50528476  0.01941165  0.64475168  1
  Hf  Hf9  1  0.00474562  0.98973427  0.14529260  1
  Hf  Hf10  1  0.33744215  0.33498568  0.68645358  1
  Hf  Hf11  1  0.83312924  0.33572497  0.68714970  1
  Hf  Hf12  1  0.33451749  0.33193227  0.18846085  1
  Hf  Hf13  1  0.83371134  0.33307493  0.18984472  1
  Hf  Hf14  1  0.16389485  0.67521535  0.02388402  1
  Hf  Hf15  1  0.66059343  0.66371680  0.02440035  1
  Hf  Hf16  1  0.16124076  0.65964284  0.52282398  1
  Hf  Hf17  1  0.66414118  0.65554898  0.52127137  1
  Ga  Ga18  1  0.00313179  0.00009393  0.34823132  1
  Ga  Ga19  1  0.50450463  0.00747503  0.84978278  1
  Ga  Ga20  1  0.99605616  0.01186728  0.64665464  1
  Ga  Ga21  1  0.50112923  0.96664818  0.15050891  1
  Ga  Ga22  1  0.33158960  0.33169220  0.98322618  1
  Ga  Ga23  1  0.83336776  0.33987306  0.98588690  1
  Ga  Ga24  1  0.33628267  0.32964682  0.48028467  1
  Ga  Ga25  1  0.83249531  0.32683989  0.47888227  1
  Ga  Ga26  1  0.16747362  0.67636280  0.31005399  1
  Ga  Ga27  1  0.66827698  0.66248014  0.31279861  1
  Ga  Ga28  1  0.17106794  0.68549782  0.81889198  1
  Ga  Ga29  1  0.66473231  0.65424553  0.81131484  1
  Si  Si30  1  0.14579091  0.99677082  0.25594188  1
  Si  Si31  1  0.64506760  0.98466159  0.25160081  1
  Si  Si32  1  0.64612713  0.29577529  0.75554859  1
  Si  Si33  1  0.47576891  0.33448085  0.57975789  1
  Si  Si34  1  0.97143492  0.32112730  0.58173253  1
  Si  Si35  1  0.46993783  0.62273445  0.08070759  1
  Si  Si36  1  0.97380458  0.61552581  0.08119768  1
  Si  Si37  1  0.17785748  0.97047158  0.91648700  1
  Si  Si38  1  0.67639955  0.38876714  0.41487162  1
  S  S39  1  0.35215555  0.71232590  0.25136883  1
  S  S40  1  0.85477952  0.71547925  0.25199284  1
  S  S41  1  0.00333061  0.29150726  0.25372455  1
  S  S42  1  0.50284202  0.28691322  0.24830436  1
  S  S43  1  0.14330539  0.29767476  0.75100389  1
  S  S44  1  0.00493845  0.71835108  0.74889209  1
  S  S45  1  0.50149886  0.71280592  0.75393705  1
  S  S46  1  0.35173550  0.98923375  0.75242227  1
  S  S47  1  0.85302110  0.99255604  0.75085468  1
  S  S48  1  0.18611253  0.04764491  0.58217824  1
  S  S49  1  0.68972552  0.04652477  0.58127005  1
  S  S50  1  0.33417068  0.61939746  0.58135292  1
  S  S51  1  0.83843815  0.63089944  0.58307329  1
  S  S52  1  0.33929335  0.04774202  0.08344834  1
  S  S53  1  0.83456467  0.04949788  0.08135776  1
  S  S54  1  0.18958873  0.33169414  0.08128071  1
  S  S55  1  0.68620177  0.32481331  0.08133600  1
  S  S56  1  0.31566503  0.67217109  0.91306849  1
  S  S57  1  0.80803799  0.65750857  0.91591089  1
  S  S58  1  0.01940581  0.38199633  0.91478455  1
  S  S59  1  0.52126087  0.37358776  0.91437415  1
  S  S60  1  0.66785363  0.95955731  0.91467447  1
  S  S61  1  0.30870085  0.95814309  0.41610477  1
  S  S62  1  0.81748396  0.96155379  0.41454730  1
  S  S63  1  0.16792775  0.37567323  0.41544282  1
  S  S64  1  0.02100164  0.66854747  0.41417847  1
  S  S65  1  0.51650165  0.65631809  0.41622686  1
  O  O66  1  0.10201513  0.03907462  0.31180758  1
  O  O67  1  0.60057041  0.02714361  0.30767509  1
  O  O68  1  0.40823834  0.79242084  0.30382934  1
  O  O69  1  0.90977456  0.79133434  0.30552714  1
  O  O70  1  0.48383658  0.17435267  0.30167664  1
  O  O71  1  0.98235621  0.17585059  0.30627550  1
  O  O72  1  0.10224837  0.18087657  0.80288201  1
  O  O73  1  0.60173188  0.16469469  0.81143546  1
  O  O74  1  0.48118842  0.78723062  0.80607838  1
  O  O75  1  0.98860301  0.79965482  0.80149847  1
  O  O76  1  0.40776045  0.02634754  0.80561213  1
  O  O77  1  0.91104830  0.02626526  0.80307978  1
  O  O78  1  0.39363395  0.96771759  0.69937323  1
  O  O79  1  0.89266171  0.96268961  0.69775310  1
  O  O80  1  0.08971434  0.21392431  0.69710741  1
  O  O81  1  0.58655352  0.20133947  0.69620412  1
  O  O82  1  0.01573759  0.82635200  0.69590027  1
  O  O83  1  0.51064649  0.81300903  0.69976181  1
  O  O84  1  0.38936285  0.81972353  0.19755504  1
  O  O85  1  0.89669889  0.82401432  0.19912338  1
  O  O86  1  0.01256793  0.20891509  0.19985283  1
  O  O87  1  0.51060325  0.20049371  0.19523636  1
  O  O88  1  0.08673697  0.97185562  0.19623860  1
  O  O89  1  0.58741855  0.96256682  0.19231662  1
  O  O90  1  0.43047022  0.36139224  0.63933876  1
  O  O91  1  0.93123888  0.35684741  0.64074794  1
  O  O92  1  0.24145642  0.12848453  0.63589742  1
  O  O93  1  0.74328789  0.12883164  0.63558479  1
  O  O94  1  0.31548172  0.50576520  0.63485446  1
  O  O95  1  0.82039863  0.51850746  0.63643630  1
  O  O96  1  0.42972558  0.50516538  0.13920368  1
  O  O97  1  0.92867926  0.49593612  0.13871753  1
  O  O98  1  0.31970755  0.12391079  0.13553265  1
  O  O99  1  0.81545058  0.12438285  0.13354443  1
  O  O100  1  0.24332501  0.35768088  0.13499964  1
  O  O101  1  0.74187456  0.35553449  0.13410069  1
  O  O102  1  0.22526650  0.29226791  0.02925743  1
  O  O103  1  0.72434249  0.29052725  0.02788904  1
  O  O104  1  0.41180490  0.52852980  0.02184498  1
  O  O105  1  0.91554451  0.53365186  0.02177827  1
  O  O106  1  0.35091294  0.15253578  0.02997281  1
  O  O107  1  0.84650421  0.15394346  0.02716907  1
  O  O108  1  0.22391852  0.15908223  0.52969853  1
  O  O109  1  0.72610254  0.15918525  0.52962470  1
  O  O110  1  0.34613048  0.53737104  0.52869553  1
  O  O111  1  0.85154474  0.55028309  0.53069705  1
  O  O112  1  0.41221295  0.29701498  0.52385490  1
  O  O113  1  0.91102016  0.29523786  0.52404399  1
  O  O114  1  0.27566401  0.69844280  0.96598083  1
  O  O115  1  0.76999041  0.68758466  0.96900069  1
  O  O116  1  0.07493769  0.45683920  0.96771668  1
  O  O117  1  0.57825676  0.45678479  0.96775936  1
  O  O118  1  0.15731754  0.84251322  0.97250581  1
  O  O119  1  0.65740292  0.85046085  0.96790054  1
  O  O120  1  0.26846276  0.85263708  0.46981361  1
  O  O121  1  0.77778780  0.85742796  0.46860370  1
  O  O122  1  0.15763559  0.46391742  0.46879112  1
  O  O123  1  0.65975037  0.47550456  0.47315155  1
  O  O124  1  0.07757568  0.69865078  0.46835124  1
  O  O125  1  0.57213053  0.68971594  0.46967046  1
  O  O126  1  0.06308299  0.63982450  0.36307325  1
  O  O127  1  0.55611894  0.62603856  0.36425125  1
  O  O128  1  0.25251952  0.87291429  0.36372275  1
  O  O129  1  0.76218915  0.88043881  0.36186738  1
  O  O130  1  0.18187995  0.48516755  0.36280529  1
  O  O131  1  0.68784636  0.50862421  0.35716239  1
  O  O132  1  0.06061829  0.49049764  0.86172032  1
  O  O133  1  0.56276572  0.48629640  0.86257690  1
  O  O134  1  0.19105003  0.88415824  0.85695756  1
  O  O135  1  0.68152160  0.87815472  0.86202938  1
  O  O136  1  0.25876027  0.63976916  0.85945182  1
  O  O137  1  0.75408906  0.63503517  0.86300698  1
  O  O138  1  0.01233371  0.82938742  0.41021880  1
  O  O139  1  0.50492090  0.81185515  0.41001554  1
  O  O140  1  0.39615429  0.97724819  0.40915285  1
  O  O141  1  0.90746129  0.97799039  0.40875527  1
  O  O142  1  0.08664687  0.20048699  0.41216871  1
  O  O143  1  0.58675178  0.19725964  0.40912160  1
  O  O144  1  0.00948345  0.20325553  0.90672092  1
  O  O145  1  0.51272575  0.19506317  0.91009673  1
  O  O146  1  0.08908226  0.98672537  0.90646675  1
  O  O147  1  0.58571410  0.97058459  0.91127024  1
  O  O148  1  0.40488553  0.83656885  0.90603789  1
  O  O149  1  0.89726397  0.81581577  0.90797748  1
  O  O150  1  0.48301138  0.15861972  0.59026740  1
  O  O151  1  0.98623151  0.15020820  0.58963817  1
  O  O152  1  0.09689302  0.01998834  0.59115690  1
  O  O153  1  0.59982188  0.01755301  0.59096429  1
  O  O154  1  0.41251147  0.79006166  0.59228813  1
  O  O155  1  0.91985806  0.80448310  0.59265469  1
  O  O156  1  0.48164369  0.81958308  0.08635786  1
  O  O157  1  0.98336162  0.80854830  0.08969862  1
  O  O158  1  0.41939169  0.03555412  0.09273878  1
  O  O159  1  0.91282820  0.03534515  0.09101303  1
  O  O160  1  0.09968781  0.18203630  0.09039361  1
  O  O161  1  0.59697080  0.17635592  0.08791374  1
  O  O162  1  0.34093057  0.14967283  0.74488983  1
  O  O163  1  0.84660158  0.15606058  0.74426393  1
  O  O164  1  0.23211545  0.31325555  0.74475782  1
  O  O165  1  0.74371579  0.31411844  0.74666285  1
  O  O166  1  0.42065546  0.53008092  0.74717800  1
  O  O167  1  0.92346842  0.54120780  0.74413339  1
  O  O168  1  0.34506719  0.53490064  0.24441122  1
  O  O169  1  0.84699095  0.53746753  0.24492712  1
  O  O170  1  0.42204902  0.30716802  0.24406957  1
  O  O171  1  0.92433127  0.31482092  0.24685004  1
  O  O172  1  0.24296698  0.17331308  0.24641137  1
  O  O173  1  0.74282746  0.16397761  0.24401805  1
  O  O174  1  0.32574706  0.51494981  0.91813548  1
  O  O175  1  0.81681542  0.49712411  0.92087072  1
  O  O176  1  0.43450222  0.35763453  0.92104764  1
  O  O177  1  0.92977035  0.35786379  0.92070596  1
  O  O178  1  0.26214205  0.16740293  0.92641869  1
  O  O179  1  0.74756060  0.13921919  0.92280676  1
  O  O180  1  0.31549147  0.13590624  0.42092343  1
  O  O181  1  0.82749862  0.14038055  0.42007118  1
  O  O182  1  0.24805859  0.35655655  0.42382109  1
  O  O183  1  0.76209230  0.36140043  0.42486413  1
  O  O184  1  0.42618598  0.49788928  0.42267834  1
  O  O185  1  0.93422447  0.51011209  0.42160230  1
  O  O186  1  0.18462405  0.49306651  0.07316788  1
  O  O187  1  0.68338119  0.49144915  0.07263930  1
  O  O188  1  0.07068662  0.63451155  0.07510432  1
  O  O189  1  0.56851873  0.64549740  0.07071324  1
  O  O190  1  0.26159425  0.86750547  0.07637359  1
  O  O191  1  0.75652023  0.86992896  0.07280561  1
  O  O192  1  0.18179078  0.87470879  0.57482087  1
  O  O193  1  0.68462169  0.87587683  0.57452504  1
  O  O194  1  0.25625390  0.64243336  0.57399733  1
  O  O195  1  0.76230089  0.65838058  0.57676097  1
  O  O196  1  0.06969966  0.49427720  0.57134785  1
  O  O197  1  0.57173548  0.50854032  0.57520438  1
  O  O198  1  0.15350046  0.82163093  0.26134228  1
  O  O199  1  0.65483300  0.81402291  0.26483571  1
  O  O200  1  0.26316955  0.68490980  0.25955421  1
  O  O201  1  0.76712813  0.69497262  0.25625302  1
  O  O202  1  0.08288435  0.46301817  0.26224688  1
  O  O203  1  0.58021120  0.46147452  0.25646165  1
  O  O204  1  0.15265983  0.47175672  0.76054001  1
  O  O205  1  0.65436641  0.48673570  0.76133243  1
  O  O206  1  0.08168692  0.69562043  0.75760768  1
  O  O207  1  0.58010201  0.69745384  0.76217744  1
  O  O208  1  0.26455825  0.83090151  0.75748652  1
  O  O209  1  0.76539789  0.84150948  0.75957606  1
