# generated using pymatgen
data_NaSc3NbP3(SO8)3
_symmetry_space_group_name_H-M   'P 1'
_cell_length_a   8.84447995
_cell_length_b   8.81884944
_cell_length_c   22.99875458
_cell_angle_alpha   90.21191554
_cell_angle_beta   89.99755301
_cell_angle_gamma   120.03207714
_symmetry_Int_Tables_number   1
_chemical_formula_structural   NaSc3NbP3(SO8)3
_chemical_formula_sum   'Na3 Sc9 Nb3 P9 S9 O72'
_cell_volume   1553.01193972
_cell_formula_units_Z   3
loop_
 _symmetry_equiv_pos_site_id
 _symmetry_equiv_pos_as_xyz
  1  'x, y, z'
loop_
 _atom_site_type_symbol
 _atom_site_label
 _atom_site_symmetry_multiplicity
 _atom_site_fract_x
 _atom_site_fract_y
 _atom_site_fract_z
 _atom_site_occupancy
  Na  Na0  1  0.00106587  0.00834786  0.99968774  1
  Na  Na1  1  0.67442537  0.33793351  0.83387453  1
  Na  Na2  1  0.66502272  0.33729823  0.33564413  1
  Sc  Sc3  1  0.99792860  0.99701483  0.35643174  1
  Sc  Sc4  1  0.99807649  0.00029926  0.85372343  1
  Sc  Sc5  1  0.99134290  0.99952404  0.14648733  1
  Sc  Sc6  1  0.67190559  0.33761321  0.68436945  1
  Sc  Sc7  1  0.66854026  0.32645633  0.97997584  1
  Sc  Sc8  1  0.66168749  0.33288514  0.48298911  1
  Sc  Sc9  1  0.33346096  0.65845878  0.02258949  1
  Sc  Sc10  1  0.34194724  0.66141295  0.31134010  1
  Sc  Sc11  1  0.31800085  0.65998826  0.81190642  1
  Nb  Nb12  1  0.00316798  0.99339335  0.64355058  1
  Nb  Nb13  1  0.65760230  0.33252921  0.18380432  1
  Nb  Nb14  1  0.32915881  0.65591275  0.52405309  1
  P  P15  1  0.71359044  0.71254638  0.25017360  1
  P  P16  1  0.99755902  0.70959156  0.75136341  1
  P  P17  1  0.95100043  0.32835885  0.58349469  1
  P  P18  1  0.38115687  0.04466300  0.58324912  1
  P  P19  1  0.66656609  0.62054146  0.58348885  1
  P  P20  1  0.66591941  0.04171828  0.08189156  1
  P  P21  1  0.37219772  0.32943660  0.08057776  1
  P  P22  1  0.04281389  0.37629096  0.91694510  1
  P  P23  1  0.33469281  0.37629789  0.41548904  1
  S  S24  1  0.28868933  0.99830732  0.25002009  1
  S  S25  1  0.99793159  0.29023096  0.25025400  1
  S  S26  1  0.28998951  0.28779019  0.75018602  1
  S  S27  1  0.71090076  -0.00018903  0.75009651  1
  S  S28  1  0.95596465  0.62322074  0.08287325  1
  S  S29  1  0.62273160  0.66597691  0.91619397  1
  S  S30  1  0.33250075  0.95573644  0.91673965  1
  S  S31  1  0.62027872  0.95522311  0.41661624  1
  S  S32  1  0.04546469  0.66492166  0.41608001  1
  O  O33  1  0.21626019  0.03646612  0.30222908  1
  O  O34  1  0.82785544  0.79071680  0.30454842  1
  O  O35  1  0.96517595  0.18028993  0.30216447  1
  O  O36  1  0.20868201  0.17924100  0.80161759  1
  O  O37  1  0.96982492  0.79899202  0.80361048  1
  O  O38  1  0.82142217  0.03140160  0.80177361  1
  O  O39  1  0.79886583  0.97705186  0.69709571  1
  O  O40  1  0.17810470  0.20232664  0.69695022  1
  O  O41  1  0.02017590  0.82945476  0.69557421  1
  O  O42  1  0.79768535  0.82052242  0.19591062  1
  O  O43  1  0.02632348  0.21169844  0.19795407  1
  O  O44  1  0.18642978  0.97611232  0.19750772  1
  O  O45  1  0.87934598  0.36871745  0.63741296  1
  O  O46  1  0.48876580  0.12002653  0.63773337  1
  O  O47  1  0.62966567  0.51112418  0.63750622  1
  O  O48  1  0.86808654  0.51085733  0.13643559  1
  O  O49  1  0.64570257  0.14250840  0.13757765  1
  O  O50  1  0.49518684  0.35639471  0.13757282  1
  O  O51  1  0.46367338  0.30215310  0.02948720  1
  O  O52  1  0.84530264  0.54403649  0.03164036  1
  O  O53  1  0.70027510  0.16136906  0.03005768  1
  O  O54  1  0.45400949  0.15548367  0.52913492  1
  O  O55  1  0.70306199  0.54801120  0.52896192  1
  O  O56  1  0.84469118  0.29795324  0.52874835  1
  O  O57  1  0.54487033  0.69556273  0.96902954  1
  O  O58  1  0.15597600  0.46251775  0.97128221  1
  O  O59  1  0.30680235  0.85022134  0.96920468  1
  O  O60  1  0.53540582  0.84558363  0.46927890  1
  O  O61  1  0.31168883  0.47371334  0.47093085  1
  O  O62  1  0.15541726  0.69095908  0.46948879  1
  O  O63  1  0.12674782  0.63870678  0.36429549  1
  O  O64  1  0.51144799  0.87633011  0.36449962  1
  O  O65  1  0.36306606  0.49384364  0.36318150  1
  O  O66  1  0.12877324  0.48872721  0.86221149  1
  O  O67  1  0.36124781  0.87693892  0.86399565  1
  O  O68  1  0.51704659  0.64136538  0.86369397  1
  O  O69  1  0.02985810  0.82318187  0.41048781  1
  O  O70  1  0.79313827  0.97045661  0.41002049  1
  O  O71  1  0.16917317  0.19840471  0.40860116  1
  O  O72  1  0.02287698  0.19226526  0.90961716  1
  O  O73  1  0.17562864  0.97534651  0.91028851  1
  O  O74  1  0.80015248  0.82397466  0.91060236  1
  O  O75  1  0.98242558  0.17253878  0.59617102  1
  O  O76  1  0.19335946  0.01947849  0.59492653  1
  O  O77  1  0.82583321  0.80913735  0.59497691  1
  O  O78  1  0.97389193  0.79749571  0.09154080  1
  O  O79  1  0.82950069  0.02616760  0.09151644  1
  O  O80  1  0.19608691  0.16680199  0.09261413  1
  O  O81  1  0.69272043  0.15703939  0.74267717  1
  O  O82  1  0.46339754  0.30396444  0.74254819  1
  O  O83  1  0.83493721  0.52898363  0.74219266  1
  O  O84  1  0.69200939  0.52240724  0.23971770  1
  O  O85  1  0.83796573  0.30937152  0.24196355  1
  O  O86  1  0.47154853  0.16160940  0.24221729  1
  O  O87  1  0.64211686  0.50900457  0.92269948  1
  O  O88  1  0.85973895  0.35780937  0.92264301  1
  O  O89  1  0.48922413  0.13372395  0.92210869  1
  O  O90  1  0.64120986  0.13196627  0.42362019  1
  O  O91  1  0.49793795  0.35972387  0.42409901  1
  O  O92  1  0.87035999  0.50818755  0.42352145  1
  O  O93  1  0.36248916  0.49622683  0.07748884  1
  O  O94  1  0.12674842  0.63746911  0.07794502  1
  O  O95  1  0.50102580  0.86564802  0.07611978  1
  O  O96  1  0.35100206  0.85697235  0.57008010  1
  O  O97  1  0.50731906  0.64969633  0.57150099  1
  O  O98  1  0.13951713  0.49260317  0.57168446  1
  O  O99  1  0.31314701  0.84779055  0.25846467  1
  O  O100  1  0.53067002  0.68587088  0.25863563  1
  O  O101  1  0.14967559  0.46610552  0.25823875  1
  O  O102  1  0.30706523  0.46168964  0.75597802  1
  O  O103  1  0.16377417  0.69844748  0.75598143  1
  O  O104  1  0.53946360  0.84199521  0.75671846  1
