# generated using pymatgen
data_LaSnP(SO6)2
_symmetry_space_group_name_H-M   'P 1'
_cell_length_a   9.21966133
_cell_length_b   9.26026133
_cell_length_c   22.75435536
_cell_angle_alpha   89.72515224
_cell_angle_beta   90.00000000
_cell_angle_gamma   119.85507331
_symmetry_Int_Tables_number   1
_chemical_formula_structural   LaSnP(SO6)2
_chemical_formula_sum   'La6 Sn6 P6 S12 O72'
_cell_volume   1684.84176431
_cell_formula_units_Z   6
loop_
 _symmetry_equiv_pos_site_id
 _symmetry_equiv_pos_as_xyz
  1  'x, y, z'
loop_
 _atom_site_type_symbol
 _atom_site_label
 _atom_site_symmetry_multiplicity
 _atom_site_fract_x
 _atom_site_fract_y
 _atom_site_fract_z
 _atom_site_occupancy
  La  La0  1  0.00330718  0.00267680  0.36976007  1
  La  La1  1  0.99936962  0.00267680  0.86976007  1
  La  La2  1  0.67919579  0.33865313  0.70336452  1
  La  La3  1  0.65945834  0.33865313  0.20336452  1
  La  La4  1  0.32604768  0.65190880  0.03607723  1
  La  La5  1  0.32586012  0.65190880  0.53607723  1
  Sn  Sn6  1  0.99885981  0.00179890  0.64923833  1
  Sn  Sn7  1  0.00293909  0.00179890  0.14923833  1
  Sn  Sn8  1  0.66313316  0.33147965  0.98311653  1
  Sn  Sn9  1  0.66834750  0.33147965  0.48311653  1
  Sn  Sn10  1  0.34976869  0.66493106  0.31608287  1
  Sn  Sn11  1  0.31516137  0.66493106  0.81608287  1
  P  P12  1  0.70441257  0.74727420  0.24932527  1
  P  P13  1  0.04286163  0.74727420  0.74932527  1
  P  P14  1  0.92274300  0.28191913  0.58262114  1
  P  P15  1  0.35917714  0.28191913  0.08262114  1
  P  P16  1  0.02150138  0.40260815  0.91719488  1
  P  P17  1  0.38110577  0.40260815  0.41719488  1
  S  S18  1  0.26610063  0.94920908  0.25108781  1
  S  S19  1  0.04675718  0.31169492  0.24915459  1
  S  S20  1  0.26493774  0.31169492  0.74915459  1
  S  S21  1  0.68310846  0.94920908  0.75108781  1
  S  S22  1  0.36058768  0.06865285  0.58390218  1
  S  S23  1  0.71249184  0.64217887  0.58306664  1
  S  S24  1  0.92968803  0.64217887  0.08306664  1
  S  S25  1  0.70806617  0.06865285  0.08390218  1
  S  S26  1  0.59183047  0.62108748  0.91515905  1
  S  S27  1  0.37872873  0.97352344  0.91741703  1
  S  S28  1  0.59479372  0.97352344  0.41741703  1
  S  S29  1  0.02925601  0.62108748  0.41515905  1
  O  O30  1  0.19543852  0.98675008  0.30237479  1
  O  O31  1  0.81341571  0.82923058  0.30263310  1
  O  O32  1  0.01682812  0.20986865  0.30190917  1
  O  O33  1  0.19304053  0.20986865  0.80190917  1
  O  O34  1  0.01581487  0.82923058  0.80263310  1
  O  O35  1  0.79131156  0.98675008  0.80237479  1
  O  O36  1  0.76435699  0.92834369  0.69642611  1
  O  O37  1  0.15669960  0.23123320  0.69567051  1
  O  O38  1  0.07077745  0.85645683  0.69203748  1
  O  O39  1  0.78567938  0.85645683  0.19203748  1
  O  O40  1  0.07453360  0.23123320  0.19567051  1
  O  O41  1  0.16398671  0.92834369  0.19642611  1
  O  O42  1  0.84328447  0.31177698  0.63627241  1
  O  O43  1  0.46220903  0.14398090  0.63590685  1
  O  O44  1  0.67387475  0.53477475  0.63459497  1
  O  O45  1  0.86090100  0.53477475  0.13459497  1
  O  O46  1  0.68177287  0.14398090  0.13590685  1
  O  O47  1  0.46849351  0.31177698  0.13627241  1
  O  O48  1  0.44158594  0.25375137  0.02572765  1
  O  O49  1  0.82599328  0.56029874  0.02895074  1
  O  O50  1  0.73340099  0.17436001  0.02938061  1
  O  O51  1  0.44096002  0.17436001  0.52938061  1
  O  O52  1  0.73430646  0.56029874  0.52895074  1
  O  O53  1  0.81216643  0.25375137  0.52572765  1
  O  O54  1  0.52367349  0.65603093  0.96746696  1
  O  O55  1  0.13548058  0.48222076  0.96954101  1
  O  O56  1  0.35253122  0.87114927  0.96899914  1
  O  O57  1  0.51861705  0.87114927  0.46899914  1
  O  O58  1  0.34673918  0.48222076  0.46954101  1
  O  O59  1  0.13235644  0.65603093  0.46746696  1
  O  O60  1  0.11369621  0.60074590  0.36138343  1
  O  O61  1  0.49256215  0.89437342  0.36255113  1
  O  O62  1  0.41303436  0.51421551  0.36021434  1
  O  O63  1  0.10118015  0.51421551  0.86021434  1
  O  O64  1  0.40181028  0.89437342  0.86255113  1
  O  O65  1  0.48704869  0.60074590  0.86138343  1
  O  O66  1  0.99194117  0.75647217  0.40622336  1
  O  O67  1  0.76641299  0.00469836  0.40954496  1
  O  O68  1  0.23838900  0.22586460  0.40658351  1
  O  O69  1  0.98747560  0.22586460  0.90658351  1
  O  O70  1  0.23828537  0.00469836  0.90954496  1
  O  O71  1  0.76453101  0.75647217  0.90622336  1
  O  O72  1  0.92600405  0.11490470  0.58966047  1
  O  O73  1  0.19663677  0.06594273  0.58862373  1
  O  O74  1  0.87619454  0.79973491  0.58943816  1
  O  O75  1  0.92354037  0.79973491  0.08943816  1
  O  O76  1  0.86930596  0.06594273  0.08862373  1
  O  O77  1  0.18890065  0.11490470  0.08966047  1
  O  O78  1  0.64166603  0.08179137  0.74288274  1
  O  O79  1  0.43435872  0.34147509  0.73907880  1
  O  O80  1  0.89720534  0.57135959  0.74021345  1
  O  O81  1  0.67415525  0.57135959  0.24021345  1
  O  O82  1  0.90711737  0.34147509  0.23907880  1
  O  O83  1  0.44012634  0.08179137  0.24288274  1
  O  O84  1  0.58976073  0.45866496  0.92137005  1
  O  O85  1  0.85246394  0.40169042  0.92552127  1
  O  O86  1  0.53880791  0.13686326  0.92133268  1
  O  O87  1  0.59805634  0.13686326  0.42133268  1
  O  O88  1  0.54922748  0.40169042  0.42552127  1
  O  O89  1  0.86890523  0.45866496  0.42137005  1
  O  O90  1  0.32704411  0.42649624  0.07363796  1
  O  O91  1  0.10351355  0.68327109  0.07400020  1
  O  O92  1  0.56815493  0.89998551  0.07467608  1
  O  O93  1  0.33182958  0.89998551  0.57467608  1
  O  O94  1  0.57975654  0.68327109  0.57400020  1
  O  O95  1  0.09945113  0.42649624  0.57363796  1
  O  O96  1  0.25871652  0.78451187  0.25843888  1
  O  O97  1  0.53297090  0.74254256  0.25530517  1
  O  O98  1  0.20616571  0.47457252  0.25486000  1
  O  O99  1  0.26840581  0.47457252  0.75486000  1
  O  O100  1  0.20957066  0.74254256  0.75530517  1
  O  O101  1  0.52579434  0.78451187  0.75843888  1
