# generated using pymatgen
data_Na2TaIn3P4(SO12)2
_symmetry_space_group_name_H-M   'P 1'
_cell_length_a   8.84749557
_cell_length_b   8.83710198
_cell_length_c   23.23274630
_cell_angle_alpha   90.13962021
_cell_angle_beta   89.78704751
_cell_angle_gamma   120.02431882
_symmetry_Int_Tables_number   1
_chemical_formula_structural   Na2TaIn3P4(SO12)2
_chemical_formula_sum   'Na6 Ta3 In9 P12 S6 O72'
_cell_volume   1572.72151786
_cell_formula_units_Z   3
loop_
 _symmetry_equiv_pos_site_id
 _symmetry_equiv_pos_as_xyz
  1  'x, y, z'
loop_
 _atom_site_type_symbol
 _atom_site_label
 _atom_site_symmetry_multiplicity
 _atom_site_fract_x
 _atom_site_fract_y
 _atom_site_fract_z
 _atom_site_occupancy
  Na  Na0  1  0.99454171  0.99359736  0.49869531  1
  Na  Na1  1  0.00440533  0.00015589  0.99802554  1
  Na  Na2  1  0.66673830  0.33209152  0.82988348  1
  Na  Na3  1  0.67767726  0.33874529  0.33174779  1
  Na  Na4  1  0.32928013  0.65668885  0.16064825  1
  Na  Na5  1  0.33362759  0.66667256  0.66894282  1
  Ta  Ta6  1  0.66444516  0.34162410  0.97768153  1
  Ta  Ta7  1  0.33185329  0.66765110  0.31304173  1
  Ta  Ta8  1  0.33185274  0.66693670  0.81436119  1
  In  In9  1  0.98701246  0.99301077  0.35062337  1
  In  In10  1  0.00074593  0.00037045  0.85125129  1
  In  In11  1  0.00009920  0.99966587  0.65593286  1
  In  In12  1  0.99787389  0.00091252  0.14590861  1
  In  In13  1  0.66693770  0.33363423  0.68828623  1
  In  In14  1  0.67539579  0.34571787  0.18397650  1
  In  In15  1  0.67370795  0.33256087  0.47863499  1
  In  In16  1  0.32809188  0.66080139  0.01727099  1
  In  In17  1  0.33356352  0.67246414  0.51659745  1
  P  P18  1  0.70534634  0.70491418  0.25042886  1
  P  P19  1  0.99807712  0.29109334  0.25089315  1
  P  P20  1  0.29372462  0.29576353  0.75114845  1
  P  P21  1  0.00179689  0.70646811  0.75115358  1
  P  P22  1  0.70452855  0.99801832  0.75125896  1
  P  P23  1  0.96000720  0.62599209  0.08224256  1
  P  P24  1  0.37598326  0.33346434  0.08356115  1
  P  P25  1  0.62254549  0.67062086  0.91715498  1
  P  P26  1  0.04083195  0.37443598  0.91703560  1
  P  P27  1  0.33403003  0.95700358  0.91790616  1
  P  P28  1  0.62305222  0.95671939  0.41666511  1
  P  P29  1  0.04320567  0.66987329  0.41626505  1
  S  S30  1  0.29493459  0.00050610  0.25122248  1
  S  S31  1  0.96294717  0.33192212  0.58332528  1
  S  S32  1  0.37161077  0.04121774  0.58312511  1
  S  S33  1  0.66678339  0.62777344  0.58265275  1
  S  S34  1  0.66464565  0.04498651  0.08206691  1
  S  S35  1  0.33234566  0.37572745  0.41579974  1
  O  O36  1  0.21859981  0.02749541  0.30370651  1
  O  O37  1  0.81332417  0.77992755  0.30471574  1
  O  O38  1  0.97532619  0.18834905  0.30596975  1
  O  O39  1  0.21555510  0.18604570  0.80428300  1
  O  O40  1  0.97018997  0.78445186  0.80442339  1
  O  O41  1  0.81415101  0.02937304  0.80425050  1
  O  O42  1  0.76786535  0.95496051  0.69474303  1
  O  O43  1  0.18741764  0.23220716  0.69490131  1
  O  O44  1  0.04531159  0.81289647  0.69484027  1
  O  O45  1  0.77455358  0.81727423  0.19632522  1
  O  O46  1  0.04356210  0.22418092  0.19652354  1
  O  O47  1  0.18873749  0.96094057  0.19940162  1
  O  O48  1  0.88313386  0.36086642  0.63478484  1
  O  O49  1  0.47906160  0.12142938  0.63461133  1
  O  O50  1  0.63982094  0.52126489  0.63444695  1
  O  O51  1  0.88584377  0.51856480  0.13688941  1
  O  O52  1  0.63878299  0.11885192  0.13581492  1
  O  O53  1  0.48105254  0.35670803  0.13803239  1
  O  O54  1  0.47702045  0.31387637  0.02896490  1
  O  O55  1  0.83767187  0.52244922  0.02869697  1
  O  O56  1  0.68587157  0.15631176  0.03042919  1
  O  O57  1  0.45105398  0.14557155  0.53011208  1
  O  O58  1  0.69190368  0.54768571  0.52967700  1
  O  O59  1  0.85828157  0.30519082  0.53055596  1
  O  O60  1  0.54569841  0.69551507  0.97181104  1
  O  O61  1  0.14622635  0.45049453  0.97086379  1
  O  O62  1  0.30785835  0.85191948  0.97171210  1
  O  O63  1  0.54738649  0.84891252  0.47123219  1
  O  O64  1  0.30437359  0.44964448  0.46891546  1
  O  O65  1  0.14668155  0.69410967  0.47114902  1
  O  O66  1  0.14256638  0.64678590  0.36289727  1
  O  O67  1  0.50375220  0.85530480  0.36328195  1
  O  O68  1  0.35497145  0.48850736  0.36421360  1
  O  O69  1  0.13156979  0.49579594  0.86326625  1
  O  O70  1  0.36389668  0.86705473  0.86358861  1
  O  O71  1  0.50313292  0.63662547  0.86337236  1
  O  O72  1  0.03093098  0.83527675  0.40921489  1
  O  O73  1  0.80541907  0.97921554  0.41155111  1
  O  O74  1  0.17804519  0.20181745  0.40889255  1
  O  O75  1  0.01298456  0.19207001  0.90913714  1
  O  O76  1  0.17994562  0.98521282  0.90982751  1
  O  O77  1  0.80672733  0.82130727  0.90973378  1
  O  O78  1  0.97979569  0.17347042  0.58811863  1
  O  O79  1  0.19558019  0.02283603  0.58778303  1
  O  O80  1  0.82508021  0.80374971  0.58738369  1
  O  O81  1  0.96522186  0.80283381  0.08403892  1
  O  O82  1  0.82643172  0.03416069  0.08413961  1
  O  O83  1  0.19680564  0.16403300  0.08415460  1
  O  O84  1  0.67693782  0.15543516  0.74482916  1
  O  O85  1  0.47857799  0.32342312  0.74475089  1
  O  O86  1  0.84469040  0.52139160  0.74479005  1
  O  O87  1  0.67197532  0.51760514  0.24641652  1
  O  O88  1  0.83953157  0.31676881  0.24574621  1
  O  O89  1  0.47293280  0.14961785  0.24529016  1
  O  O90  1  0.63482525  0.49644265  0.92453612  1
  O  O91  1  0.85707714  0.36267661  0.92522191  1
  O  O92  1  0.50664824  0.14154308  0.92559982  1
  O  O93  1  0.62876568  0.13419979  0.41776371  1
  O  O94  1  0.49421126  0.36610643  0.41877883  1
  O  O95  1  0.86289524  0.50129767  0.41754094  1
  O  O96  1  0.36194155  0.49814704  0.07741330  1
  O  O97  1  0.14147163  0.64687548  0.07650730  1
  O  O98  1  0.50987193  0.87012875  0.07680803  1
  O  O99  1  0.35506823  0.86481378  0.57923423  1
  O  O100  1  0.50646837  0.64308209  0.57791735  1
  O  O101  1  0.13930111  0.49125011  0.57801441  1
  O  O102  1  0.31162877  0.83692868  0.26007152  1
  O  O103  1  0.51890046  0.68841407  0.26282762  1
  O  O104  1  0.16690560  0.48021676  0.26277535  1
  O  O105  1  0.31201000  0.48195689  0.76153297  1
  O  O106  1  0.16965738  0.68832462  0.76127407  1
  O  O107  1  0.51828486  0.83002516  0.76156480  1
