# generated using pymatgen
data_Na6Y3TaSi4(SO12)2
_symmetry_space_group_name_H-M   'P 1'
_cell_length_a   9.36045530
_cell_length_b   9.38385187
_cell_length_c   23.22999664
_cell_angle_alpha   89.79314304
_cell_angle_beta   90.48733397
_cell_angle_gamma   120.07191186
_symmetry_Int_Tables_number   1
_chemical_formula_structural   Na6Y3TaSi4(SO12)2
_chemical_formula_sum   'Na18 Y9 Ta3 Si12 S6 O72'
_cell_volume   1765.74060051
_cell_formula_units_Z   3
loop_
 _symmetry_equiv_pos_site_id
 _symmetry_equiv_pos_as_xyz
  1  'x, y, z'
loop_
 _atom_site_type_symbol
 _atom_site_label
 _atom_site_symmetry_multiplicity
 _atom_site_fract_x
 _atom_site_fract_y
 _atom_site_fract_z
 _atom_site_occupancy
  Na  Na0  1  0.62246390  0.99906176  0.25303763  1
  Na  Na1  1  0.64500778  0.63254707  0.75434863  1
  Na  Na2  1  0.00890841  0.36711814  0.74232336  1
  Na  Na3  1  0.29730421  0.35021142  0.58314623  1
  Na  Na4  1  0.01634527  0.68159748  0.59071278  1
  Na  Na5  1  0.67929462  0.95854215  0.57130949  1
  Na  Na6  1  0.30047351  0.94921851  0.08718844  1
  Na  Na7  1  0.67077223  0.71487170  0.07213821  1
  Na  Na8  1  0.02334072  0.34093852  0.07930592  1
  Na  Na9  1  0.97985634  0.68447778  0.91436621  1
  Na  Na10  1  0.32402723  0.29255973  0.91089549  1
  Na  Na11  1  0.67458236  0.67543605  0.41584899  1
  Na  Na12  1  0.99653648  0.03182686  0.49410798  1
  Na  Na13  1  0.97186689  0.99052208  0.99295283  1
  Na  Na14  1  0.64868304  0.32594491  0.83004106  1
  Na  Na15  1  0.61944104  0.30028759  0.33369679  1
  Na  Na16  1  0.31156213  0.68453452  0.16898892  1
  Na  Na17  1  0.32273690  0.65121403  0.66776603  1
  Y  Y18  1  0.02410788  0.01609012  0.35256530  1
  Y  Y19  1  0.00188602  0.99745884  0.85047790  1
  Y  Y20  1  0.00826419  0.00266038  0.65145767  1
  Y  Y21  1  0.00616928  0.99063640  0.14769412  1
  Y  Y22  1  0.66718974  0.34230537  0.68602736  1
  Y  Y23  1  0.66277927  0.32958463  0.18550560  1
  Y  Y24  1  0.33589030  0.67507819  0.01441264  1
  Y  Y25  1  0.33591474  0.65869298  0.51317680  1
  Y  Y26  1  0.33711219  0.67418244  0.32031413  1
  Ta  Ta27  1  0.68260358  0.33205053  0.97433884  1
  Ta  Ta28  1  0.67397731  0.33457150  0.48042148  1
  Ta  Ta29  1  0.32378769  0.66137635  0.82203155  1
  Si  Si30  1  0.30487737  0.99452316  0.24719038  1
  Si  Si31  1  0.30387790  0.31348049  0.75333475  1
  Si  Si32  1  0.00990183  0.69865828  0.75105326  1
  Si  Si33  1  0.96114410  0.33362030  0.58529285  1
  Si  Si34  1  0.66954894  0.63083787  0.58179689  1
  Si  Si35  1  0.95554882  0.62388285  0.08051859  1
  Si  Si36  1  0.67060175  0.04388024  0.08247294  1
  Si  Si37  1  0.62729041  0.65851286  0.91992826  1
  Si  Si38  1  0.03660197  0.36755179  0.92024009  1
  Si  Si39  1  0.34318936  0.96784729  0.91816228  1
  Si  Si40  1  0.64035045  0.97476354  0.41892743  1
  Si  Si41  1  0.34304205  0.36545187  0.42150984  1
  S  S42  1  0.70018735  0.70372005  0.25132289  1
  S  S43  1  0.00274966  0.29845742  0.24804974  1
  S  S44  1  0.69017290  0.98835106  0.74976851  1
  S  S45  1  0.37941657  0.04787495  0.57973863  1
  S  S46  1  0.37564907  0.33193504  0.07910723  1
  S  S47  1  0.02144470  0.65640898  0.41970235  1
  O  O48  1  0.19695588  0.00170984  0.30008889  1
  O  O49  1  0.79721369  0.78701990  0.30345431  1
  O  O50  1  0.98060405  0.19026052  0.29782936  1
  O  O51  1  0.20965711  0.20611422  0.80905747  1
  O  O52  1  0.96558399  0.77980843  0.80430118  1
  O  O53  1  0.80068795  0.01848927  0.79966919  1
  O  O54  1  0.76520959  0.96251030  0.69692657  1
  O  O55  1  0.19001342  0.23806943  0.69427413  1
  O  O56  1  0.03439898  0.80118668  0.69079018  1
  O  O57  1  0.78289781  0.80497589  0.19888199  1
  O  O58  1  0.01649369  0.22092384  0.19400087  1
  O  O59  1  0.21316434  0.98706177  0.18479636  1
  O  O60  1  0.87740162  0.34489339  0.64446253  1
  O  O61  1  0.47716243  0.11714217  0.63250628  1
  O  O62  1  0.63926256  0.52162863  0.63949514  1
  O  O63  1  0.86016868  0.51213725  0.13501983  1
  O  O64  1  0.64121821  0.12281905  0.13973024  1
  O  O65  1  0.47396108  0.35209814  0.13141838  1
  O  O66  1  0.45848137  0.31415500  0.02716691  1
  O  O67  1  0.83660734  0.51977281  0.02142142  1
  O  O68  1  0.67987316  0.17027333  0.02648290  1
  O  O69  1  0.46983536  0.15322504  0.52899120  1
  O  O70  1  0.68183960  0.51794836  0.52720685  1
  O  O71  1  0.83260727  0.32129143  0.53130401  1
  O  O72  1  0.55244639  0.67846371  0.97923819  1
  O  O73  1  0.13743298  0.44464017  0.97854741  1
  O  O74  1  0.30360747  0.86300863  0.97659693  1
  O  O75  1  0.55107100  0.86559587  0.47623590  1
  O  O76  1  0.32032744  0.44215494  0.48122689  1
  O  O77  1  0.11646340  0.68261942  0.47343977  1
  O  O78  1  0.10136692  0.63146765  0.37012600  1
  O  O79  1  0.52652001  0.89777097  0.36113946  1
  O  O80  1  0.38436055  0.49630838  0.36897439  1
  O  O81  1  0.13886194  0.50160673  0.86529456  1
  O  O82  1  0.36192631  0.85598468  0.86484958  1
  O  O83  1  0.49805557  0.63739759  0.86445384  1
  O  O84  1  0.98590599  0.79204785  0.41217250  1
  O  O85  1  0.81548535  0.97792269  0.41330583  1
  O  O86  1  0.18940253  0.17994557  0.41628043  1
  O  O87  1  0.01233620  0.18886412  0.91011123  1
  O  O88  1  0.18678705  0.99493962  0.90847010  1
  O  O89  1  0.81505198  0.80551670  0.91152593  1
  O  O90  1  0.97673491  0.16686705  0.58207810  1
  O  O91  1  0.21857324  0.04415000  0.58247383  1
  O  O92  1  0.84348137  0.80825297  0.58266599  1
  O  O93  1  0.96562341  0.80470717  0.07958127  1
  O  O94  1  0.84637547  0.04459687  0.08128080  1
  O  O95  1  0.20910782  0.18120806  0.08244411  1
  O  O96  1  0.66730800  0.13168365  0.74408800  1
  O  O97  1  0.49156105  0.34455948  0.75074094  1
  O  O98  1  0.85609674  0.50636473  0.74866415  1
  O  O99  1  0.68043299  0.53822932  0.24724104  1
  O  O100  1  0.85051400  0.31159064  0.24650613  1
  O  O101  1  0.49239116  0.15782532  0.25133229  1
  O  O102  1  0.62738419  0.47765249  0.92325443  1
  O  O103  1  0.85676175  0.36803958  0.92146038  1
  O  O104  1  0.51172299  0.15285748  0.92306294  1
  O  O105  1  0.66286779  0.16290209  0.43108191  1
  O  O106  1  0.51880488  0.35512636  0.42866760  1
  O  O107  1  0.85319545  0.50122326  0.42506435  1
  O  O108  1  0.35418838  0.47799643  0.07666729  1
  O  O109  1  0.13917815  0.64266235  0.07969880  1
  O  O110  1  0.51313389  0.85667691  0.07890817  1
  O  O111  1  0.34913635  0.87826878  0.57331969  1
  O  O112  1  0.51135382  0.66167887  0.57887064  1
  O  O113  1  0.13953617  0.50526861  0.58001758  1
  O  O114  1  0.32877099  0.83121023  0.25034234  1
  O  O115  1  0.53567976  0.69276681  0.25324896  1
  O  O116  1  0.15052299  0.46270797  0.25427457  1
  O  O117  1  0.32263125  0.50322852  0.76193118  1
  O  O118  1  0.18015801  0.68426443  0.76326470  1
  O  O119  1  0.52898529  0.83300656  0.75778636  1
