# generated using pymatgen
data_Dy2GeO5
_symmetry_space_group_name_H-M   'P 1'
_cell_length_a   8.18385328
_cell_length_b   8.18385328
_cell_length_c   10.42901118
_cell_angle_alpha   61.27585871
_cell_angle_beta   61.27585871
_cell_angle_gamma   49.21836509
_symmetry_Int_Tables_number   1
_chemical_formula_structural   Dy2GeO5
_chemical_formula_sum   'Dy8 Ge4 O20'
_cell_volume   448.96402663
_cell_formula_units_Z   4
loop_
 _symmetry_equiv_pos_site_id
 _symmetry_equiv_pos_as_xyz
  1  'x, y, z'
loop_
 _atom_site_type_symbol
 _atom_site_label
 _atom_site_symmetry_multiplicity
 _atom_site_fract_x
 _atom_site_fract_y
 _atom_site_fract_z
 _atom_site_occupancy
  Dy  Dy0  1  0.72274947  0.20746027  0.96404711  1
  Dy  Dy1  1  0.79253973  0.27725053  0.53595289  1
  Dy  Dy2  1  0.27725053  0.79253973  0.03595289  1
  Dy  Dy3  1  0.20746027  0.72274947  0.46404711  1
  Dy  Dy4  1  0.99320510  0.73258385  0.83670942  1
  Dy  Dy5  1  0.26741615  0.00679490  0.66329058  1
  Dy  Dy6  1  0.00679490  0.26741615  0.16329058  1
  Dy  Dy7  1  0.73258385  0.99320510  0.33670942  1
  Ge  Ge8  1  0.78036254  0.58961785  0.69094681  1
  Ge  Ge9  1  0.41038215  0.21963746  0.80905319  1
  Ge  Ge10  1  0.21963746  0.41038215  0.30905319  1
  Ge  Ge11  1  0.58961785  0.78036254  0.19094681  1
  O  O12  1  0.77688708  0.63189381  0.05174800  1
  O  O13  1  0.36810619  0.22311292  0.44825200  1
  O  O14  1  0.22311292  0.36810619  0.94825200  1
  O  O15  1  0.63189381  0.77688708  0.55174800  1
  O  O16  1  0.58109933  0.58641044  0.36506907  1
  O  O17  1  0.41358956  0.41890067  0.13493093  1
  O  O18  1  0.41890067  0.41358956  0.63493093  1
  O  O19  1  0.58641044  0.58109933  0.86506907  1
  O  O20  1  0.95866598  0.64942793  0.67481388  1
  O  O21  1  0.35057207  0.04133402  0.82518612  1
  O  O22  1  0.04133402  0.35057207  0.32518612  1
  O  O23  1  0.64942793  0.95866598  0.17481388  1
  O  O24  1  0.88409089  0.08138468  0.39816805  1
  O  O25  1  0.91861532  0.11590911  0.10183195  1
  O  O26  1  0.11590911  0.91861532  0.60183195  1
  O  O27  1  0.08138468  0.88409089  0.89816805  1
  O  O28  1  0.08476824  0.68312941  0.32164425  1
  O  O29  1  0.31687059  0.91523176  0.17835575  1
  O  O30  1  0.91523176  0.31687059  0.67835575  1
  O  O31  1  0.68312941  0.08476824  0.82164425  1
