# generated using pymatgen
data_NaNbSi2GeSO12
_symmetry_space_group_name_H-M   'P 1'
_cell_length_a   8.79515560
_cell_length_b   8.70290885
_cell_length_c   22.58867920
_cell_angle_alpha   91.91567179
_cell_angle_beta   90.00000000
_cell_angle_gamma   120.35125350
_symmetry_Int_Tables_number   1
_chemical_formula_structural   NaNbSi2GeSO12
_chemical_formula_sum   'Na6 Nb6 Si12 Ge6 S6 O72'
_cell_volume   1490.92313891
_cell_formula_units_Z   6
loop_
 _symmetry_equiv_pos_site_id
 _symmetry_equiv_pos_as_xyz
  1  'x, y, z'
loop_
 _atom_site_type_symbol
 _atom_site_label
 _atom_site_symmetry_multiplicity
 _atom_site_fract_x
 _atom_site_fract_y
 _atom_site_fract_z
 _atom_site_occupancy
  Na  Na0  1  0.00768081  0.00547496  0.49757026  1
  Na  Na1  1  0.99779416  0.00547496  0.99757026  1
  Na  Na2  1  0.67434781  0.33880796  0.83090326  1
  Na  Na3  1  0.66446116  0.33880796  0.33090326  1
  Na  Na4  1  0.34101381  0.67214196  0.16423726  1
  Na  Na5  1  0.33112716  0.67214196  0.66423726  1
  Nb  Nb6  1  0.00031963  0.99527967  0.64433858  1
  Nb  Nb7  1  0.99496005  0.99527967  0.14433858  1
  Nb  Nb8  1  0.66698663  0.32861267  0.97767158  1
  Nb  Nb9  1  0.66162705  0.32861267  0.47767158  1
  Nb  Nb10  1  0.33365263  0.66194667  0.31100558  1
  Nb  Nb11  1  0.32829305  0.66194667  0.81100558  1
  Si  Si12  1  0.29061031  0.00227018  0.24995881  1
  Si  Si13  1  0.72018880  0.70899096  0.25060868  1
  Si  Si14  1  0.98880216  0.70899096  0.75060868  1
  Si  Si15  1  0.71165986  0.00227018  0.74995881  1
  Si  Si16  1  0.95727731  0.33560318  0.58329181  1
  Si  Si17  1  0.38685580  0.04232396  0.58394168  1
  Si  Si18  1  0.65546916  0.04232396  0.08394168  1
  Si  Si19  1  0.37832686  0.33560318  0.08329181  1
  Si  Si20  1  0.62394331  0.66893718  0.91662581  1
  Si  Si21  1  0.05352180  0.37565796  0.91727568  1
  Si  Si22  1  0.32213516  0.37565796  0.41727568  1
  Si  Si23  1  0.04499286  0.66893718  0.41662581  1
  Ge  Ge24  1  0.02455911  0.98508077  0.35403797  1
  Ge  Ge25  1  0.96052167  0.98508077  0.85403797  1
  Ge  Ge26  1  0.69122611  0.31841377  0.68737097  1
  Ge  Ge27  1  0.62718867  0.31841377  0.18737097  1
  Ge  Ge28  1  0.35789211  0.65174777  0.02070497  1
  Ge  Ge29  1  0.29385467  0.65174777  0.52070497  1
  S  S30  1  0.99087923  0.28332696  0.25121311  1
  S  S31  1  0.29244773  0.28332696  0.75121311  1
  S  S32  1  0.65754623  0.61665996  0.58454611  1
  S  S33  1  0.95911473  0.61665996  0.08454611  1
  S  S34  1  0.32421223  0.94999396  0.91788011  1
  S  S35  1  0.62578073  0.94999396  0.41788011  1
  O  O36  1  0.20937603  0.04388677  0.30882035  1
  O  O37  1  0.84065993  0.81005030  0.31027366  1
  O  O38  1  0.96788149  0.18003751  0.30371927  1
  O  O39  1  0.21215602  0.18003751  0.80371927  1
  O  O40  1  0.96939037  0.81005030  0.81027366  1
  O  O41  1  0.83451074  0.04388677  0.80882035  1
  O  O42  1  0.80489071  0.97062258  0.69197802  1
  O  O43  1  0.18009783  0.20734132  0.69634732  1
  O  O44  1  0.02997566  0.83300950  0.69270616  1
  O  O45  1  0.80303384  0.83300950  0.19270616  1
  O  O46  1  0.02724348  0.20734132  0.19634732  1
  O  O47  1  0.16573187  0.97062258  0.19197802  1
  O  O48  1  0.87604303  0.37721977  0.64215335  1
  O  O49  1  0.50732693  0.14338330  0.64360666  1
  O  O50  1  0.63454849  0.51337051  0.63705227  1
  O  O51  1  0.87882302  0.51337051  0.13705227  1
  O  O52  1  0.63605737  0.14338330  0.14360666  1
  O  O53  1  0.50117774  0.37721977  0.14215335  1
  O  O54  1  0.47155771  0.30395558  0.02531102  1
  O  O55  1  0.84676483  0.54067432  0.02968032  1
  O  O56  1  0.69664266  0.16634250  0.02603916  1
  O  O57  1  0.46970084  0.16634250  0.52603916  1
  O  O58  1  0.69391048  0.54067432  0.52968032  1
  O  O59  1  0.83239887  0.30395558  0.52531102  1
  O  O60  1  0.54270903  0.71055377  0.97548735  1
  O  O61  1  0.17399293  0.47671730  0.97694066  1
  O  O62  1  0.30121449  0.84670451  0.97038627  1
  O  O63  1  0.54548902  0.84670451  0.47038627  1
  O  O64  1  0.30272337  0.47671730  0.47694066  1
  O  O65  1  0.16784374  0.71055377  0.47548735  1
  O  O66  1  0.13822371  0.63728958  0.35864502  1
  O  O67  1  0.51343083  0.87400832  0.36301432  1
  O  O68  1  0.36330866  0.49967650  0.35937316  1
  O  O69  1  0.13636684  0.49967650  0.85937316  1
  O  O70  1  0.36057648  0.87400832  0.86301432  1
  O  O71  1  0.49906487  0.63728958  0.85864502  1
  O  O72  1  0.02097420  0.84203095  0.41083649  1
  O  O73  1  0.80195461  0.97637768  0.41004299  1
  O  O74  1  0.14269609  0.17989085  0.40684216  1
  O  O75  1  0.03719477  0.17989085  0.90684216  1
  O  O76  1  0.17442308  0.97637768  0.91004299  1
  O  O77  1  0.82105675  0.84203095  0.91083649  1
  O  O78  1  0.97599398  0.15966621  0.59093241  1
  O  O79  1  0.19058259  0.02017470  0.59152959  1
  O  O80  1  0.82418515  0.79648811  0.58824415  1
  O  O81  1  0.97230296  0.79648811  0.08824415  1
  O  O82  1  0.82959211  0.02017470  0.09152959  1
  O  O83  1  0.18367222  0.15966621  0.09093241  1
  O  O84  1  0.68764120  0.17536395  0.74416949  1
  O  O85  1  0.46862161  0.30971068  0.74337599  1
  O  O86  1  0.80936309  0.51322385  0.74017516  1
  O  O87  1  0.70386177  0.51322385  0.24017516  1
  O  O88  1  0.84109008  0.30971068  0.24337599  1
  O  O89  1  0.48772375  0.17536395  0.24416949  1
  O  O90  1  0.64266098  0.49299921  0.92426541  1
  O  O91  1  0.85724959  0.35350770  0.92486259  1
  O  O92  1  0.49085215  0.12982111  0.92157715  1
  O  O93  1  0.63896996  0.12982111  0.42157715  1
  O  O94  1  0.49625911  0.35350770  0.42486259  1
  O  O95  1  0.85033922  0.49299921  0.42426541  1
  O  O96  1  0.35430720  0.50869795  0.07750349  1
  O  O97  1  0.13528761  0.64304468  0.07670999  1
  O  O98  1  0.47602909  0.84655785  0.07350916  1
  O  O99  1  0.37052777  0.84655785  0.57350916  1
  O  O100  1  0.50775608  0.64304468  0.57670999  1
  O  O101  1  0.15438975  0.50869795  0.57750349  1
  O  O102  1  0.30932698  0.82633321  0.25759941  1
  O  O103  1  0.52391559  0.68684170  0.25819659  1
  O  O104  1  0.15751815  0.46315511  0.25491115  1
  O  O105  1  0.30563596  0.46315511  0.75491115  1
  O  O106  1  0.16292511  0.68684170  0.75819659  1
  O  O107  1  0.51700522  0.82633321  0.75759941  1
