# generated using pymatgen
data_Ba(PdS2)2
_symmetry_space_group_name_H-M   'P 1'
_cell_length_a   6.76872747
_cell_length_b   6.82618445
_cell_length_c   7.29550679
_cell_angle_alpha   90.00000000
_cell_angle_beta   110.20556559
_cell_angle_gamma   90.00000000
_symmetry_Int_Tables_number   1
_chemical_formula_structural   Ba(PdS2)2
_chemical_formula_sum   'Ba2 Pd4 S8'
_cell_volume   316.34140400
_cell_formula_units_Z   2
loop_
 _symmetry_equiv_pos_site_id
 _symmetry_equiv_pos_as_xyz
  1  'x, y, z'
loop_
 _atom_site_type_symbol
 _atom_site_label
 _atom_site_symmetry_multiplicity
 _atom_site_fract_x
 _atom_site_fract_y
 _atom_site_fract_z
 _atom_site_occupancy
  Ba  Ba0  1  0.71680502  0.75000000  0.50648578  1
  Ba  Ba1  1  0.28319498  0.25000000  0.49351422  1
  Pd  Pd2  1  -0.00000000  0.00000000  -0.00000000  1
  Pd  Pd3  1  -0.00000000  0.50000000  -0.00000000  1
  Pd  Pd4  1  0.48320435  0.75000000  0.98935886  1
  Pd  Pd5  1  0.51679565  0.25000000  0.01064114  1
  S  S6  1  0.20484731  0.75000000  0.48809019  1
  S  S7  1  0.79515269  0.25000000  0.51190981  1
  S  S8  1  0.02517248  0.25000000  0.78839900  1
  S  S9  1  0.97482752  0.75000000  0.21160100  1
  S  S10  1  0.63281532  0.99553236  0.85740040  1
  S  S11  1  0.36718468  0.49553236  0.14259960  1
  S  S12  1  0.63281532  0.50446764  0.85740040  1
  S  S13  1  0.36718468  0.00446764  0.14259960  1
