# generated using pymatgen
data_Na6Hf3MgSi2(PO6)4
_symmetry_space_group_name_H-M   'P 1'
_cell_length_a   9.06891616
_cell_length_b   9.06051642
_cell_length_c   22.45871924
_cell_angle_alpha   89.82940865
_cell_angle_beta   90.09731520
_cell_angle_gamma   119.86295731
_symmetry_Int_Tables_number   1
_chemical_formula_structural   Na6Hf3MgSi2(PO6)4
_chemical_formula_sum   'Na18 Hf9 Mg3 Si6 P12 O72'
_cell_volume   1600.36886868
_cell_formula_units_Z   3
loop_
 _symmetry_equiv_pos_site_id
 _symmetry_equiv_pos_as_xyz
  1  'x, y, z'
loop_
 _atom_site_type_symbol
 _atom_site_label
 _atom_site_symmetry_multiplicity
 _atom_site_fract_x
 _atom_site_fract_y
 _atom_site_fract_z
 _atom_site_occupancy
  Na  Na0  1  0.00005922  0.99249756  0.49801418  1
  Na  Na1  1  0.99905250  0.99514970  0.99791073  1
  Na  Na2  1  0.64693244  0.29827546  0.82994544  1
  Na  Na3  1  0.64923900  0.33025396  0.32152544  1
  Na  Na4  1  0.32590263  0.66527343  0.16233896  1
  Na  Na5  1  0.32334360  0.66315654  0.66504848  1
  Na  Na6  1  0.64491225  0.01498720  0.24248115  1
  Na  Na7  1  0.98483162  0.62114862  0.23771098  1
  Na  Na8  1  0.63304116  0.61626343  0.73991975  1
  Na  Na9  1  0.98946537  0.36618741  0.74492775  1
  Na  Na10  1  0.66622977  0.97305316  0.58753481  1
  Na  Na11  1  0.66590185  0.68327371  0.07946238  1
  Na  Na12  1  0.02188481  0.33962448  0.08637803  1
  Na  Na13  1  0.97121808  0.66810032  0.91972481  1
  Na  Na14  1  0.33620304  0.30721463  0.91753916  1
  Na  Na15  1  0.96238655  0.28121091  0.40842213  1
  Na  Na16  1  0.32762008  0.02957597  0.40862014  1
  Na  Na17  1  0.71489227  0.68763046  0.41462826  1
  Hf  Hf18  1  0.99617502  0.00059321  0.85414841  1
  Hf  Hf19  1  0.00632032  0.99653895  0.64446062  1
  Hf  Hf20  1  0.00836512  0.00202206  0.14916716  1
  Hf  Hf21  1  0.66793324  0.33137555  0.98068195  1
  Hf  Hf22  1  0.66811069  0.33850031  0.48401307  1
  Hf  Hf23  1  0.33272681  0.67411902  0.01805009  1
  Hf  Hf24  1  0.33647744  0.66486419  0.52196891  1
  Hf  Hf25  1  0.33743323  0.66720340  0.31251892  1
  Hf  Hf26  1  0.33708506  0.67472005  0.81403603  1
  Mg  Mg27  1  0.99943213  0.99957444  0.35019325  1
  Mg  Mg28  1  0.65713104  0.32988749  0.68313768  1
  Mg  Mg29  1  0.66188438  0.33328598  0.18300616  1
  Si  Si30  1  0.66756863  0.63052282  0.58743235  1
  Si  Si31  1  0.96307262  0.62818512  0.08726226  1
  Si  Si32  1  0.62679727  0.66706726  0.91737767  1
  Si  Si33  1  0.04112719  0.37511424  0.91634532  1
  Si  Si34  1  0.33619249  0.96389962  0.91496621  1
  Si  Si35  1  0.63057718  0.96562655  0.41656567  1
  P  P36  1  0.29657602  0.00129055  0.25549941  1
  P  P37  1  0.70636301  0.70483967  0.25248617  1
  P  P38  1  0.99897426  0.29598002  0.25306392  1
  P  P39  1  0.29435807  0.29328951  0.75076729  1
  P  P40  1  0.00120754  0.70385740  0.75051036  1
  P  P41  1  0.70648080  0.00002602  0.74630842  1
  P  P42  1  0.96047130  0.33474109  0.58717123  1
  P  P43  1  0.37659608  0.04254203  0.58273052  1
  P  P44  1  0.66633296  0.03855628  0.08945152  1
  P  P45  1  0.37384430  0.33434444  0.08427114  1
  P  P46  1  0.33494312  0.37416852  0.41711674  1
  P  P47  1  0.04124206  0.66369729  0.41574550  1
  O  O48  1  0.21683709  0.01363085  0.31356430  1
  O  O49  1  0.80814647  0.78849079  0.30908298  1
  O  O50  1  0.98699630  0.19375576  0.30899333  1
  O  O51  1  0.20333713  0.19727583  0.80878728  1
  O  O52  1  0.99255980  0.79708460  0.80711425  1
  O  O53  1  0.81971303  0.01308947  0.80045718  1
  O  O54  1  0.79595171  0.98187858  0.68975517  1
  O  O55  1  0.17774702  0.19477007  0.69743339  1
  O  O56  1  0.01192025  0.81441525  0.69579326  1
  O  O57  1  0.79923297  0.82267636  0.19733439  1
  O  O58  1  0.01402901  0.20542816  0.19600477  1
  O  O59  1  0.17671910  0.98151119  0.20208431  1
  O  O60  1  0.87960715  0.35298020  0.64374593  1
  O  O61  1  0.49659254  0.12278995  0.63480641  1
  O  O62  1  0.64758154  0.52562156  0.64671436  1
  O  O63  1  0.87933602  0.51346662  0.14560310  1
  O  O64  1  0.64458547  0.11181403  0.14727247  1
  O  O65  1  0.48757745  0.35654624  0.13648285  1
  O  O66  1  0.44723640  0.31055193  0.02484972  1
  O  O67  1  0.84202042  0.53686335  0.02837403  1
  O  O68  1  0.68621645  0.15465790  0.03568057  1
  O  O69  1  0.45754368  0.14451934  0.52390298  1
  O  O70  1  0.68312587  0.53672263  0.52611373  1
  O  O71  1  0.84306128  0.30769895  0.53147661  1
  O  O72  1  0.54033045  0.69126244  0.97732652  1
  O  O73  1  0.16118912  0.46486700  0.97474334  1
  O  O74  1  0.29823963  0.83845946  0.97206694  1
  O  O75  1  0.52923352  0.84433966  0.47380362  1
  O  O76  1  0.31040616  0.46224211  0.47172868  1
  O  O77  1  0.15422254  0.68055908  0.46917361  1
  O  O78  1  0.12215775  0.63433694  0.35890501  1
  O  O79  1  0.50715735  0.87030471  0.35797917  1
  O  O80  1  0.35899982  0.48797316  0.36162905  1
  O  O81  1  0.13120215  0.49546517  0.85766989  1
  O  O82  1  0.36307087  0.87397411  0.85658654  1
  O  O83  1  0.50702993  0.63848952  0.85883630  1
  O  O84  1  0.02260508  0.82255935  0.41235069  1
  O  O85  1  0.81792033  0.98389938  0.41347543  1
  O  O86  1  0.18126005  0.19479733  0.41229867  1
  O  O87  1  0.02671667  0.18911514  0.91083489  1
  O  O88  1  0.16464976  0.98065839  0.90977045  1
  O  O89  1  0.82010699  0.82736016  0.91098977  1
  O  O90  1  0.97773279  0.17156162  0.58788326  1
  O  O91  1  0.19971099  0.02819893  0.58806218  1
  O  O92  1  0.83552394  0.82680072  0.58593434  1
  O  O93  1  0.97629572  0.81767089  0.09125734  1
  O  O94  1  0.83593649  0.02916670  0.09041576  1
  O  O95  1  0.18744870  0.18086987  0.09068680  1
  O  O96  1  0.69116650  0.16007058  0.74506533  1
  O  O97  1  0.47261326  0.31589172  0.74849867  1
  O  O98  1  0.84185067  0.52600054  0.74934516  1
  O  O99  1  0.68410162  0.52735283  0.24534018  1
  O  O100  1  0.83884485  0.31477771  0.24983754  1
  O  O101  1  0.47818545  0.14824533  0.24740953  1
  O  O102  1  0.64237007  0.49486932  0.92280420  1
  O  O103  1  0.85587911  0.36037798  0.92399829  1
  O  O104  1  0.49659751  0.15388645  0.92269231  1
  O  O105  1  0.64507316  0.15435916  0.42046920  1
  O  O106  1  0.50269802  0.36671987  0.42135179  1
  O  O107  1  0.86221636  0.50130160  0.42195412  1
  O  O108  1  0.35432623  0.49636937  0.08041526  1
  O  O109  1  0.15204251  0.64682585  0.07993063  1
  O  O110  1  0.51917882  0.85294638  0.08106756  1
  O  O111  1  0.34755019  0.85912052  0.57518399  1
  O  O112  1  0.50297029  0.66368522  0.58108548  1
  O  O113  1  0.13791854  0.49154811  0.57727246  1
  O  O114  1  0.30061802  0.82775906  0.25347920  1
  O  O115  1  0.52920869  0.69849466  0.25370400  1
  O  O116  1  0.15897869  0.47947626  0.25353231  1
  O  O117  1  0.30411851  0.47170267  0.75056616  1
  O  O118  1  0.16241715  0.68407349  0.74974548  1
  O  O119  1  0.53340518  0.83039780  0.75016301  1
