# generated using pymatgen
data_Na2Mg4Zr4SiS11O48
_symmetry_space_group_name_H-M   'P 1'
_cell_length_a   17.69437693
_cell_length_b   8.85536640
_cell_length_c   23.02300427
_cell_angle_alpha   89.92490980
_cell_angle_beta   90.00408159
_cell_angle_gamma   119.98129176
_symmetry_Int_Tables_number   1
_chemical_formula_structural   Na2Mg4Zr4SiS11O48
_chemical_formula_sum   'Na6 Mg12 Zr12 Si3 S33 O144'
_cell_volume   3124.75380050
_cell_formula_units_Z   3
loop_
 _symmetry_equiv_pos_site_id
 _symmetry_equiv_pos_as_xyz
  1  'x, y, z'
loop_
 _atom_site_type_symbol
 _atom_site_label
 _atom_site_symmetry_multiplicity
 _atom_site_fract_x
 _atom_site_fract_y
 _atom_site_fract_z
 _atom_site_occupancy
  Na  Na0  1  0.99638082  0.98587639  0.49135533  1
  Na  Na1  1  0.49856617  0.00233512  0.99983678  1
  Na  Na2  1  0.33210280  0.32686069  0.83686756  1
  Na  Na3  1  0.84075066  0.34192154  0.83206784  1
  Na  Na4  1  0.33716641  0.33275569  0.33011492  1
  Na  Na5  1  0.84008225  0.34155958  0.34079097  1
  Mg  Mg6  1  0.99788014  0.99217414  0.35555053  1
  Mg  Mg7  1  0.00400075  0.00320853  0.85416918  1
  Mg  Mg8  1  0.33152880  0.33187809  0.68387705  1
  Mg  Mg9  1  0.83548370  0.33757755  0.68143274  1
  Mg  Mg10  1  0.33514165  0.33112709  0.18623071  1
  Mg  Mg11  1  0.83483335  0.33481701  0.18516272  1
  Mg  Mg12  1  0.33321300  0.32849182  0.97929068  1
  Mg  Mg13  1  0.83805291  0.33767026  0.98166263  1
  Mg  Mg14  1  0.33593402  0.33767793  0.48297406  1
  Mg  Mg15  1  0.83583382  0.33714545  0.47997501  1
  Mg  Mg16  1  0.66917731  0.67176975  0.52248630  1
  Mg  Mg17  1  0.16193417  0.66272446  0.81101883  1
  Zr  Zr18  1  0.49997595  0.00867478  0.35600462  1
  Zr  Zr19  1  0.49670160  0.00609927  0.85428133  1
  Zr  Zr20  1  -0.00007208  0.99581213  0.64891060  1
  Zr  Zr21  1  0.50042884  0.00194197  0.63905324  1
  Zr  Zr22  1  0.00046460  0.00125024  0.14449777  1
  Zr  Zr23  1  0.50021691  0.00896738  0.14929275  1
  Zr  Zr24  1  0.16295569  0.66447818  0.01914260  1
  Zr  Zr25  1  0.66453594  0.65565422  0.02206606  1
  Zr  Zr26  1  0.16010372  0.66585660  0.52081906  1
  Zr  Zr27  1  0.15816357  0.66128010  0.31335894  1
  Zr  Zr28  1  0.66631396  0.66266780  0.31185104  1
  Zr  Zr29  1  0.66432272  0.65964883  0.81197782  1
  Si  Si30  1  0.49428392  0.29538749  0.25075032  1
  Si  Si31  1  0.51495735  0.37536513  0.91731261  1
  Si  Si32  1  0.01140432  0.66612749  0.41731257  1
  S  S33  1  0.14562991  0.00760818  0.25105874  1
  S  S34  1  0.64913552  0.00746236  0.24998840  1
  S  S35  1  0.35380440  0.70412894  0.25061941  1
  S  S36  1  0.85772925  0.70713804  0.25075616  1
  S  S37  1  0.99592495  0.28333091  0.25112908  1
  S  S38  1  0.14768020  0.29292726  0.75255041  1
  S  S39  1  0.64825908  0.28767780  0.74862603  1
  S  S40  1  0.99811242  0.70400779  0.75323075  1
  S  S41  1  0.49716589  0.70596431  0.74902064  1
  S  S42  1  0.35144242  -0.00021678  0.74843232  1
  S  S43  1  0.85668422  0.00856633  0.75231039  1
  S  S44  1  0.47778152  0.34332840  0.58278962  1
  S  S45  1  0.97488979  0.32854751  0.58384422  1
  S  S46  1  0.19173117  0.05107714  0.58329567  1
  S  S47  1  0.69403085  0.04607053  0.58272494  1
  S  S48  1  0.33158524  0.61399283  0.58320919  1
  S  S49  1  0.83072497  0.61832805  0.58298462  1
  S  S50  1  0.47486378  0.61999508  0.08246043  1
  S  S51  1  0.97450492  0.61657311  0.08371867  1
  S  S52  1  0.33248839  0.04651330  0.08220296  1
  S  S53  1  0.83281214  0.05063108  0.08354623  1
  S  S54  1  0.19319646  0.33557776  0.08318729  1
  S  S55  1  0.69244014  0.32988219  0.08291743  1
  S  S56  1  0.30839880  0.65887550  0.91527986  1
  S  S57  1  0.81524272  0.66740838  0.91651237  1
  S  S58  1  0.01920228  0.37305242  0.91390811  1
  S  S59  1  0.16642160  0.95827898  0.91371543  1
  S  S60  1  0.66993158  0.96288294  0.91701413  1
  S  S61  1  0.31063587  0.96121154  0.41747949  1
  S  S62  1  0.81188925  0.95871194  0.41858384  1
  S  S63  1  0.16859996  0.37356480  0.41670107  1
  S  S64  1  0.66938637  0.38038498  0.41967816  1
  S  S65  1  0.52036842  0.66097485  0.41864347  1
  O  O66  1  0.10327696  0.02968100  0.30181052  1
  O  O67  1  0.60566255  0.02968305  0.30178256  1
  O  O68  1  0.41040471  0.78811815  0.30220216  1
  O  O69  1  0.91159992  0.79043669  0.30144586  1
  O  O70  1  0.48577402  0.16733464  0.30575132  1
  O  O71  1  0.98523001  0.17799627  0.30224160  1
  O  O72  1  0.10524457  0.17882990  0.80266852  1
  O  O73  1  0.60509799  0.17924797  0.80164699  1
  O  O74  1  0.48606641  0.79042826  0.80206707  1
  O  O75  1  0.98353815  0.78961765  0.80298030  1
  O  O76  1  0.41042539  0.02913570  0.80145048  1
  O  O77  1  0.91079902  0.03131708  0.80300027  1
  O  O78  1  0.39705459  0.97583941  0.69788028  1
  O  O79  1  0.89605803  0.97797095  0.69874401  1
  O  O80  1  0.09148365  0.20507991  0.69866563  1
  O  O81  1  0.59175689  0.20516785  0.69795044  1
  O  O82  1  0.01067849  0.81534026  0.69900543  1
  O  O83  1  0.51053311  0.81760261  0.69788274  1
  O  O84  1  0.39709652  0.81539654  0.19815262  1
  O  O85  1  0.89790506  0.81695791  0.19698558  1
  O  O86  1  0.00944713  0.20144160  0.19754539  1
  O  O87  1  0.51305934  0.20122386  0.19436101  1
  O  O88  1  0.08977892  0.97499291  0.19748655  1
  O  O89  1  0.59320471  0.97495946  0.19746151  1
  O  O90  1  0.43724264  0.36392983  0.63560721  1
  O  O91  1  0.93821142  0.35650657  0.63647296  1
  O  O92  1  0.24167520  0.12810602  0.63593515  1
  O  O93  1  0.74436663  0.12535092  0.63586534  1
  O  O94  1  0.31938561  0.51236016  0.63569945  1
  O  O95  1  0.82031839  0.51824221  0.63639200  1
  O  O96  1  0.43797455  0.51881611  0.13518924  1
  O  O97  1  0.93708532  0.51262277  0.13585632  1
  O  O98  1  0.31961482  0.11995565  0.13505474  1
  O  O99  1  0.81917601  0.12681757  0.13582116  1
  O  O100  1  0.24452133  0.36378219  0.13563919  1
  O  O101  1  0.74155885  0.35108499  0.13580439  1
  O  O102  1  0.22963303  0.30382620  0.03108736  1
  O  O103  1  0.73104251  0.30656177  0.03015477  1
  O  O104  1  0.42304391  0.54312758  0.03031738  1
  O  O105  1  0.92277820  0.54385714  0.03141012  1
  O  O106  1  0.34823605  0.15199566  0.03029553  1
  O  O107  1  0.84869957  0.15617871  0.03140934  1
  O  O108  1  0.22909376  0.15426922  0.53075224  1
  O  O109  1  0.72959518  0.15681712  0.53147150  1
  O  O110  1  0.34827225  0.54120910  0.53132236  1
  O  O111  1  0.84991933  0.54535980  0.53180575  1
  O  O112  1  0.42186226  0.30227347  0.53143922  1
  O  O113  1  0.92337133  0.29994178  0.53171349  1
  O  O114  1  0.27101462  0.69363778  0.96884161  1
  O  O115  1  0.77206473  0.69378497  0.96880048  1
  O  O116  1  0.07470869  0.46034627  0.96836671  1
  O  O117  1  0.58077715  0.46788949  0.97300840  1
  O  O118  1  0.15489529  0.84609659  0.96822895  1
  O  O119  1  0.65568846  0.85334107  0.96895069  1
  O  O120  1  0.27103564  0.85172205  0.46945766  1
  O  O121  1  0.77040670  0.84659419  0.46917656  1
  O  O122  1  0.15771408  0.46163547  0.46897152  1
  O  O123  1  0.65308269  0.45911299  0.46959344  1
  O  O124  1  0.07932985  0.68909090  0.47238271  1
  O  O125  1  0.57450601  0.68945646  0.46942999  1
  O  O126  1  0.06684284  0.64185036  0.36106123  1
  O  O127  1  0.56217153  0.63674481  0.36480186  1
  O  O128  1  0.25813889  0.87693153  0.36453141  1
  O  O129  1  0.75771221  0.87231365  0.36446999  1
  O  O130  1  0.18336726  0.48748904  0.36410236  1
  O  O131  1  0.68093313  0.48536458  0.36523887  1
  O  O132  1  0.06168480  0.48800545  0.86427782  1
  O  O133  1  0.56871283  0.49479197  0.86035220  1
  O  O134  1  0.18191903  0.87368355  0.86408941  1
  O  O135  1  0.68185279  0.88058531  0.86414261  1
  O  O136  1  0.25792659  0.64360817  0.86375179  1
  O  O137  1  0.75683023  0.63960222  0.86469561  1
  O  O138  1  0.01290452  0.84718620  0.41293176  1
  O  O139  1  0.51161313  0.81820235  0.40740842  1
  O  O140  1  0.39742839  0.97329833  0.41061152  1
  O  O141  1  0.89950254  0.98053395  0.40980495  1
  O  O142  1  0.08880953  0.20622078  0.40942036  1
  O  O143  1  0.58958489  0.20297324  0.40949458  1
  O  O144  1  0.01224338  0.20274261  0.90855885  1
  O  O145  1  0.51220542  0.18511944  0.91040538  1
  O  O146  1  0.08692986  0.96829178  0.90868046  1
  O  O147  1  0.58865196  0.97416102  0.90980802  1
  O  O148  1  0.39921316  0.82049985  0.91063774  1
  O  O149  1  0.89956944  0.82229463  0.90757632  1
  O  O150  1  0.48706244  0.17995631  0.59266594  1
  O  O151  1  0.98786456  0.17269726  0.59137468  1
  O  O152  1  0.10046238  0.02445004  0.58994387  1
  O  O153  1  0.60239000  0.02613351  0.59327682  1
  O  O154  1  0.41076831  0.79447384  0.59184304  1
  O  O155  1  0.91253371  0.80213828  0.59199620  1
  O  O156  1  0.48849819  0.80207245  0.08878348  1
  O  O157  1  0.98734278  0.79623254  0.09230008  1
  O  O158  1  0.41088041  0.01911953  0.08855252  1
  O  O159  1  0.91086877  0.02703309  0.09265159  1
  O  O160  1  0.10259584  0.18090272  0.09265387  1
  O  O161  1  0.60125835  0.17268736  0.08753194  1
  O  O162  1  0.34623365  0.15903355  0.74252943  1
  O  O163  1  0.84534699  0.16019923  0.74330240  1
  O  O164  1  0.23439449  0.30946936  0.74273323  1
  O  O165  1  0.73448910  0.30630592  0.74296440  1
  O  O166  1  0.42127963  0.53194461  0.74264348  1
  O  O167  1  0.91985283  0.53078137  0.74335085  1
  O  O168  1  0.34384151  0.53190904  0.24267951  1
  O  O169  1  0.84584730  0.53238924  0.24154016  1
  O  O170  1  0.40958840  0.31137192  0.24558408  1
  O  O171  1  0.92057370  0.30780558  0.24231688  1
  O  O172  1  0.23148870  0.16049255  0.24144077  1
  O  O173  1  0.73474009  0.16229945  0.24231621  1
  O  O174  1  0.31874511  0.50742317  0.92411719  1
  O  O175  1  0.82001420  0.50719204  0.92353225  1
  O  O176  1  0.42124007  0.35457187  0.92103417  1
  O  O177  1  0.93257255  0.35763519  0.92380714  1
  O  O178  1  0.24326520  0.13105828  0.92413986  1
  O  O179  1  0.74581273  0.13722600  0.92369161  1
  O  O180  1  0.32137432  0.13511502  0.42375507  1
  O  O181  1  0.81659272  0.12890023  0.42335257  1
  O  O182  1  0.24675200  0.35672937  0.42348930  1
  O  O183  1  0.74462036  0.35608203  0.42400369  1
  O  O184  1  0.43263571  0.50638562  0.42326124  1
  O  O185  1  0.92152614  0.48716510  0.42098970  1
  O  O186  1  0.17929910  0.48835487  0.07373257  1
  O  O187  1  0.68116287  0.48670275  0.07733876  1
  O  O188  1  0.06438949  0.64180503  0.07531474  1
  O  O189  1  0.56552863  0.64583831  0.07463649  1
  O  O190  1  0.25561199  0.86695481  0.07362034  1
  O  O191  1  0.75673818  0.87193685  0.07470797  1
  O  O192  1  0.18135277  0.87338174  0.57670177  1
  O  O193  1  0.67858827  0.86984705  0.57474420  1
  O  O194  1  0.25622011  0.64110307  0.57482193  1
  O  O195  1  0.75643339  0.64467072  0.57490883  1
  O  O196  1  0.06529051  0.48234621  0.57654454  1
  O  O197  1  0.56528504  0.48958626  0.57421862  1
  O  O198  1  0.15495149  0.84872213  0.25658575  1
  O  O199  1  0.65684807  0.85049468  0.25777898  1
  O  O200  1  0.26924757  0.69519801  0.25819409  1
  O  O201  1  0.77067647  0.69404213  0.25670472  1
  O  O202  1  0.07763761  0.45788458  0.25526030  1
  O  O203  1  0.58463386  0.47904108  0.26075934  1
  O  O204  1  0.15452593  0.46347578  0.75850353  1
  O  O205  1  0.65581947  0.46155459  0.75646262  1
  O  O206  1  0.07708745  0.69207205  0.75829017  1
  O  O207  1  0.57829993  0.69575504  0.75650634  1
  O  O208  1  0.26819854  0.84430849  0.75850927  1
  O  O209  1  0.76881127  0.84763673  0.75897496  1
