# generated using pymatgen
data_Rb2AgI3
_symmetry_space_group_name_H-M   'P 1'
_cell_length_a   4.93261718
_cell_length_b   10.37241083
_cell_length_c   20.10093202
_cell_angle_alpha   90.00000000
_cell_angle_beta   90.00000000
_cell_angle_gamma   90.00000000
_symmetry_Int_Tables_number   1
_chemical_formula_structural   Rb2AgI3
_chemical_formula_sum   'Rb8 Ag4 I12'
_cell_volume   1028.42663541
_cell_formula_units_Z   4
loop_
 _symmetry_equiv_pos_site_id
 _symmetry_equiv_pos_as_xyz
  1  'x, y, z'
loop_
 _atom_site_type_symbol
 _atom_site_label
 _atom_site_symmetry_multiplicity
 _atom_site_fract_x
 _atom_site_fract_y
 _atom_site_fract_z
 _atom_site_occupancy
  Rb  Rb0  1  0.75000000  0.91965973  0.71194694  1
  Rb  Rb1  1  0.25000000  0.08034027  0.28805306  1
  Rb  Rb2  1  0.75000000  0.41965973  0.78805306  1
  Rb  Rb3  1  0.25000000  0.58034027  0.21194694  1
  Rb  Rb4  1  0.75000000  0.24423781  0.04218943  1
  Rb  Rb5  1  0.25000000  0.75576219  0.95781057  1
  Rb  Rb6  1  0.75000000  0.74423781  0.45781057  1
  Rb  Rb7  1  0.25000000  0.25576219  0.54218943  1
  Ag  Ag8  1  0.75000000  0.36254731  0.36375965  1
  Ag  Ag9  1  0.25000000  0.63745269  0.63624035  1
  Ag  Ag10  1  0.75000000  0.86254731  0.13624035  1
  Ag  Ag11  1  0.25000000  0.13745269  0.86375965  1
  I  I12  1  0.75000000  0.31435506  0.22342464  1
  I  I13  1  0.25000000  0.68564494  0.77657536  1
  I  I14  1  0.75000000  0.81435506  0.27657536  1
  I  I15  1  0.25000000  0.18564494  0.72342464  1
  I  I16  1  0.75000000  0.12008045  0.42930393  1
  I  I17  1  0.25000000  0.87991955  0.57069607  1
  I  I18  1  0.75000000  0.62008045  0.07069607  1
  I  I19  1  0.25000000  0.37991955  0.92930393  1
  I  I20  1  0.75000000  0.00502891  0.89734520  1
  I  I21  1  0.25000000  0.99497109  0.10265480  1
  I  I22  1  0.75000000  0.50502891  0.60265480  1
  I  I23  1  0.25000000  0.49497109  0.39734520  1
