# generated using pymatgen
data_MgCr2O4
_symmetry_space_group_name_H-M   'P 1'
_cell_length_a   3.03286543
_cell_length_b   9.79598958
_cell_length_c   3.02638597
_cell_angle_alpha   90.26867878
_cell_angle_beta   119.91435626
_cell_angle_gamma   99.03824632
_symmetry_Int_Tables_number   1
_chemical_formula_structural   MgCr2O4
_chemical_formula_sum   'Mg1 Cr2 O4'
_cell_volume   76.60403803
_cell_formula_units_Z   1
loop_
 _symmetry_equiv_pos_site_id
 _symmetry_equiv_pos_as_xyz
  1  'x, y, z'
loop_
 _atom_site_type_symbol
 _atom_site_label
 _atom_site_symmetry_multiplicity
 _atom_site_fract_x
 _atom_site_fract_y
 _atom_site_fract_z
 _atom_site_occupancy
  Mg  Mg0  1  0.00306230  0.99980688  0.99769344  1
  Cr  Cr1  1  0.48911144  0.73555016  0.23580023  1
  Cr  Cr2  1  0.51827909  0.26402985  0.75908027  1
  O  O3  1  0.75473976  0.12467215  0.37563674  1
  O  O4  1  0.76411960  0.64849342  0.87242734  1
  O  O5  1  0.24316192  0.35112929  0.12266494  1
  O  O6  1  0.25126488  0.87490925  0.62020704  1
