# generated using pymatgen
data_Na8Fe2O7
_symmetry_space_group_name_H-M   'P 1'
_cell_length_a   10.87840015
_cell_length_b   8.63622169
_cell_length_c   9.98775579
_cell_angle_alpha   72.32867803
_cell_angle_beta   90.00000000
_cell_angle_gamma   90.00000000
_symmetry_Int_Tables_number   1
_chemical_formula_structural   Na8Fe2O7
_chemical_formula_sum   'Na32 Fe8 O28'
_cell_volume   894.05584380
_cell_formula_units_Z   4
loop_
 _symmetry_equiv_pos_site_id
 _symmetry_equiv_pos_as_xyz
  1  'x, y, z'
loop_
 _atom_site_type_symbol
 _atom_site_label
 _atom_site_symmetry_multiplicity
 _atom_site_fract_x
 _atom_site_fract_y
 _atom_site_fract_z
 _atom_site_occupancy
  Na  Na0  1  0.74992166  0.28665675  0.42992180  1
  Na  Na1  1  0.02502756  0.88351574  0.41933961  1
  Na  Na2  1  0.47497244  0.88351574  0.91933961  1
  Na  Na3  1  0.97497244  0.11648426  0.58066039  1
  Na  Na4  1  0.75879114  0.89530810  0.03261499  1
  Na  Na5  1  0.25879114  0.10469190  0.46738501  1
  Na  Na6  1  0.24120886  0.10469190  0.96738501  1
  Na  Na7  1  0.74120886  0.89530810  0.53261499  1
  Na  Na8  1  0.55164558  0.74218340  0.21033982  1
  Na  Na9  1  0.05164558  0.25781660  0.28966018  1
  Na  Na10  1  0.44835442  0.25781660  0.78966018  1
  Na  Na11  1  0.94835442  0.74218340  0.71033982  1
  Na  Na12  1  0.50458710  0.66121355  0.51445805  1
  Na  Na13  1  0.00458710  0.33878645  0.98554195  1
  Na  Na14  1  0.49541290  0.33878645  0.48554195  1
  Na  Na15  1  0.99541290  0.66121355  0.01445805  1
  Na  Na16  1  0.73247750  0.50169443  0.62758118  1
  Na  Na17  1  0.23247750  0.49830557  0.87241882  1
  Na  Na18  1  0.26752250  0.49830557  0.37241882  1
  Na  Na19  1  0.76752250  0.50169443  0.12758118  1
  Na  Na20  1  0.03661004  0.91248605  0.14415832  1
  Na  Na21  1  0.75007834  0.28665675  0.92992180  1
  Na  Na22  1  0.52502756  0.11648426  0.08066039  1
  Na  Na23  1  0.24992166  0.71334325  0.07007820  1
  Na  Na24  1  0.97459498  0.43415913  0.64411969  1
  Na  Na25  1  0.47459498  0.56584087  0.85588031  1
  Na  Na26  1  0.02540502  0.56584087  0.35588031  1
  Na  Na27  1  0.52540502  0.43415913  0.14411969  1
  Na  Na28  1  0.46338996  0.91248605  0.64415832  1
  Na  Na29  1  0.96338996  0.08751395  0.85584168  1
  Na  Na30  1  0.53661004  0.08751395  0.35584168  1
  Na  Na31  1  0.25007834  0.71334325  0.57007820  1
  Fe  Fe32  1  0.71797662  0.69333445  0.84620047  1
  Fe  Fe33  1  0.21797662  0.30666555  0.65379953  1
  Fe  Fe34  1  0.28202338  0.30666555  0.15379953  1
  Fe  Fe35  1  0.78202338  0.69333445  0.34620047  1
  Fe  Fe36  1  0.70450720  0.09285825  0.72648344  1
  Fe  Fe37  1  0.20450720  0.90714175  0.77351656  1
  Fe  Fe38  1  0.29549280  0.90714175  0.27351656  1
  Fe  Fe39  1  0.79549280  0.09285825  0.22648344  1
  O  O40  1  0.11228395  0.89771374  0.61813018  1
  O  O41  1  0.61228395  0.10228626  0.88186982  1
  O  O42  1  0.88771605  0.10228626  0.38186982  1
  O  O43  1  0.38771605  0.89771374  0.11813018  1
  O  O44  1  0.11507661  0.32668044  0.49625895  1
  O  O45  1  0.61507661  0.67331956  0.00374105  1
  O  O46  1  0.88492339  0.67331956  0.50374105  1
  O  O47  1  0.38492339  0.32668044  0.99625895  1
  O  O48  1  0.61062244  0.10594074  0.56612330  1
  O  O49  1  0.11062244  0.89405926  0.93387670  1
  O  O50  1  0.38937756  0.89405926  0.43387670  1
  O  O51  1  0.88937756  0.10594074  0.06612330  1
  O  O52  1  0.82556787  0.25386508  0.68266070  1
  O  O53  1  0.32556787  0.74613492  0.81733930  1
  O  O54  1  0.17443213  0.74613492  0.31733930  1
  O  O55  1  0.67443213  0.25386508  0.18266070  1
  O  O56  1  0.61889501  0.68093529  0.69670084  1
  O  O57  1  0.11889501  0.31906471  0.80329916  1
  O  O58  1  0.38110499  0.31906471  0.30329916  1
  O  O59  1  0.88110499  0.68093529  0.19670084  1
  O  O60  1  0.34989026  0.45896602  0.60659721  1
  O  O61  1  0.84989026  0.54103398  0.89340279  1
  O  O62  1  0.65010974  0.54103398  0.39340279  1
  O  O63  1  0.15010974  0.45896602  0.10659721  1
  O  O64  1  0.30226339  0.10243806  0.71697981  1
  O  O65  1  0.80226339  0.89756194  0.78302019  1
  O  O66  1  0.69773661  0.89756194  0.28302019  1
  O  O67  1  0.19773661  0.10243806  0.21697981  1
