# generated using pymatgen
data_Na2Ga4SiS5O24
_symmetry_space_group_name_H-M   'P 1'
_cell_length_a   8.53510282
_cell_length_b   8.52481523
_cell_length_c   22.23112087
_cell_angle_alpha   89.10499426
_cell_angle_beta   90.46855183
_cell_angle_gamma   119.70151028
_symmetry_Int_Tables_number   1
_chemical_formula_structural   Na2Ga4SiS5O24
_chemical_formula_sum   'Na6 Ga12 Si3 S15 O72'
_cell_volume   1404.85370212
_cell_formula_units_Z   3
loop_
 _symmetry_equiv_pos_site_id
 _symmetry_equiv_pos_as_xyz
  1  'x, y, z'
loop_
 _atom_site_type_symbol
 _atom_site_label
 _atom_site_symmetry_multiplicity
 _atom_site_fract_x
 _atom_site_fract_y
 _atom_site_fract_z
 _atom_site_occupancy
  Na  Na0  1  0.99362446  0.99151374  0.50362224  1
  Na  Na1  1  0.00001369  0.99990581  0.99884236  1
  Na  Na2  1  0.66812327  0.32623181  0.82734018  1
  Na  Na3  1  0.65769220  0.32631708  0.33380065  1
  Na  Na4  1  0.33143594  0.67393614  0.17076988  1
  Na  Na5  1  0.34901525  0.67218016  0.66547327  1
  Ga  Ga6  1  0.01310321  0.00297553  0.35150479  1
  Ga  Ga7  1  0.99295291  0.00293969  0.84230341  1
  Ga  Ga8  1  0.97173990  0.98080581  0.64587133  1
  Ga  Ga9  1  0.00550048  0.99705588  0.15421274  1
  Ga  Ga10  1  0.66360731  0.32895804  0.68396738  1
  Ga  Ga11  1  0.65672189  0.32496660  0.18924508  1
  Ga  Ga12  1  0.66790812  0.33323765  0.98138484  1
  Ga  Ga13  1  0.66809094  0.34219758  0.48731841  1
  Ga  Ga14  1  0.33222426  0.66627805  0.01621567  1
  Ga  Ga15  1  0.34367875  0.66522056  0.52248056  1
  Ga  Ga16  1  0.33276550  0.67862439  0.31577682  1
  Ga  Ga17  1  0.34268456  0.67268533  0.80875262  1
  Si  Si18  1  0.29141197  0.99822837  0.25038813  1
  Si  Si19  1  0.70785499  0.00698427  0.74970640  1
  Si  Si20  1  0.66808389  0.62158517  0.58405468  1
  S  S21  1  0.70966510  0.71006998  0.25016716  1
  S  S22  1  0.00114080  0.29054435  0.24980339  1
  S  S23  1  0.28781209  0.28777179  0.74994522  1
  S  S24  1  0.00037923  0.71002054  0.75103920  1
  S  S25  1  0.95901056  0.33440098  0.58241805  1
  S  S26  1  0.37297815  0.04157228  0.58290403  1
  S  S27  1  0.95483916  0.62192429  0.08320449  1
  S  S28  1  0.66817611  0.04115355  0.08331664  1
  S  S29  1  0.37538584  0.33463024  0.08220001  1
  S  S30  1  0.62486373  0.66598243  0.91778377  1
  S  S31  1  0.04473548  0.37729566  0.91700439  1
  S  S32  1  0.33157002  0.95876175  0.91684886  1
  S  S33  1  0.62842304  0.96157198  0.41650806  1
  S  S34  1  0.33177790  0.37757773  0.41573229  1
  S  S35  1  0.04216684  0.66336725  0.41764794  1
  O  O36  1  0.20612344  0.03909608  0.30891592  1
  O  O37  1  0.81956749  0.78981424  0.30426212  1
  O  O38  1  0.96036787  0.17520321  0.30415058  1
  O  O39  1  0.21531924  0.17795904  0.80743407  1
  O  O40  1  0.97300616  0.78856118  0.80753826  1
  O  O41  1  0.82266070  0.04422646  0.81288103  1
  O  O42  1  0.79654485  0.96617460  0.69282011  1
  O  O43  1  0.17865211  0.20679481  0.69658106  1
  O  O44  1  0.04123305  0.82564208  0.69740543  1
  O  O45  1  0.78155014  0.82269803  0.19404549  1
  O  O46  1  0.02878873  0.21205970  0.19401134  1
  O  O47  1  0.17220691  0.95846704  0.18856551  1
  O  O48  1  0.88062745  0.36396733  0.63643180  1
  O  O49  1  0.48688689  0.11381918  0.63660607  1
  O  O50  1  0.63087042  0.49625442  0.64350706  1
  O  O51  1  0.87397358  0.50846464  0.13746260  1
  O  O52  1  0.63590472  0.12153781  0.13640972  1
  O  O53  1  0.48875097  0.36847109  0.13611022  1
  O  O54  1  0.45582243  0.30248791  0.02778509  1
  O  O55  1  0.84490723  0.54124820  0.02792798  1
  O  O56  1  0.70059590  0.15305283  0.02748930  1
  O  O57  1  0.45228180  0.14955533  0.52646977  1
  O  O58  1  0.70486298  0.54384073  0.52222613  1
  O  O59  1  0.84535723  0.29468961  0.52702049  1
  O  O60  1  0.54542388  0.69758435  0.97312612  1
  O  O61  1  0.15354630  0.45727514  0.97307736  1
  O  O62  1  0.29983133  0.84808781  0.97359745  1
  O  O63  1  0.54770690  0.84793924  0.47035129  1
  O  O64  1  0.30142632  0.45806289  0.46927227  1
  O  O65  1  0.15701287  0.69546599  0.47108195  1
  O  O66  1  0.12142927  0.63455724  0.36237721  1
  O  O67  1  0.51815030  0.88378813  0.36143745  1
  O  O68  1  0.36263309  0.49030263  0.36012275  1
  O  O69  1  0.12594413  0.49177956  0.86353616  1
  O  O70  1  0.36432365  0.87768763  0.86456932  1
  O  O71  1  0.51019499  0.63174288  0.86469068  1
  O  O72  1  0.02033316  0.82657575  0.41156492  1
  O  O73  1  0.81005300  0.97777007  0.40875999  1
  O  O74  1  0.16471707  0.19715473  0.41091476  1
  O  O75  1  0.02876144  0.19700386  0.91340517  1
  O  O76  1  0.16906963  0.97862943  0.91072469  1
  O  O77  1  0.80721048  0.82539855  0.91250064  1
  O  O78  1  0.98850157  0.17817927  0.58828070  1
  O  O79  1  0.19718299  0.03226054  0.59022342  1
  O  O80  1  0.84956844  0.81898248  0.58660336  1
  O  O81  1  0.97002694  0.80263631  0.08735351  1
  O  O82  1  0.83194693  0.02219645  0.09012578  1
  O  O83  1  0.19270773  0.17434292  0.08791612  1
  O  O84  1  0.68700724  0.18517242  0.74196201  1
  O  O85  1  0.47002778  0.31163613  0.74671576  1
  O  O86  1  0.83776509  0.53319833  0.74620065  1
  O  O87  1  0.70117001  0.53306599  0.24232071  1
  O  O88  1  0.84171455  0.31591135  0.24207359  1
  O  O89  1  0.49014236  0.17856354  0.24358837  1
  O  O90  1  0.64067028  0.49869572  0.92522187  1
  O  O91  1  0.86161082  0.36008393  0.92400336  1
  O  O92  1  0.49689534  0.14043272  0.92469099  1
  O  O93  1  0.64645083  0.14335408  0.42309305  1
  O  O94  1  0.49252615  0.35400372  0.42067235  1
  O  O95  1  0.86208101  0.49832486  0.42187994  1
  O  O96  1  0.35854626  0.50113283  0.07515338  1
  O  O97  1  0.13814275  0.64045813  0.07663946  1
  O  O98  1  0.50401178  0.85955231  0.07593581  1
  O  O99  1  0.34897624  0.85772234  0.57531800  1
  O  O100  1  0.48812903  0.64182634  0.57799288  1
  O  O101  1  0.13523796  0.50258751  0.57438076  1
  O  O102  1  0.31200550  0.81842713  0.25658517  1
  O  O103  1  0.52610935  0.68371512  0.25652725  1
  O  O104  1  0.16615692  0.46689065  0.25648885  1
  O  O105  1  0.29658742  0.46575353  0.75782532  1
  O  O106  1  0.16106404  0.68632342  0.75878384  1
  O  O107  1  0.51124905  0.82420605  0.75672150  1
