# generated using pymatgen
data_HfAlP(SO6)2
_symmetry_space_group_name_H-M   'P 1'
_cell_length_a   8.62517210
_cell_length_b   8.61518866
_cell_length_c   22.25072106
_cell_angle_alpha   90.38378301
_cell_angle_beta   90.00000000
_cell_angle_gamma   120.03834083
_symmetry_Int_Tables_number   1
_chemical_formula_structural   HfAlP(SO6)2
_chemical_formula_sum   'Hf6 Al6 P6 S12 O72'
_cell_volume   1431.28580380
_cell_formula_units_Z   6
loop_
 _symmetry_equiv_pos_site_id
 _symmetry_equiv_pos_as_xyz
  1  'x, y, z'
loop_
 _atom_site_type_symbol
 _atom_site_label
 _atom_site_symmetry_multiplicity
 _atom_site_fract_x
 _atom_site_fract_y
 _atom_site_fract_z
 _atom_site_occupancy
  Hf  Hf0  1  0.00251307  0.00120103  0.64119862  1
  Hf  Hf1  1  0.99868796  0.00120103  0.14119862  1
  Hf  Hf2  1  0.66488124  0.33236846  0.97474746  1
  Hf  Hf3  1  0.66748822  0.33236846  0.47474746  1
  Hf  Hf4  1  0.34030789  0.65996064  0.30795844  1
  Hf  Hf5  1  0.31965174  0.65996064  0.80795844  1
  Al  Al6  1  0.99948133  0.99725247  0.35496629  1
  Al  Al7  1  0.99777113  0.99725247  0.85496629  1
  Al  Al8  1  0.68657070  0.34443152  0.68916761  1
  Al  Al9  1  0.65786181  0.34443152  0.18916761  1
  Al  Al10  1  0.32699795  0.64520439  0.02138120  1
  Al  Al11  1  0.31820544  0.64520439  0.52138120  1
  P  P12  1  0.73043315  0.71103731  0.25192956  1
  P  P13  1  0.98060416  0.71103731  0.75192956  1
  P  P14  1  0.95963555  0.35016965  0.58469629  1
  P  P15  1  0.39053510  0.35016965  0.08469629  1
  P  P16  1  0.05430909  0.36638181  0.91749886  1
  P  P17  1  0.31207172  0.36638181  0.41749886  1
  S  S18  1  0.29501602  0.01412458  0.25092908  1
  S  S19  1  0.97884697  0.27900544  0.25026174  1
  S  S20  1  0.30015847  0.27900544  0.75026174  1
  S  S21  1  0.71910855  0.01412458  0.75092908  1
  S  S22  1  0.39066018  0.03759459  0.58400741  1
  S  S23  1  0.64822351  0.61173072  0.58421282  1
  S  S24  1  0.96350821  0.61173072  0.08421282  1
  S  S25  1  0.64693541  0.03759459  0.08400741  1
  S  S26  1  0.62677940  0.68370318  0.91723177  1
  S  S27  1  0.31662806  0.94227782  0.91822250  1
  S  S28  1  0.62564876  0.94227782  0.41822250  1
  S  S29  1  0.05692277  0.68370318  0.41723177  1
  O  O30  1  0.21156957  0.04435562  0.30428088  1
  O  O31  1  0.84604125  0.80709215  0.30727766  1
  O  O32  1  0.95616806  0.17016719  0.30372678  1
  O  O33  1  0.21399914  0.17016719  0.80372678  1
  O  O34  1  0.96105091  0.80709215  0.80727766  1
  O  O35  1  0.83278605  0.04435562  0.80428088  1
  O  O36  1  0.79561485  0.97742535  0.69671893  1
  O  O37  1  0.18248048  0.20587176  0.69660021  1
  O  O38  1  0.01919489  0.82813127  0.69581442  1
  O  O39  1  0.80893638  0.82813127  0.19581442  1
  O  O40  1  0.02339129  0.20587176  0.19660021  1
  O  O41  1  0.18181050  0.97742535  0.19671893  1
  O  O42  1  0.86611414  0.37373961  0.63977709  1
  O  O43  1  0.49917986  0.12559497  0.63787276  1
  O  O44  1  0.62112097  0.50042618  0.63739550  1
  O  O45  1  0.87930621  0.50042618  0.13739550  1
  O  O46  1  0.62641612  0.12559497  0.13787276  1
  O  O47  1  0.50762647  0.37373961  0.13977709  1
  O  O48  1  0.46930522  0.30963125  0.02839326  1
  O  O49  1  0.84912293  0.53563921  0.03011199  1
  O  O50  1  0.68846848  0.15321196  0.03028828  1
  O  O51  1  0.46474448  0.15321196  0.53028828  1
  O  O52  1  0.68651728  0.53563921  0.53011199  1
  O  O53  1  0.84032702  0.30963125  0.52839326  1
  O  O54  1  0.54248605  0.71025362  0.97085832  1
  O  O55  1  0.17272460  0.46080520  0.97225729  1
  O  O56  1  0.29480288  0.83403199  0.97135950  1
  O  O57  1  0.53922811  0.83403199  0.47135950  1
  O  O58  1  0.28807960  0.46080520  0.47225729  1
  O  O59  1  0.16776657  0.71025362  0.47085832  1
  O  O60  1  0.13220551  0.64699805  0.36312239  1
  O  O61  1  0.51154418  0.86839613  0.36384082  1
  O  O62  1  0.35459591  0.48841278  0.36175493  1
  O  O63  1  0.13381587  0.48841278  0.86175493  1
  O  O64  1  0.35685095  0.86839613  0.86384082  1
  O  O65  1  0.51479154  0.64699805  0.86312239  1
  O  O66  1  0.03744342  0.84204111  0.40850118  1
  O  O67  1  0.80254689  0.96130073  0.40823867  1
  O  O68  1  0.14833533  0.18439667  0.40357609  1
  O  O69  1  0.03606134  0.18439667  0.90357609  1
  O  O70  1  0.15875384  0.96130073  0.90823867  1
  O  O71  1  0.80459769  0.84204111  0.90850118  1
  O  O72  1  0.98236491  0.18461976  0.59347191  1
  O  O73  1  0.20862998  0.01675921  0.59088109  1
  O  O74  1  0.80969267  0.79243140  0.59137447  1
  O  O75  1  0.98273874  0.79243140  0.09137447  1
  O  O76  1  0.80812922  0.01675921  0.09088109  1
  O  O77  1  0.20225485  0.18461976  0.09347191  1
  O  O78  1  0.69747018  0.17056565  0.74102006  1
  O  O79  1  0.47376126  0.29362759  0.73888519  1
  O  O80  1  0.81638273  0.52719678  0.74149044  1
  O  O81  1  0.71081505  0.52719678  0.24149044  1
  O  O82  1  0.81986733  0.29362759  0.23888519  1
  O  O83  1  0.47309647  0.17056565  0.24102006  1
  O  O84  1  0.64832409  0.52346680  0.92450995  1
  O  O85  1  0.86728816  0.34541353  0.92699868  1
  O  O86  1  0.47709647  0.12459213  0.92434091  1
  O  O87  1  0.64749667  0.12459213  0.42434091  1
  O  O88  1  0.47812637  0.34541353  0.42699868  1
  O  O89  1  0.87514371  0.52346680  0.42450995  1
  O  O90  1  0.37414245  0.51571485  0.07406490  1
  O  O91  1  0.14092631  0.63385387  0.07394719  1
  O  O92  1  0.48929626  0.86230319  0.07277977  1
  O  O93  1  0.37300593  0.86230319  0.57277977  1
  O  O94  1  0.49292656  0.63385387  0.57394719  1
  O  O95  1  0.14157140  0.51571485  0.57406490  1
  O  O96  1  0.31256478  0.85308854  0.25923142  1
  O  O97  1  0.54167605  0.68993933  0.25903034  1
  O  O98  1  0.13724856  0.46206096  0.25779712  1
  O  O99  1  0.32481141  0.46206096  0.75779712  1
  O  O100  1  0.14826228  0.68993933  0.75903034  1
  O  O101  1  0.54052277  0.85308854  0.75923142  1
