# generated using pymatgen
data_Na6Sc3NbSi2(PO6)4
_symmetry_space_group_name_H-M   'P 1'
_cell_length_a   15.73976364
_cell_length_b   9.07461905
_cell_length_c   9.08705295
_cell_angle_alpha   89.47679669
_cell_angle_beta   124.92426891
_cell_angle_gamma   90.06689808
_symmetry_Int_Tables_number   1
_chemical_formula_structural   Na6Sc3NbSi2(PO6)4
_chemical_formula_sum   'Na12 Sc6 Nb2 Si4 P8 O48'
_cell_volume   1064.12373611
_cell_formula_units_Z   2
loop_
 _symmetry_equiv_pos_site_id
 _symmetry_equiv_pos_as_xyz
  1  'x, y, z'
loop_
 _atom_site_type_symbol
 _atom_site_label
 _atom_site_symmetry_multiplicity
 _atom_site_fract_x
 _atom_site_fract_y
 _atom_site_fract_z
 _atom_site_occupancy
  Na  Na0  1  0.25033724  0.75038847  0.99861780  1
  Na  Na1  1  0.74545112  0.75303850  0.48584659  1
  Na  Na2  1  0.75033724  0.25038847  0.99861780  1
  Na  Na3  1  0.24545112  0.25303850  0.48584659  1
  Na  Na4  1  0.49924265  0.08521906  0.73802399  1
  Na  Na5  1  0.50498088  0.89435130  0.25691680  1
  Na  Na6  1  0.99924265  0.58521906  0.73802399  1
  Na  Na7  1  0.00498088  0.39435130  0.25691680  1
  Na  Na8  1  0.18937028  0.92703443  0.29578667  1
  Na  Na9  1  0.81084111  0.08207094  0.70397291  1
  Na  Na10  1  0.68937028  0.42703443  0.29578667  1
  Na  Na11  1  0.31084111  0.58207094  0.70397291  1
  Sc  Sc12  1  0.10533550  0.75516369  0.56398816  1
  Sc  Sc13  1  0.89459188  0.24489836  0.43672896  1
  Sc  Sc14  1  0.10300599  0.25349715  0.05690834  1
  Sc  Sc15  1  0.60533550  0.25516369  0.56398816  1
  Sc  Sc16  1  0.39459188  0.74489836  0.43672896  1
  Sc  Sc17  1  0.60300599  0.75349715  0.05690834  1
  Nb  Nb18  1  0.89593035  0.74734706  0.94011051  1
  Nb  Nb19  1  0.39593035  0.24734706  0.94011051  1
  Si  Si20  1  0.35177227  0.89904636  0.75324059  1
  Si  Si21  1  0.65176783  0.10167379  0.25419908  1
  Si  Si22  1  0.85177227  0.39904636  0.75324059  1
  Si  Si23  1  0.15176783  0.60167379  0.25419908  1
  P  P24  1  0.00227021  0.95450564  0.75907139  1
  P  P25  1  0.99721678  0.04313651  0.24581044  1
  P  P26  1  0.50227021  0.45450564  0.75907139  1
  P  P27  1  0.49721678  0.54313651  0.24581044  1
  P  P28  1  0.64697157  0.89309866  0.74282606  1
  P  P29  1  0.35506098  0.10454102  0.25848207  1
  P  P30  1  0.14697157  0.39309866  0.74282606  1
  P  P31  1  0.85506098  0.60454102  0.25848207  1
  O  O32  1  0.15414955  0.56409422  0.74256085  1
  O  O33  1  0.84777301  0.58388957  0.76683387  1
  O  O34  1  0.85210483  0.43419730  0.24462865  1
  O  O35  1  0.15185921  0.42337367  0.24376980  1
  O  O36  1  0.65414955  0.06409422  0.74256085  1
  O  O37  1  0.34777301  0.08388957  0.76683387  1
  O  O38  1  0.35210483  0.93419730  0.24462865  1
  O  O39  1  0.65185921  0.92337367  0.24376980  1
  O  O40  1  0.43500140  0.55606101  0.59274615  1
  O  O41  1  0.56742689  0.54367361  0.93090785  1
  O  O42  1  0.55761672  0.44075764  0.41038712  1
  O  O43  1  0.43424806  0.44393727  0.07375423  1
  O  O44  1  0.93500140  0.05606101  0.59274615  1
  O  O45  1  0.06742689  0.04367361  0.93090785  1
  O  O46  1  0.05761672  0.94075764  0.41038712  1
  O  O47  1  0.93424806  0.94393727  0.07375423  1
  O  O48  1  0.25604641  0.82187279  0.74484913  1
  O  O49  1  0.74632206  0.83274704  0.76148841  1
  O  O50  1  0.73937101  0.19107829  0.24804652  1
  O  O51  1  0.25898491  0.16165502  0.24439787  1
  O  O52  1  0.75604641  0.32187279  0.74484913  1
  O  O53  1  0.24632206  0.33274704  0.76148841  1
  O  O54  1  0.23937101  0.69107829  0.24804652  1
  O  O55  1  0.75898491  0.66165502  0.24439787  1
  O  O56  1  0.35223592  0.87223899  0.57448531  1
  O  O57  1  0.64533721  0.85024585  0.90470223  1
  O  O58  1  0.65234605  0.14566320  0.42791276  1
  O  O59  1  0.35746318  0.16134955  0.09372150  1
  O  O60  1  0.85223592  0.37223899  0.57448531  1
  O  O61  1  0.14533721  0.35024585  0.90470223  1
  O  O62  1  0.15234605  0.64566320  0.42791276  1
  O  O63  1  0.85746318  0.66134955  0.09372150  1
  O  O64  1  0.46007875  0.83940042  0.93102533  1
  O  O65  1  0.55056444  0.83475264  0.56605903  1
  O  O66  1  0.53477714  0.16956921  0.07677700  1
  O  O67  1  0.45452647  0.15717782  0.43146748  1
  O  O68  1  0.96007875  0.33940042  0.93102533  1
  O  O69  1  0.05056444  0.33475264  0.56605903  1
  O  O70  1  0.03477714  0.66956921  0.07677700  1
  O  O71  1  0.95452647  0.65717782  0.43146748  1
  O  O72  1  0.06846168  0.83908934  0.74444038  1
  O  O73  1  0.91783059  0.86109426  0.76526766  1
  O  O74  1  0.92174135  0.14903274  0.24790455  1
  O  O75  1  0.07958651  0.13403759  0.24133597  1
  O  O76  1  0.56846168  0.33908934  0.74444038  1
  O  O77  1  0.41783059  0.36109426  0.76526766  1
  O  O78  1  0.42174135  0.64903274  0.24790455  1
  O  O79  1  0.57958651  0.63403759  0.24133597  1
