# generated using pymatgen
data_Na6Ti4Si5SO24
_symmetry_space_group_name_H-M   'P 1'
_cell_length_a   8.93955425
_cell_length_b   8.93533161
_cell_length_c   22.07869835
_cell_angle_alpha   89.90333803
_cell_angle_beta   89.83349650
_cell_angle_gamma   119.97030686
_symmetry_Int_Tables_number   1
_chemical_formula_structural   Na6Ti4Si5SO24
_chemical_formula_sum   'Na18 Ti12 Si15 S3 O72'
_cell_volume   1527.76240384
_cell_formula_units_Z   3
loop_
 _symmetry_equiv_pos_site_id
 _symmetry_equiv_pos_as_xyz
  1  'x, y, z'
loop_
 _atom_site_type_symbol
 _atom_site_label
 _atom_site_symmetry_multiplicity
 _atom_site_fract_x
 _atom_site_fract_y
 _atom_site_fract_z
 _atom_site_occupancy
  Na  Na0  1  0.63631757  0.00331281  0.24986223  1
  Na  Na1  1  0.36369607  0.36665408  0.25009230  1
  Na  Na2  1  0.00022623  0.63064652  0.25001254  1
  Na  Na3  1  0.63110405  0.63029836  0.75041012  1
  Na  Na4  1  0.99684550  0.36590026  0.75008931  1
  Na  Na5  1  0.37159233  0.00462450  0.74951628  1
  Na  Na6  1  0.29678927  0.33212633  0.58287431  1
  Na  Na7  1  0.03259994  0.70249980  0.58358098  1
  Na  Na8  1  0.67126387  0.96630841  0.58391101  1
  Na  Na9  1  0.03452301  0.33135575  0.08690536  1
  Na  Na10  1  0.96767072  0.66670819  0.91648316  1
  Na  Na11  1  0.33300786  0.03553351  0.41678431  1
  Na  Na12  1  0.98669514  0.99366486  0.49750201  1
  Na  Na13  1  0.01112873  0.00394017  0.00002298  1
  Na  Na14  1  0.65974474  0.31819313  0.83529216  1
  Na  Na15  1  0.68141925  0.33869778  0.33680320  1
  Na  Na16  1  0.34250290  0.67126786  0.16401429  1
  Na  Na17  1  0.33546650  0.66451760  0.66677542  1
  Ti  Ti18  1  0.98282795  0.98693266  0.35247581  1
  Ti  Ti19  1  0.01411316  0.01648218  0.85309587  1
  Ti  Ti20  1  0.99935837  0.99982051  0.64735309  1
  Ti  Ti21  1  0.01177723  0.99458137  0.14710197  1
  Ti  Ti22  1  0.66794590  0.33458198  0.68617523  1
  Ti  Ti23  1  0.66763328  0.34714054  0.18775760  1
  Ti  Ti24  1  0.65619097  0.32979425  0.97923176  1
  Ti  Ti25  1  0.68359256  0.33655088  0.48090185  1
  Ti  Ti26  1  0.30923740  0.65319009  0.02038780  1
  Ti  Ti27  1  0.33861913  0.68302528  0.52079359  1
  Ti  Ti28  1  0.32732563  0.67513524  0.31260281  1
  Ti  Ti29  1  0.32252579  0.67289901  0.81271797  1
  Si  Si30  1  0.29107492  0.00420432  0.25275819  1
  Si  Si31  1  0.71074647  0.71491189  0.24839973  1
  Si  Si32  1  0.99980831  0.28555100  0.24861221  1
  Si  Si33  1  0.29197470  0.29263173  0.74864103  1
  Si  Si34  1  0.99584852  0.71228673  0.75169536  1
  Si  Si35  1  0.71280229  0.99934085  0.75092617  1
  Si  Si36  1  0.95956593  0.33352984  0.58426176  1
  Si  Si37  1  0.37949526  0.05013695  0.58210397  1
  Si  Si38  1  0.66615408  0.62032665  0.58287836  1
  Si  Si39  1  0.94994569  0.62655206  0.08173230  1
  Si  Si40  1  0.37677419  0.33596282  0.08339235  1
  Si  Si41  1  0.03688078  0.36896052  0.91646157  1
  Si  Si42  1  0.33556803  0.95962810  0.91738962  1
  Si  Si43  1  0.62760455  0.95962722  0.41616685  1
  Si  Si44  1  0.03839338  0.66566973  0.41688298  1
  S  S45  1  0.66282576  0.04220677  0.08301703  1
  S  S46  1  0.61871498  0.66667507  0.91728138  1
  S  S47  1  0.33321951  0.37927407  0.41673040  1
  O  O48  1  0.20698314  0.04124508  0.31212847  1
  O  O49  1  0.83866415  0.79657121  0.30756171  1
  O  O50  1  0.96380525  0.15320667  0.30573434  1
  O  O51  1  0.20032402  0.16136520  0.80653311  1
  O  O52  1  0.96419231  0.79894673  0.81135333  1
  O  O53  1  0.84544466  0.03459822  0.80683084  1
  O  O54  1  0.79862044  0.96489651  0.68980838  1
  O  O55  1  0.16688248  0.20427247  0.68942202  1
  O  O56  1  0.03391323  0.83517093  0.69131742  1
  O  O57  1  0.80410614  0.84565034  0.19177272  1
  O  O58  1  0.03689158  0.20262012  0.18819080  1
  O  O59  1  0.16146738  0.96221313  0.19430386  1
  O  O60  1  0.87158803  0.37080461  0.64365014  1
  O  O61  1  0.50317184  0.13512203  0.64195574  1
  O  O62  1  0.63197197  0.49981262  0.64389314  1
  O  O63  1  0.86360809  0.50027440  0.14197337  1
  O  O64  1  0.64014283  0.12000129  0.13962695  1
  O  O65  1  0.49560095  0.35667353  0.14372422  1
  O  O66  1  0.47853618  0.30907912  0.02595768  1
  O  O67  1  0.83576298  0.52532449  0.02232676  1
  O  O68  1  0.68935442  0.15699711  0.02994863  1
  O  O69  1  0.46653881  0.16911288  0.52227922  1
  O  O70  1  0.70130091  0.52286978  0.52670229  1
  O  O71  1  0.82864893  0.29444921  0.52663833  1
  O  O72  1  0.53045613  0.68195608  0.97071332  1
  O  O73  1  0.15603170  0.46278841  0.97716429  1
  O  O74  1  0.30872396  0.82481350  0.97297614  1
  O  O75  1  0.53161900  0.84066106  0.47702256  1
  O  O76  1  0.31659966  0.46454994  0.47216891  1
  O  O77  1  0.16596004  0.69175377  0.47534643  1
  O  O78  1  0.13491644  0.64254226  0.35633156  1
  O  O79  1  0.50024298  0.85805088  0.35792514  1
  O  O80  1  0.35012367  0.48104568  0.36121394  1
  O  O81  1  0.13913528  0.50013406  0.85835003  1
  O  O82  1  0.36022916  0.86775940  0.85546362  1
  O  O83  1  0.52119135  0.64591502  0.86029873  1
  O  O84  1  0.03735422  0.84796061  0.41264428  1
  O  O85  1  0.81778976  0.97783009  0.41118737  1
  O  O86  1  0.17751550  0.20486094  0.41467378  1
  O  O87  1  0.02136719  0.18009865  0.91137932  1
  O  O88  1  0.15430946  0.96252978  0.91259048  1
  O  O89  1  0.79529430  0.81901847  0.91449243  1
  O  O90  1  0.97497632  0.15944322  0.58822080  1
  O  O91  1  0.18583721  0.02462629  0.58827096  1
  O  O92  1  0.83803156  0.81200206  0.58797320  1
  O  O93  1  0.97015901  0.81706512  0.08823105  1
  O  O94  1  0.82450659  0.03387118  0.08563315  1
  O  O95  1  0.18148044  0.16773456  0.08796262  1
  O  O96  1  0.69162247  0.17057162  0.74536565  1
  O  O97  1  0.48140683  0.30745195  0.74456720  1
  O  O98  1  0.82751764  0.51870436  0.74560360  1
  O  O99  1  0.69357620  0.52216857  0.24353773  1
  O  O100  1  0.82769846  0.30662192  0.24344666  1
  O  O101  1  0.48489008  0.17001379  0.24354632  1
  O  O102  1  0.63979432  0.50914081  0.92024639  1
  O  O103  1  0.85286288  0.36542387  0.92157864  1
  O  O104  1  0.50713387  0.15003382  0.92391232  1
  O  O105  1  0.62951416  0.14340926  0.42050999  1
  O  O106  1  0.48856754  0.35988460  0.41882625  1
  O  O107  1  0.84870251  0.49356052  0.42182672  1
  O  O108  1  0.35870600  0.50965979  0.07764411  1
  O  O109  1  0.14222981  0.63870184  0.07771751  1
  O  O110  1  0.51082246  0.86950940  0.07664353  1
  O  O111  1  0.35955413  0.85500103  0.57845830  1
  O  O112  1  0.49246247  0.63771499  0.57685126  1
  O  O113  1  0.15036321  0.50447691  0.57657319  1
  O  O114  1  0.30901024  0.82850511  0.25548017  1
  O  O115  1  0.51708521  0.68672189  0.25653242  1
  O  O116  1  0.17203131  0.47808107  0.25686679  1
  O  O117  1  0.31204391  0.48351144  0.75648756  1
  O  O118  1  0.17169087  0.69340919  0.75496700  1
  O  O119  1  0.52153741  0.82553923  0.75675055  1
