# generated using pymatgen
data_Na7Si5Sn2Ge2PO24
_symmetry_space_group_name_H-M   'P 1'
_cell_length_a   8.91789518
_cell_length_b   8.90275840
_cell_length_c   22.03591273
_cell_angle_alpha   90.11115906
_cell_angle_beta   89.66108578
_cell_angle_gamma   120.09431522
_symmetry_Int_Tables_number   1
_chemical_formula_structural   Na7Si5Sn2Ge2PO24
_chemical_formula_sum   'Na21 Si15 Sn6 Ge6 P3 O72'
_cell_volume   1513.65602035
_cell_formula_units_Z   3
loop_
 _symmetry_equiv_pos_site_id
 _symmetry_equiv_pos_as_xyz
  1  'x, y, z'
loop_
 _atom_site_type_symbol
 _atom_site_label
 _atom_site_symmetry_multiplicity
 _atom_site_fract_x
 _atom_site_fract_y
 _atom_site_fract_z
 _atom_site_occupancy
  Na  Na0  1  0.63243612  0.99936595  0.25120451  1
  Na  Na1  1  0.36855746  0.36784697  0.24873512  1
  Na  Na2  1  0.00023482  0.63064978  0.25041950  1
  Na  Na3  1  0.63285675  0.63074809  0.74786225  1
  Na  Na4  1  0.99847962  0.36847019  0.74924365  1
  Na  Na5  1  0.37071607  0.00184995  0.74945497  1
  Na  Na6  1  0.29723197  0.33161448  0.58480505  1
  Na  Na7  1  0.03540267  0.70394300  0.58428769  1
  Na  Na8  1  0.66890454  0.96518079  0.58427230  1
  Na  Na9  1  0.29622926  0.96900009  0.08320080  1
  Na  Na10  1  0.03375119  0.33464125  0.08514261  1
  Na  Na11  1  0.97095888  0.66925319  0.91601556  1
  Na  Na12  1  0.32899031  0.29722898  0.91689863  1
  Na  Na13  1  0.33180194  0.03054888  0.41677537  1
  Na  Na14  1  0.69995494  0.66741529  0.41787720  1
  Na  Na15  1  0.99779868  0.00459424  0.49893107  1
  Na  Na16  1  0.98971073  0.99489758  0.99994544  1
  Na  Na17  1  0.66766382  0.32379154  0.83269209  1
  Na  Na18  1  0.67557741  0.33257219  0.33619767  1
  Na  Na19  1  0.33809379  0.66441251  0.16593934  1
  Na  Na20  1  0.33370509  0.66730776  0.66646285  1
  Si  Si21  1  0.28132314  0.99991376  0.25075814  1
  Si  Si22  1  0.71911280  0.71972171  0.25009874  1
  Si  Si23  1  0.00025220  0.27873007  0.24998575  1
  Si  Si24  1  0.28775591  0.28222843  0.74803695  1
  Si  Si25  1  0.99487047  0.71483409  0.74846483  1
  Si  Si26  1  0.72038091  0.00470415  0.74871969  1
  Si  Si27  1  0.94998290  0.32846557  0.58545055  1
  Si  Si28  1  0.38230107  0.05422022  0.58451617  1
  Si  Si29  1  0.67052884  0.61812548  0.58437947  1
  Si  Si30  1  0.95753303  0.63436891  0.08425034  1
  Si  Si31  1  0.36871506  0.33215613  0.08512288  1
  Si  Si32  1  0.03367201  0.36155440  0.91471233  1
  Si  Si33  1  0.33111325  0.96298638  0.91493112  1
  Si  Si34  1  0.63817428  0.97207827  0.41674207  1
  Si  Si35  1  0.03126523  0.66315999  0.41684480  1
  Sn  Sn36  1  0.66750393  0.33599601  0.18709535  1
  Sn  Sn37  1  0.66580791  0.33024948  0.98197545  1
  Sn  Sn38  1  0.33050101  0.66280535  0.01761447  1
  Sn  Sn39  1  0.33482923  0.67026408  0.51878222  1
  Sn  Sn40  1  0.33070012  0.66827784  0.31478750  1
  Sn  Sn41  1  0.33226429  0.66889826  0.81275275  1
  Ge  Ge42  1  0.99368035  0.99616407  0.35189409  1
  Ge  Ge43  1  0.00290167  0.00504926  0.85034437  1
  Ge  Ge44  1  0.99981238  0.00015363  0.64659384  1
  Ge  Ge45  1  0.00206855  0.99668629  0.14845868  1
  Ge  Ge46  1  0.66743514  0.33371868  0.68665775  1
  Ge  Ge47  1  0.67796659  0.33183375  0.48333484  1
  P  P48  1  0.67049945  0.03642484  0.08494167  1
  P  P49  1  0.63140231  0.67491712  0.91515608  1
  P  P50  1  0.32989346  0.36713305  0.41668857  1
  O  O51  1  0.19796802  0.03809233  0.31102273  1
  O  O52  1  0.83675667  0.79708603  0.31110775  1
  O  O53  1  0.96211527  0.15467329  0.30867180  1
  O  O54  1  0.20671603  0.16256067  0.80901785  1
  O  O55  1  0.95838916  0.79834228  0.80955054  1
  O  O56  1  0.84542326  0.04263872  0.80731163  1
  O  O57  1  0.80016681  0.96182619  0.68810866  1
  O  O58  1  0.16188942  0.20043363  0.68893976  1
  O  O59  1  0.03690116  0.83973920  0.68883135  1
  O  O60  1  0.80476940  0.84607394  0.19167479  1
  O  O61  1  0.03679269  0.19877689  0.18823921  1
  O  O62  1  0.16354553  0.96272593  0.19010823  1
  O  O63  1  0.86888248  0.37315444  0.64520778  1
  O  O64  1  0.50642463  0.13566615  0.64423018  1
  O  O65  1  0.62934220  0.49484258  0.64443814  1
  O  O66  1  0.88380710  0.50483921  0.14302166  1
  O  O67  1  0.62859856  0.11190386  0.14204826  1
  O  O68  1  0.48482890  0.36458027  0.14527968  1
  O  O69  1  0.44632834  0.28560996  0.02498702  1
  O  O70  1  0.84497434  0.55050264  0.02292135  1
  O  O71  1  0.71008353  0.15719261  0.02942454  1
  O  O72  1  0.46625315  0.17532507  0.52370256  1
  O  O73  1  0.70563788  0.53268392  0.52375318  1
  O  O74  1  0.82579703  0.28744932  0.52658557  1
  O  O75  1  0.54933153  0.70504667  0.97164670  1
  O  O76  1  0.15785216  0.44080326  0.97460295  1
  O  O77  1  0.29062578  0.84214662  0.97545422  1
  O  O78  1  0.55710305  0.84133877  0.47578543  1
  O  O79  1  0.29754746  0.44784892  0.47422746  1
  O  O80  1  0.15865557  0.71189758  0.47599477  1
  O  O81  1  0.11088470  0.62454753  0.35602218  1
  O  O82  1  0.51012692  0.88890398  0.35757424  1
  O  O83  1  0.37113673  0.48676136  0.36015916  1
  O  O84  1  0.11750713  0.48981877  0.85585637  1
  O  O85  1  0.37077641  0.88343245  0.85471984  1
  O  O86  1  0.51481904  0.63136801  0.85825840  1
  O  O87  1  0.02094378  0.84356525  0.40979567  1
  O  O88  1  0.82434137  0.97872450  0.40925122  1
  O  O89  1  0.16905654  0.18536316  0.41047863  1
  O  O90  1  0.02485236  0.17427549  0.90784434  1
  O  O91  1  0.15067531  0.97231324  0.90869719  1
  O  O92  1  0.81426462  0.83392977  0.90905082  1
  O  O93  1  0.97161274  0.15528785  0.59050397  1
  O  O94  1  0.18637062  0.03090849  0.58983155  1
  O  O95  1  0.84421267  0.81353491  0.58947072  1
  O  O96  1  0.97982880  0.82731448  0.09106922  1
  O  O97  1  0.83738762  0.02687328  0.09083060  1
  O  O98  1  0.17444966  0.15601608  0.09042110  1
  O  O99  1  0.69653933  0.17697558  0.74332283  1
  O  O100  1  0.48251993  0.30361295  0.74293536  1
  O  O101  1  0.82118884  0.51916941  0.74367420  1
  O  O102  1  0.69743199  0.52547687  0.24764977  1
  O  O103  1  0.82754173  0.30018182  0.24648070  1
  O  O104  1  0.47696956  0.17062934  0.24735598  1
  O  O105  1  0.64615733  0.50832926  0.92053303  1
  O  O106  1  0.85024158  0.35939157  0.92073364  1
  O  O107  1  0.49734367  0.15897935  0.91979619  1
  O  O108  1  0.63859206  0.15568455  0.42540934  1
  O  O109  1  0.49587687  0.35374376  0.42228293  1
  O  O110  1  0.83597377  0.49401354  0.42483720  1
  O  O111  1  0.34705237  0.50271295  0.08002081  1
  O  O112  1  0.15195816  0.65439071  0.07977456  1
  O  O113  1  0.50389008  0.86040766  0.07783878  1
  O  O114  1  0.36101694  0.85928730  0.58059013  1
  O  O115  1  0.49633802  0.63777869  0.57968797  1
  O  O116  1  0.14433285  0.50146856  0.57948207  1
  O  O117  1  0.30321833  0.82744563  0.25290649  1
  O  O118  1  0.52354206  0.69483132  0.25462456  1
  O  O119  1  0.17382437  0.47303824  0.25373957  1
  O  O120  1  0.31084842  0.47740810  0.75320023  1
  O  O121  1  0.16772829  0.69319977  0.75148311  1
  O  O122  1  0.52648275  0.82998452  0.75278742  1
