# generated using pymatgen
data_Na3YTa3Si3(PO8)3
_symmetry_space_group_name_H-M   'P 1'
_cell_length_a   8.96067696
_cell_length_b   8.97183159
_cell_length_c   22.96774290
_cell_angle_alpha   90.00254252
_cell_angle_beta   89.94330671
_cell_angle_gamma   119.83814018
_symmetry_Int_Tables_number   1
_chemical_formula_structural   Na3YTa3Si3(PO8)3
_chemical_formula_sum   'Na9 Y3 Ta9 Si9 P9 O72'
_cell_volume   1601.68328011
_cell_formula_units_Z   3
loop_
 _symmetry_equiv_pos_site_id
 _symmetry_equiv_pos_as_xyz
  1  'x, y, z'
loop_
 _atom_site_type_symbol
 _atom_site_label
 _atom_site_symmetry_multiplicity
 _atom_site_fract_x
 _atom_site_fract_y
 _atom_site_fract_z
 _atom_site_occupancy
  Na  Na0  1  0.64149125  0.00333308  0.24905750  1
  Na  Na1  1  0.36877320  0.36030388  0.24725061  1
  Na  Na2  1  0.70816636  0.67550754  0.41498181  1
  Na  Na3  1  0.00866928  0.00869969  0.49555773  1
  Na  Na4  1  0.00143199  0.00133926  0.99981457  1
  Na  Na5  1  0.66738879  0.33301883  0.83135273  1
  Na  Na6  1  0.67784856  0.34110926  0.33277114  1
  Na  Na7  1  0.32681764  0.66271427  0.16363142  1
  Na  Na8  1  0.33726398  0.66532569  0.66522600  1
  Y  Y9  1  0.00574360  0.00213659  0.35747825  1
  Y  Y10  1  0.66477196  0.33541171  0.68762520  1
  Y  Y11  1  0.67154179  0.34508539  0.17841390  1
  Ta  Ta12  1  0.00103758  0.00125827  0.85740949  1
  Ta  Ta13  1  0.99795155  0.99770213  0.64437250  1
  Ta  Ta14  1  0.99764722  0.99696564  0.14491432  1
  Ta  Ta15  1  0.66059045  0.33152015  0.97769475  1
  Ta  Ta16  1  0.66817191  0.33441634  0.47968353  1
  Ta  Ta17  1  0.33458509  0.66425594  0.01644974  1
  Ta  Ta18  1  0.33458006  0.66694994  0.52039160  1
  Ta  Ta19  1  0.33276396  0.66765381  0.31574673  1
  Ta  Ta20  1  0.33321578  0.66608509  0.81346998  1
  Si  Si21  1  0.70355061  0.70428521  0.25209396  1
  Si  Si22  1  0.66483528  0.62678247  0.58346640  1
  Si  Si23  1  0.36651745  0.33337477  0.08288506  1
  Si  Si24  1  0.62119640  0.66577054  0.91543872  1
  Si  Si25  1  0.04384416  0.38050822  0.91574351  1
  Si  Si26  1  0.33529916  0.95389259  0.91596337  1
  Si  Si27  1  0.61563481  0.95968096  0.41860224  1
  Si  Si28  1  0.33641471  0.37979636  0.41924377  1
  Si  Si29  1  0.04328059  0.65884148  0.41953131  1
  P  P30  1  0.28849144  0.99197577  0.24808884  1
  P  P31  1  0.00474729  0.29374773  0.24901252  1
  P  P32  1  0.27855468  0.28635329  0.75165157  1
  P  P33  1  0.00843996  0.72172200  0.75175942  1
  P  P34  1  0.71337998  0.99225240  0.75183900  1
  P  P35  1  0.96022500  0.33320984  0.58331203  1
  P  P36  1  0.37346747  0.04043161  0.58318436  1
  P  P37  1  0.96542265  0.63111268  0.08020837  1
  P  P38  1  0.66545073  0.03613634  0.08206818  1
  O  O39  1  0.21865021  0.03355285  0.30140609  1
  O  O40  1  0.80366550  0.78563211  0.31095782  1
  O  O41  1  0.97701452  0.18745846  0.30289786  1
  O  O42  1  0.18076095  0.17516753  0.80558999  1
  O  O43  1  0.99330151  0.81852199  0.80547099  1
  O  O44  1  0.82500095  0.00626889  0.80554063  1
  O  O45  1  0.80599259  0.97416792  0.69621272  1
  O  O46  1  0.16954418  0.19669702  0.69633575  1
  O  O47  1  0.02758259  0.83261921  0.69623483  1
  O  O48  1  0.80857685  0.83641546  0.19477427  1
  O  O49  1  0.03179043  0.19998656  0.19424542  1
  O  O50  1  0.17211942  0.97374756  0.19357378  1
  O  O51  1  0.88910006  0.36582648  0.63800321  1
  O  O52  1  0.47858764  0.10780618  0.63782087  1
  O  O53  1  0.62852996  0.51646126  0.64073045  1
  O  O54  1  0.90566041  0.53155366  0.13602709  1
  O  O55  1  0.63333592  0.09847690  0.13948461  1
  O  O56  1  0.46419868  0.37084709  0.14380237  1
  O  O57  1  0.47587388  0.30852462  0.02858222  1
  O  O58  1  0.84281382  0.53653001  0.02831675  1
  O  O59  1  0.69445915  0.16082412  0.03046743  1
  O  O60  1  0.46452131  0.15985074  0.52969211  1
  O  O61  1  0.69641759  0.53302872  0.52569469  1
  O  O62  1  0.83973673  0.30179555  0.52969343  1
  O  O63  1  0.53082610  0.69736445  0.97179817  1
  O  O64  1  0.16807356  0.47189444  0.97156592  1
  O  O65  1  0.30408185  0.83409963  0.97227436  1
  O  O66  1  0.51272688  0.83536765  0.47282940  1
  O  O67  1  0.32435928  0.48710022  0.47379615  1
  O  O68  1  0.16096201  0.67768730  0.47478990  1
  O  O69  1  0.13755247  0.63537089  0.35997392  1
  O  O70  1  0.49896119  0.86706073  0.35769429  1
  O  O71  1  0.36820217  0.50157883  0.35884122  1
  O  O72  1  0.13843631  0.50293207  0.85876027  1
  O  O73  1  0.36412879  0.86061080  0.85883127  1
  O  O74  1  0.49772479  0.63544342  0.85881234  1
  O  O75  1  0.00907091  0.81664525  0.41901840  1
  O  O76  1  0.79611030  0.96626275  0.41755202  1
  O  O77  1  0.17293641  0.19557401  0.41973376  1
  O  O78  1  0.02329574  0.18960588  0.90671826  1
  O  O79  1  0.16738909  0.97852253  0.90649604  1
  O  O80  1  0.81198184  0.83440397  0.90672332  1
  O  O81  1  0.97971954  0.16855592  0.59115922  1
  O  O82  1  0.19158670  0.02657517  0.59138576  1
  O  O83  1  0.84181313  0.82058719  0.59269793  1
  O  O84  1  0.97734875  0.81133218  0.08837905  1
  O  O85  1  0.83161987  0.01905475  0.08837192  1
  O  O86  1  0.17538866  0.15705833  0.08938140  1
  O  O87  1  0.69493444  0.15070474  0.75017353  1
  O  O88  1  0.45553530  0.30306619  0.75138639  1
  O  O89  1  0.85062557  0.54445783  0.75025169  1
  O  O90  1  0.66262950  0.50834011  0.24757780  1
  O  O91  1  0.84462975  0.31029994  0.24165954  1
  O  O92  1  0.47318173  0.14127924  0.24032212  1
  O  O93  1  0.64217815  0.49612279  0.92630279  1
  O  O94  1  0.85416859  0.35853186  0.92723079  1
  O  O95  1  0.50607068  0.14451268  0.92617515  1
  O  O96  1  0.62740697  0.14558587  0.42612761  1
  O  O97  1  0.51909213  0.37748785  0.42557709  1
  O  O98  1  0.85371625  0.48161460  0.42594179  1
  O  O99  1  0.34225271  0.50034874  0.07051498  1
  O  O100  1  0.14918133  0.66167940  0.06931964  1
  O  O101  1  0.50909080  0.85574008  0.07042344  1
  O  O102  1  0.33976289  0.85607374  0.57250348  1
  O  O103  1  0.50380002  0.66154960  0.57373828  1
  O  O104  1  0.14247779  0.48746528  0.57288935  1
  O  O105  1  0.29805258  0.82330419  0.25338361  1
  O  O106  1  0.51206008  0.69856722  0.25392883  1
  O  O107  1  0.17428985  0.47098332  0.25350066  1
  O  O108  1  0.29211567  0.46695165  0.75739177  1
  O  O109  1  0.17650970  0.70972245  0.75684970  1
  O  O110  1  0.53413499  0.82446160  0.75697117  1
