# generated using pymatgen
data_Na5Ga4P5SO24
_symmetry_space_group_name_H-M   'P 1'
_cell_length_a   8.66172031
_cell_length_b   8.67530175
_cell_length_c   21.91501979
_cell_angle_alpha   90.44582423
_cell_angle_beta   89.77138415
_cell_angle_gamma   119.92739623
_symmetry_Int_Tables_number   1
_chemical_formula_structural   Na5Ga4P5SO24
_chemical_formula_sum   'Na15 Ga12 P15 S3 O72'
_cell_volume   1427.13599725
_cell_formula_units_Z   3
loop_
 _symmetry_equiv_pos_site_id
 _symmetry_equiv_pos_as_xyz
  1  'x, y, z'
loop_
 _atom_site_type_symbol
 _atom_site_label
 _atom_site_symmetry_multiplicity
 _atom_site_fract_x
 _atom_site_fract_y
 _atom_site_fract_z
 _atom_site_occupancy
  Na  Na0  1  0.63958841  0.00015783  0.25034258  1
  Na  Na1  1  0.99746336  0.36345050  0.74981075  1
  Na  Na2  1  0.36536999  0.99947094  0.75052830  1
  Na  Na3  1  0.03094311  0.69978611  0.58291622  1
  Na  Na4  1  0.66680113  0.96786442  0.58356335  1
  Na  Na5  1  0.30131048  0.97039951  0.08217387  1
  Na  Na6  1  0.03290436  0.33487984  0.08351948  1
  Na  Na7  1  0.97153610  0.66666751  0.91665269  1
  Na  Na8  1  0.70179758  0.66860063  0.41737326  1
  Na  Na9  1  0.01281858  0.01279337  0.49942627  1
  Na  Na10  1  0.99716183  0.00501242  0.99880813  1
  Na  Na11  1  0.65824092  0.32862979  0.83428269  1
  Na  Na12  1  0.67655745  0.33743520  0.33330591  1
  Na  Na13  1  0.33537191  0.65440700  0.16763055  1
  Na  Na14  1  0.34096419  0.65676199  0.66665775  1
  Ga  Ga15  1  0.98871713  0.99463478  0.35083328  1
  Ga  Ga16  1  0.01026281  0.01380376  0.85006756  1
  Ga  Ga17  1  0.00409226  0.00580598  0.64958457  1
  Ga  Ga18  1  0.98820039  0.99703064  0.14881502  1
  Ga  Ga19  1  0.66492461  0.34024149  0.68369035  1
  Ga  Ga20  1  0.67599792  0.34895706  0.18349284  1
  Ga  Ga21  1  0.66267143  0.32043558  0.98328031  1
  Ga  Ga22  1  0.67438146  0.32690895  0.48300909  1
  Ga  Ga23  1  0.33259938  0.66425524  0.01787662  1
  Ga  Ga24  1  0.33220645  0.66974651  0.51762491  1
  Ga  Ga25  1  0.32515273  0.65845815  0.31578931  1
  Ga  Ga26  1  0.33468596  0.66856452  0.81550500  1
  P  P27  1  0.70581796  0.70322026  0.25082516  1
  P  P28  1  0.00334947  0.29372333  0.24990378  1
  P  P29  1  0.29498637  0.29498173  0.75005188  1
  P  P30  1  0.99483394  0.70854622  0.75061215  1
  P  P31  1  0.70860389  0.99564858  0.74991924  1
  P  P32  1  0.96240355  0.33331524  0.58410774  1
  P  P33  1  0.37612417  0.04808601  0.58310994  1
  P  P34  1  0.66170719  0.62053269  0.58209956  1
  P  P35  1  0.95500129  0.62642900  0.08193287  1
  P  P36  1  0.66525892  0.03958923  0.08431859  1
  P  P37  1  0.38041416  0.33678414  0.08371828  1
  P  P38  1  0.04086463  0.37154029  0.91678739  1
  P  P39  1  0.33631026  0.96182973  0.91665332  1
  P  P40  1  0.62213784  0.96066556  0.41589252  1
  P  P41  1  0.04343886  0.66806850  0.41662272  1
  S  S42  1  0.28912295  0.00088385  0.25005537  1
  S  S43  1  0.62294416  0.66675265  0.91660695  1
  S  S44  1  0.32981682  0.37162582  0.41668077  1
  O  O45  1  0.20655429  0.02905493  0.30462388  1
  O  O46  1  0.81799772  0.78256986  0.30952429  1
  O  O47  1  0.96505681  0.16996970  0.30528685  1
  O  O48  1  0.21705208  0.17358960  0.80614402  1
  O  O49  1  0.96677475  0.79170124  0.80898695  1
  O  O50  1  0.83155947  0.03656370  0.80540933  1
  O  O51  1  0.78660749  0.96524298  0.69048183  1
  O  O52  1  0.17202744  0.21504221  0.69393923  1
  O  O53  1  0.03555309  0.82621682  0.69320068  1
  O  O54  1  0.78969851  0.82802949  0.19552789  1
  O  O55  1  0.03522643  0.21383875  0.19066140  1
  O  O56  1  0.18357668  0.97156860  0.19358151  1
  O  O57  1  0.88350467  0.37324894  0.64215507  1
  O  O58  1  0.49251178  0.12193649  0.64148212  1
  O  O59  1  0.63181813  0.50791999  0.63885147  1
  O  O60  1  0.87839372  0.50386992  0.13744440  1
  O  O61  1  0.62563107  0.11825927  0.14243440  1
  O  O62  1  0.49224432  0.36621148  0.14105298  1
  O  O63  1  0.45871005  0.29497348  0.02679225  1
  O  O64  1  0.84418702  0.54696264  0.02340713  1
  O  O65  1  0.70815679  0.16225179  0.02878661  1
  O  O66  1  0.46098337  0.16251778  0.52692425  1
  O  O67  1  0.70126531  0.54271791  0.52393802  1
  O  O68  1  0.83970290  0.29220139  0.52836751  1
  O  O69  1  0.54412251  0.69734581  0.97195486  1
  O  O70  1  0.15483478  0.45518224  0.97487282  1
  O  O71  1  0.29889608  0.84232871  0.97381381  1
  O  O72  1  0.54367312  0.83936003  0.47312099  1
  O  O73  1  0.29926601  0.45150452  0.47187625  1
  O  O74  1  0.15216103  0.69783007  0.47589323  1
  O  O75  1  0.12777625  0.63342362  0.36048986  1
  O  O76  1  0.51051158  0.87382807  0.35774203  1
  O  O77  1  0.36833504  0.48684138  0.36224719  1
  O  O78  1  0.12295929  0.49117956  0.85959742  1
  O  O79  1  0.36641136  0.87768133  0.85835686  1
  O  O80  1  0.51400864  0.63640398  0.86155705  1
  O  O81  1  0.02259996  0.83646541  0.41036019  1
  O  O82  1  0.80963353  0.97540446  0.41110319  1
  O  O83  1  0.17123679  0.19434355  0.40935500  1
  O  O84  1  0.02052273  0.18551832  0.91059096  1
  O  O85  1  0.16067585  0.97005830  0.91098466  1
  O  O86  1  0.80400887  0.82592837  0.91150750  1
  O  O87  1  0.97479598  0.16251607  0.58999545  1
  O  O88  1  0.18510169  0.01839831  0.58949097  1
  O  O89  1  0.83239124  0.80949856  0.58831219  1
  O  O90  1  0.98334511  0.81643982  0.09037103  1
  O  O91  1  0.83621368  0.02575459  0.08972502  1
  O  O92  1  0.19011296  0.16657121  0.08965246  1
  O  O93  1  0.68840642  0.16515481  0.74451178  1
  O  O94  1  0.47852507  0.30759156  0.74301191  1
  O  O95  1  0.83265526  0.51878577  0.74460807  1
  O  O96  1  0.68684682  0.51810483  0.24405248  1
  O  O97  1  0.82845410  0.30342252  0.24388111  1
  O  O98  1  0.47080569  0.15914774  0.24552901  1
  O  O99  1  0.64488858  0.50762082  0.92165834  1
  O  O100  1  0.85680910  0.36292329  0.92271688  1
  O  O101  1  0.50222264  0.14735901  0.92266219  1
  O  O102  1  0.63903115  0.14508073  0.42236539  1
  O  O103  1  0.49423692  0.35857557  0.42236203  1
  O  O104  1  0.85126309  0.50385606  0.42224747  1
  O  O105  1  0.35284770  0.49958004  0.07699796  1
  O  O106  1  0.14541186  0.64649345  0.07668037  1
  O  O107  1  0.49553411  0.85558796  0.07614119  1
  O  O108  1  0.35713970  0.85781834  0.57754610  1
  O  O109  1  0.49857736  0.64782006  0.57590984  1
  O  O110  1  0.14564714  0.50411938  0.57649541  1
  O  O111  1  0.31135028  0.84101807  0.25476931  1
  O  O112  1  0.52111427  0.69339537  0.25731145  1
  O  O113  1  0.16954091  0.47955325  0.25674402  1
  O  O114  1  0.30826476  0.47881991  0.75797854  1
  O  O115  1  0.16577408  0.68917807  0.75555736  1
  O  O116  1  0.51904069  0.83201162  0.75649385  1
