# generated using pymatgen
data_Na2Zr4Ga4Si3(S3O16)3
_symmetry_space_group_name_H-M   'P 1'
_cell_length_a   17.61141063
_cell_length_b   8.80027329
_cell_length_c   22.90463594
_cell_angle_alpha   89.74676915
_cell_angle_beta   90.61918143
_cell_angle_gamma   119.98954352
_symmetry_Int_Tables_number   1
_chemical_formula_structural   Na2Zr4Ga4Si3(S3O16)3
_chemical_formula_sum   'Na6 Zr12 Ga12 Si9 S27 O144'
_cell_volume   3074.42879041
_cell_formula_units_Z   3
loop_
 _symmetry_equiv_pos_site_id
 _symmetry_equiv_pos_as_xyz
  1  'x, y, z'
loop_
 _atom_site_type_symbol
 _atom_site_label
 _atom_site_symmetry_multiplicity
 _atom_site_fract_x
 _atom_site_fract_y
 _atom_site_fract_z
 _atom_site_occupancy
  Na  Na0  1  0.99590462  0.00549912  0.49969054  1
  Na  Na1  1  0.49651805  0.98909833  0.00401969  1
  Na  Na2  1  0.33057426  0.32739967  0.84216666  1
  Na  Na3  1  0.82620706  0.32952461  0.83513968  1
  Na  Na4  1  0.32884272  0.32432737  0.33350666  1
  Na  Na5  1  0.82323320  0.32234214  0.33806933  1
  Zr  Zr6  1  0.51126380  0.01446471  0.35721853  1
  Zr  Zr7  1  0.00385698  0.99833189  0.85991701  1
  Zr  Zr8  1  0.50619276  0.02197424  0.64490979  1
  Zr  Zr9  1  0.00556935  0.98866034  0.14537464  1
  Zr  Zr10  1  0.33805549  0.33521364  0.68725125  1
  Zr  Zr11  1  0.83326410  0.33599208  0.68771571  1
  Zr  Zr12  1  0.33454951  0.33181470  0.18908932  1
  Zr  Zr13  1  0.83421665  0.33365499  0.19088101  1
  Zr  Zr14  1  0.16414575  0.67688195  0.02400374  1
  Zr  Zr15  1  0.65965074  0.66299845  0.02472035  1
  Zr  Zr16  1  0.16022579  0.65838706  0.52306625  1
  Zr  Zr17  1  0.66437963  0.65455710  0.52127912  1
  Ga  Ga18  1  0.00315808  0.00060130  0.34827535  1
  Ga  Ga19  1  0.50439651  0.00697633  0.84978595  1
  Ga  Ga20  1  0.99557662  0.01201308  0.64704096  1
  Ga  Ga21  1  0.50046235  0.96360005  0.15097474  1
  Ga  Ga22  1  0.33198206  0.33125151  0.98335803  1
  Ga  Ga23  1  0.83194191  0.33847747  0.98570064  1
  Ga  Ga24  1  0.33519025  0.32891350  0.47980487  1
  Ga  Ga25  1  0.83303574  0.32647805  0.47853752  1
  Ga  Ga26  1  0.16752383  0.67602462  0.31037889  1
  Ga  Ga27  1  0.66859733  0.66260626  0.31248883  1
  Ga  Ga28  1  0.17159551  0.68661681  0.81919486  1
  Ga  Ga29  1  0.66455524  0.65419297  0.81167657  1
  Si  Si30  1  0.14534635  0.99550678  0.25692815  1
  Si  Si31  1  0.64463284  0.98123412  0.25138956  1
  Si  Si32  1  0.64573750  0.29624308  0.75652168  1
  Si  Si33  1  0.47476463  0.33383690  0.57897467  1
  Si  Si34  1  0.96982769  0.31771151  0.58129247  1
  Si  Si35  1  0.46818878  0.62297808  0.08028255  1
  Si  Si36  1  0.97248139  0.61388164  0.08044408  1
  Si  Si37  1  0.17995479  0.97317252  0.91651731  1
  Si  Si38  1  0.67849631  0.39096688  0.41454833  1
  S  S39  1  0.35177826  0.71355480  0.25143995  1
  S  S40  1  0.85443209  0.71649943  0.25314011  1
  S  S41  1  0.00442390  0.29224700  0.25487276  1
  S  S42  1  0.50400726  0.28784223  0.24818377  1
  S  S43  1  0.14250417  0.29816643  0.75081354  1
  S  S44  1  0.00611300  0.71967702  0.74895117  1
  S  S45  1  0.50234909  0.71414151  0.75508067  1
  S  S46  1  0.35136319  0.98738645  0.75347465  1
  S  S47  1  0.85295740  0.99096443  0.75088042  1
  S  S48  1  0.18549247  0.04888080  0.58208204  1
  S  S49  1  0.69043860  0.04839006  0.58046602  1
  S  S50  1  0.33419118  0.61785442  0.58059400  1
  S  S51  1  0.84011929  0.63292237  0.58298844  1
  S  S52  1  0.34112724  0.04935044  0.08345261  1
  S  S53  1  0.83467136  0.05143400  0.08069636  1
  S  S54  1  0.19008754  0.33116821  0.08063333  1
  S  S55  1  0.68563432  0.32200418  0.08119255  1
  S  S56  1  0.31658379  0.67289561  0.91228833  1
  S  S57  1  0.80700350  0.65421540  0.91592816  1
  S  S58  1  0.01865942  0.38377337  0.91450914  1
  S  S59  1  0.52077830  0.37185354  0.91391787  1
  S  S60  1  0.66768539  0.96082185  0.91435102  1
  S  S61  1  0.30780647  0.95937355  0.41592237  1
  S  S62  1  0.81843932  0.96311743  0.41374110  1
  S  S63  1  0.16794564  0.37435699  0.41504920  1
  S  S64  1  0.02035346  0.66879503  0.41367402  1
  S  S65  1  0.51537825  0.65275589  0.41597265  1
  O  O66  1  0.10097585  0.03672701  0.31177818  1
  O  O67  1  0.60091669  0.02477633  0.30725801  1
  O  O68  1  0.40720415  0.79321131  0.30347879  1
  O  O69  1  0.90932869  0.79373365  0.30589804  1
  O  O70  1  0.48501233  0.17675733  0.30139777  1
  O  O71  1  0.98374152  0.17691242  0.30678858  1
  O  O72  1  0.10241172  0.18300014  0.80250134  1
  O  O73  1  0.60062155  0.16485237  0.81130451  1
  O  O74  1  0.48243938  0.78881598  0.80645686  1
  O  O75  1  0.99030475  0.80011493  0.80133937  1
  O  O76  1  0.40711141  0.02315159  0.80586139  1
  O  O77  1  0.91003878  0.02301601  0.80268743  1
  O  O78  1  0.39228673  0.96724754  0.70029906  1
  O  O79  1  0.89217300  0.96236314  0.69800101  1
  O  O80  1  0.08969463  0.21448233  0.69744223  1
  O  O81  1  0.58729698  0.20340234  0.69682240  1
  O  O82  1  0.01612223  0.82600244  0.69629567  1
  O  O83  1  0.51114269  0.81142852  0.70094741  1
  O  O84  1  0.38887927  0.81889282  0.19786319  1
  O  O85  1  0.89558306  0.82187892  0.20010674  1
  O  O86  1  0.01324824  0.21162869  0.20112217  1
  O  O87  1  0.51074149  0.20105987  0.19564952  1
  O  O88  1  0.08747051  0.97128084  0.19686894  1
  O  O89  1  0.58748918  0.96223246  0.19282517  1
  O  O90  1  0.43013638  0.35908943  0.63896989  1
  O  O91  1  0.93085945  0.35422424  0.64036100  1
  O  O92  1  0.24041055  0.12891213  0.63555339  1
  O  O93  1  0.74230579  0.12942663  0.63476650  1
  O  O94  1  0.31627165  0.50655563  0.63422903  1
  O  O95  1  0.82197894  0.52198298  0.63621777  1
  O  O96  1  0.42925937  0.50679871  0.13876711  1
  O  O97  1  0.92816010  0.49707318  0.13827175  1
  O  O98  1  0.32103669  0.12366393  0.13518876  1
  O  O99  1  0.81600549  0.12455976  0.13286683  1
  O  O100  1  0.24244326  0.35542429  0.13416490  1
  O  O101  1  0.74064041  0.35281633  0.13364478  1
  O  O102  1  0.22650107  0.29356796  0.02878479  1
  O  O103  1  0.72399971  0.28965449  0.02785986  1
  O  O104  1  0.41140413  0.52811892  0.02170210  1
  O  O105  1  0.91503614  0.53119913  0.02150679  1
  O  O106  1  0.35154001  0.15328750  0.03011776  1
  O  O107  1  0.84557187  0.15449379  0.02680567  1
  O  O108  1  0.22343904  0.15909097  0.52984494  1
  O  O109  1  0.72723721  0.16022523  0.52922770  1
  O  O110  1  0.34516799  0.53505463  0.52848765  1
  O  O111  1  0.85233206  0.55185416  0.53117579  1
  O  O112  1  0.41164553  0.29835209  0.52378545  1
  O  O113  1  0.91057599  0.29495049  0.52397886  1
  O  O114  1  0.27722037  0.69920515  0.96501864  1
  O  O115  1  0.76946965  0.68415179  0.96858619  1
  O  O116  1  0.07334371  0.45706382  0.96730105  1
  O  O117  1  0.57670721  0.45361983  0.96712830  1
  O  O118  1  0.15843331  0.84565366  0.97227807  1
  O  O119  1  0.65720689  0.85289755  0.96726748  1
  O  O120  1  0.26799254  0.85535965  0.46938199  1
  O  O121  1  0.77954054  0.86053145  0.46778999  1
  O  O122  1  0.15767756  0.46127015  0.46813814  1
  O  O123  1  0.66166254  0.47603566  0.47285110  1
  O  O124  1  0.07595103  0.69830011  0.46771646  1
  O  O125  1  0.56995035  0.68531265  0.46932893  1
  O  O126  1  0.06282033  0.64081515  0.36317296  1
  O  O127  1  0.55534284  0.62497514  0.36456416  1
  O  O128  1  0.25226548  0.87345257  0.36390358  1
  O  O129  1  0.76333868  0.88181030  0.36193909  1
  O  O130  1  0.18189224  0.48422473  0.36299354  1
  O  O131  1  0.68822371  0.50987854  0.35756542  1
  O  O132  1  0.06064569  0.49172681  0.86175031  1
  O  O133  1  0.56259366  0.48478709  0.86252471  1
  O  O134  1  0.19173176  0.88514346  0.85757818  1
  O  O135  1  0.68139976  0.87890985  0.86206652  1
  O  O136  1  0.25937010  0.64098510  0.85925136  1
  O  O137  1  0.75374750  0.63429601  0.86306365  1
  O  O138  1  0.01125862  0.82827631  0.40951903  1
  O  O139  1  0.50318628  0.80681735  0.41028935  1
  O  O140  1  0.39513240  0.97979861  0.40931120  1
  O  O141  1  0.90830404  0.98028335  0.40808818  1
  O  O142  1  0.08732424  0.20003694  0.41165933  1
  O  O143  1  0.58897064  0.19997320  0.40949421  1
  O  O144  1  0.00849414  0.20604044  0.90661753  1
  O  O145  1  0.51175692  0.19424547  0.90926195  1
  O  O146  1  0.09145944  0.98945535  0.90664138  1
  O  O147  1  0.58626656  0.97225386  0.91061642  1
  O  O148  1  0.40539694  0.83604560  0.90521810  1
  O  O149  1  0.89596282  0.81068669  0.90836507  1
  O  O150  1  0.48200457  0.15876333  0.58954845  1
  O  O151  1  0.98501786  0.14880065  0.58956256  1
  O  O152  1  0.09663713  0.02218608  0.59088061  1
  O  O153  1  0.60076662  0.01921505  0.58944234  1
  O  O154  1  0.41287155  0.78810231  0.59116083  1
  O  O155  1  0.92162898  0.80550094  0.59254740  1
  O  O156  1  0.48044238  0.81891237  0.08643076  1
  O  O157  1  0.98255784  0.80672906  0.08894097  1
  O  O158  1  0.42085989  0.03807434  0.09227268  1
  O  O159  1  0.91325974  0.03777678  0.08983177  1
  O  O160  1  0.10046316  0.18208903  0.08880622  1
  O  O161  1  0.59670865  0.17375587  0.08738473  1
  O  O162  1  0.34011089  0.14669375  0.74664098  1
  O  O163  1  0.84562561  0.15239727  0.74479120  1
  O  O164  1  0.23133487  0.31495914  0.74474708  1
  O  O165  1  0.74294571  0.31501388  0.74786644  1
  O  O166  1  0.42220204  0.53170757  0.74878702  1
  O  O167  1  0.92541949  0.54281812  0.74464850  1
  O  O168  1  0.34391655  0.53644742  0.24495410  1
  O  O169  1  0.84665090  0.53914248  0.24681290  1
  O  O170  1  0.42400404  0.30963786  0.24437408  1
  O  O171  1  0.92611243  0.31664333  0.24853263  1
  O  O172  1  0.24221620  0.17084051  0.24758038  1
  O  O173  1  0.74171103  0.16003824  0.24412842  1
  O  O174  1  0.32644992  0.51639938  0.91726077  1
  O  O175  1  0.81533763  0.49403937  0.92058853  1
  O  O176  1  0.43437955  0.35669974  0.92038731  1
  O  O177  1  0.92938386  0.35979090  0.91995164  1
  O  O178  1  0.26342541  0.16904887  0.92648154  1
  O  O179  1  0.74714143  0.13947785  0.92220048  1
  O  O180  1  0.31422038  0.13633583  0.42059257  1
  O  O181  1  0.82839518  0.14120298  0.41934992  1
  O  O182  1  0.24782498  0.35549641  0.42330647  1
  O  O183  1  0.76306230  0.36239613  0.42485164  1
  O  O184  1  0.42528905  0.49437551  0.42225371  1
  O  O185  1  0.93410844  0.51054858  0.42103957  1
  O  O186  1  0.18542906  0.49184354  0.07262091  1
  O  O187  1  0.68238883  0.48710357  0.07259176  1
  O  O188  1  0.06946899  0.63410383  0.07506503  1
  O  O189  1  0.56678569  0.64616386  0.07049980  1
  O  O190  1  0.26413548  0.86993224  0.07646091  1
  O  O191  1  0.75762073  0.87263745  0.07244992  1
  O  O192  1  0.18071059  0.87661645  0.57494755  1
  O  O193  1  0.68537261  0.87815542  0.57418294  1
  O  O194  1  0.25707485  0.64173267  0.57375618  1
  O  O195  1  0.76465964  0.66167112  0.57706110  1
  O  O196  1  0.06806328  0.49039100  0.57116877  1
  O  O197  1  0.57059926  0.50663839  0.57531987  1
  O  O198  1  0.15321302  0.82162427  0.26228790  1
  O  O199  1  0.65419960  0.81198507  0.26513990  1
  O  O200  1  0.26297921  0.68704880  0.25955998  1
  O  O201  1  0.76718579  0.69566114  0.25740270  1
  O  O202  1  0.08379913  0.46334245  0.26367695  1
  O  O203  1  0.58142775  0.46098073  0.25630734  1
  O  O204  1  0.15166670  0.47186006  0.76031643  1
  O  O205  1  0.65404125  0.48634361  0.76223646  1
  O  O206  1  0.08306805  0.69800012  0.75762053  1
  O  O207  1  0.58086952  0.69854242  0.76353748  1
  O  O208  1  0.26431196  0.82936971  0.75862215  1
  O  O209  1  0.76512057  0.83901392  0.75961621  1
