# generated using pymatgen
data_Na8HfZn3(PO4)6
_symmetry_space_group_name_H-M   'P 1'
_cell_length_a   9.11655837
_cell_length_b   9.11655805
_cell_length_c   22.12700228
_cell_angle_alpha   90.00000000
_cell_angle_beta   90.00000000
_cell_angle_gamma   120.00000120
_symmetry_Int_Tables_number   1
_chemical_formula_structural   Na8HfZn3(PO4)6
_chemical_formula_sum   'Na24 Hf3 Zn9 P18 O72'
_cell_volume   1592.63048947
_cell_formula_units_Z   3
loop_
 _symmetry_equiv_pos_site_id
 _symmetry_equiv_pos_as_xyz
  1  'x, y, z'
loop_
 _atom_site_type_symbol
 _atom_site_label
 _atom_site_symmetry_multiplicity
 _atom_site_fract_x
 _atom_site_fract_y
 _atom_site_fract_z
 _atom_site_occupancy
  Na  Na0  1  0.63195967  0.99892465  0.25138243  1
  Na  Na1  1  0.36696498  0.36804033  0.25138243  1
  Na  Na2  1  0.00107535  0.63303502  0.25138243  1
  Na  Na3  1  0.64531351  0.63067787  0.74211254  1
  Na  Na4  1  0.98536436  0.35468649  0.74211254  1
  Na  Na5  1  0.36932213  0.01463564  0.74211254  1
  Na  Na6  1  0.29483420  0.33503397  0.58097451  1
  Na  Na7  1  0.04020077  0.70516580  0.58097451  1
  Na  Na8  1  0.66496603  0.95979923  0.58097451  1
  Na  Na9  1  0.29371332  0.96212207  0.09167275  1
  Na  Na10  1  0.66840975  0.70628668  0.09167275  1
  Na  Na11  1  0.03787793  0.33159025  0.09167275  1
  Na  Na12  1  0.97369449  0.68173874  0.91511849  1
  Na  Na13  1  0.70804324  0.02630551  0.91511849  1
  Na  Na14  1  0.31826126  0.29195676  0.91511849  1
  Na  Na15  1  0.97871897  0.29642785  0.40817251  1
  Na  Na16  1  0.31770789  0.02128103  0.40817251  1
  Na  Na17  1  0.70357215  0.68229211  0.40817251  1
  Na  Na18  1  -0.00000000  -0.00000000  0.49648428  1
  Na  Na19  1  -0.00000000  -0.00000000  0.00601551  1
  Na  Na20  1  0.66666700  0.33333300  0.82567462  1
  Na  Na21  1  0.66666700  0.33333300  0.32379364  1
  Na  Na22  1  0.33333300  0.66666700  0.17254357  1
  Na  Na23  1  0.33333300  0.66666700  0.65554938  1
  Hf  Hf24  1  0.66666700  0.33333300  0.98338541  1
  Hf  Hf25  1  0.66666700  0.33333300  0.48269167  1
  Hf  Hf26  1  0.33333300  0.66666700  0.81569869  1
  Zn  Zn27  1  -0.00000000  -0.00000000  0.34078678  1
  Zn  Zn28  1  -0.00000000  -0.00000000  0.84313676  1
  Zn  Zn29  1  -0.00000000  -0.00000000  0.65138389  1
  Zn  Zn30  1  -0.00000000  -0.00000000  0.16068278  1
  Zn  Zn31  1  0.66666700  0.33333300  0.67637301  1
  Zn  Zn32  1  0.66666700  0.33333300  0.18246024  1
  Zn  Zn33  1  0.33333300  0.66666700  0.01762221  1
  Zn  Zn34  1  0.33333300  0.66666700  0.50902593  1
  Zn  Zn35  1  0.33333300  0.66666700  0.31837778  1
  P  P36  1  0.29843507  0.99952351  0.24971668  1
  P  P37  1  0.70108844  0.70156493  0.24971668  1
  P  P38  1  0.00047649  0.29891156  0.24971668  1
  P  P39  1  0.29552503  0.29561605  0.75104480  1
  P  P40  1  0.00009103  0.70447497  0.75104480  1
  P  P41  1  0.70438395  -0.00009103  0.75104480  1
  P  P42  1  0.96483213  0.33376524  0.58596624  1
  P  P43  1  0.36893411  0.03516787  0.58596624  1
  P  P44  1  0.66623476  0.63106589  0.58596624  1
  P  P45  1  0.96487627  0.62941981  0.08412151  1
  P  P46  1  0.66454454  0.03512373  0.08412151  1
  P  P47  1  0.37058019  0.33545546  0.08412151  1
  P  P48  1  0.62971419  0.66807099  0.91860900  1
  P  P49  1  0.03835580  0.37028581  0.91860900  1
  P  P50  1  0.33192901  0.96164420  0.91860900  1
  P  P51  1  0.62935914  0.96220057  0.41787571  1
  P  P52  1  0.33284042  0.37064086  0.41787571  1
  P  P53  1  0.03779943  0.66715958  0.41787571  1
  O  O54  1  0.21631519  0.02802835  0.30667470  1
  O  O55  1  0.81171316  0.78368481  0.30667470  1
  O  O56  1  0.97197165  0.18828684  0.30667470  1
  O  O57  1  0.21771653  0.19056460  0.80911218  1
  O  O58  1  0.97284807  0.78228347  0.80911218  1
  O  O59  1  0.80943540  0.02715193  0.80911218  1
  O  O60  1  0.77893684  0.96221793  0.69494569  1
  O  O61  1  0.18328110  0.22106316  0.69494569  1
  O  O62  1  0.03778207  0.81671890  0.69494569  1
  O  O63  1  0.78114487  0.81069462  0.19195351  1
  O  O64  1  0.02954975  0.21885513  0.19195351  1
  O  O65  1  0.18930538  0.97045025  0.19195351  1
  O  O66  1  0.88465587  0.36140344  0.64345448  1
  O  O67  1  0.47674857  0.11534413  0.64345448  1
  O  O68  1  0.63859656  0.52325143  0.64345448  1
  O  O69  1  0.88002550  0.51805122  0.13900591  1
  O  O70  1  0.63802673  0.11997450  0.13900591  1
  O  O71  1  0.48194878  0.36197327  0.13900591  1
  O  O72  1  0.46354594  0.31384669  0.02559352  1
  O  O73  1  0.85030175  0.53645406  0.02559352  1
  O  O74  1  0.68615331  0.14969825  0.02559352  1
  O  O75  1  0.46540146  0.15196882  0.53055003  1
  O  O76  1  0.68656836  0.53459854  0.53055003  1
  O  O77  1  0.84803118  0.31343164  0.53055003  1
  O  O78  1  0.54683276  0.69339683  0.97388352  1
  O  O79  1  0.14656307  0.45316724  0.97388352  1
  O  O80  1  0.30660317  0.85343693  0.97388352  1
  O  O81  1  0.55128780  0.85678358  0.47595192  1
  O  O82  1  0.30549478  0.44871220  0.47595192  1
  O  O83  1  0.14321642  0.69450522  0.47595192  1
  O  O84  1  0.11187961  0.62885263  0.36185461  1
  O  O85  1  0.51697202  0.88812039  0.36185461  1
  O  O86  1  0.37114737  0.48302798  0.36185461  1
  O  O87  1  0.12397828  0.48538719  0.86139010  1
  O  O88  1  0.36140791  0.87602172  0.86139010  1
  O  O89  1  0.51461281  0.63859209  0.86139010  1
  O  O90  1  0.01199124  0.82212879  0.41298826  1
  O  O91  1  0.81013755  0.98800876  0.41298826  1
  O  O92  1  0.17787121  0.18986245  0.41298826  1
  O  O93  1  0.01273631  0.19063161  0.91112655  1
  O  O94  1  0.17789530  0.98726369  0.91112655  1
  O  O95  1  0.80936839  0.82210470  0.91112655  1
  O  O96  1  0.97444400  0.16889456  0.58646462  1
  O  O97  1  0.19445056  0.02555600  0.58646462  1
  O  O98  1  0.83110544  0.80554944  0.58646462  1
  O  O99  1  0.97565780  0.80413844  0.08380690  1
  O  O100  1  0.82848064  0.02434220  0.08380690  1
  O  O101  1  0.19586156  0.17151936  0.08380690  1
  O  O102  1  0.67866002  0.15522636  0.74660064  1
  O  O103  1  0.47656734  0.32133998  0.74660064  1
  O  O104  1  0.84477364  0.52343266  0.74660064  1
  O  O105  1  0.68400055  0.52315556  0.24599126  1
  O  O106  1  0.83915600  0.31599945  0.24599126  1
  O  O107  1  0.47684444  0.16084400  0.24599126  1
  O  O108  1  0.64210552  0.50098913  0.92027008  1
  O  O109  1  0.85888461  0.35789448  0.92027008  1
  O  O110  1  0.49901087  0.14111539  0.92027008  1
  O  O111  1  0.64841157  0.14507484  0.42498047  1
  O  O112  1  0.49666426  0.35158843  0.42498047  1
  O  O113  1  0.85492516  0.50333574  0.42498047  1
  O  O114  1  0.35267339  0.49451860  0.07759793  1
  O  O115  1  0.14184422  0.64732661  0.07759793  1
  O  O116  1  0.50548140  0.85815578  0.07759793  1
  O  O117  1  0.35121883  0.85804922  0.57966106  1
  O  O118  1  0.50682939  0.64878117  0.57966106  1
  O  O119  1  0.14195078  0.49317061  0.57966106  1
  O  O120  1  0.31547294  0.83824635  0.25426594  1
  O  O121  1  0.52277241  0.68452706  0.25426594  1
  O  O122  1  0.16175365  0.47722759  0.25426594  1
  O  O123  1  0.31451393  0.47846480  0.75788023  1
  O  O124  1  0.16394987  0.68548607  0.75788023  1
  O  O125  1  0.52153520  0.83605013  0.75788023  1
