# generated using pymatgen
data_Cr(GeO3)2
_symmetry_space_group_name_H-M   'P 1'
_cell_length_a   5.57243852
_cell_length_b   6.54917051
_cell_length_c   6.81061155
_cell_angle_alpha   82.97114673
_cell_angle_beta   74.57244631
_cell_angle_gamma   75.21421479
_symmetry_Int_Tables_number   1
_chemical_formula_structural   Cr(GeO3)2
_chemical_formula_sum   'Cr2 Ge4 O12'
_cell_volume   231.26641140
_cell_formula_units_Z   2
loop_
 _symmetry_equiv_pos_site_id
 _symmetry_equiv_pos_as_xyz
  1  'x, y, z'
loop_
 _atom_site_type_symbol
 _atom_site_label
 _atom_site_symmetry_multiplicity
 _atom_site_fract_x
 _atom_site_fract_y
 _atom_site_fract_z
 _atom_site_occupancy
  Cr  Cr0  1  0.73957100  0.90826400  0.09483600  1
  Cr  Cr1  1  0.26042900  0.09173600  0.90516500  1
  Ge  Ge2  1  0.76690700  0.37647800  0.21340400  1
  Ge  Ge3  1  0.73448600  0.79670700  0.60414500  1
  Ge  Ge4  1  0.23309300  0.62352200  0.78659600  1
  Ge  Ge5  1  0.26551400  0.20329300  0.39585500  1
  O  O6  1  0.44751800  0.39522500  0.34435800  1
  O  O7  1  0.04534800  0.65632200  0.61273800  1
  O  O8  1  0.55248200  0.60477500  0.65564200  1
  O  O9  1  0.95465200  0.34367800  0.38726200  1
  O  O10  1  0.24238700  0.06627100  0.63258900  1
  O  O11  1  0.25134800  0.36859600  0.91814500  1
  O  O12  1  0.75761300  0.93372900  0.36741200  1
  O  O13  1  0.74865200  0.63140500  0.08185500  1
  O  O14  1  0.87168500  0.17587700  0.03117000  1
  O  O15  1  0.61562600  0.96216000  0.82328800  1
  O  O16  1  0.12831500  0.82412300  0.96883000  1
  O  O17  1  0.38437400  0.03784000  0.17671200  1
