# generated using pymatgen
data_MgV4(OF)6
_symmetry_space_group_name_H-M   'P 1'
_cell_length_a   5.09278083
_cell_length_b   7.52759128
_cell_length_c   5.42373426
_cell_angle_alpha   86.09401742
_cell_angle_beta   90.44479243
_cell_angle_gamma   90.81331753
_symmetry_Int_Tables_number   1
_chemical_formula_structural   MgV4(OF)6
_chemical_formula_sum   'Mg1 V4 O6 F6'
_cell_volume   207.41760697
_cell_formula_units_Z   1
loop_
 _symmetry_equiv_pos_site_id
 _symmetry_equiv_pos_as_xyz
  1  'x, y, z'
loop_
 _atom_site_type_symbol
 _atom_site_label
 _atom_site_symmetry_multiplicity
 _atom_site_fract_x
 _atom_site_fract_y
 _atom_site_fract_z
 _atom_site_occupancy
  Mg  Mg0  1  0.49461900  0.21311800  0.91572300  1
  V  V1  1  0.51579900  0.50805800  0.48462100  1
  V  V2  1  0.49752700  0.01942700  0.48017100  1
  V  V3  1  0.03441900  0.51945300  0.99256700  1
  V  V4  1  0.98932800  0.97945000  0.00529100  1
  O  O5  1  0.69930200  0.53521300  0.22529300  1
  O  O6  1  0.70535200  0.97328700  0.82157500  1
  O  O7  1  0.58293500  0.24022500  0.51972600  1
  O  O8  1  0.30052800  0.06007500  0.17813100  1
  O  O9  1  0.31217100  0.43886300  0.81116000  1
  O  O10  1  0.09764900  0.74318600  0.01688000  1
  F  F11  1  0.86812300  0.25894300  0.00863200  1
  F  F12  1  0.80664300  0.93879500  0.31918900  1
  F  F13  1  0.81498300  0.56283600  0.70007700  1
  F  F14  1  0.39994400  0.76073000  0.51069700  1
  F  F15  1  0.19684500  0.44073900  0.30798200  1
  F  F16  1  0.19633200  0.05760200  0.70228500  1
