# generated using pymatgen
data_Fe2GeO4
_symmetry_space_group_name_H-M   'P 1'
_cell_length_a   5.92709196
_cell_length_b   5.92710462
_cell_length_c   5.92712507
_cell_angle_alpha   59.99992976
_cell_angle_beta   59.99986832
_cell_angle_gamma   60.00038495
_symmetry_Int_Tables_number   1
_chemical_formula_structural   Fe2GeO4
_chemical_formula_sum   'Fe4 Ge2 O8'
_cell_volume   147.23598061
_cell_formula_units_Z   2
loop_
 _symmetry_equiv_pos_site_id
 _symmetry_equiv_pos_as_xyz
  1  'x, y, z'
loop_
 _atom_site_type_symbol
 _atom_site_label
 _atom_site_symmetry_multiplicity
 _atom_site_fract_x
 _atom_site_fract_y
 _atom_site_fract_z
 _atom_site_occupancy
  Fe  Fe0  1  0.50000000  -0.00000000  0.50000000  1
  Fe  Fe1  1  0.00000000  0.50000000  0.50000000  1
  Fe  Fe2  1  0.50000000  0.50000000  0.00000000  1
  Fe  Fe3  1  0.50000000  0.50000000  0.50000000  1
  Ge  Ge4  1  0.87500061  0.87499839  0.87499613  1
  Ge  Ge5  1  0.12499939  0.12500161  0.12500387  1
  O  O6  1  0.75230963  0.75230689  0.75229885  1
  O  O7  1  0.24769332  0.24769534  0.75691225  1
  O  O8  1  0.24768629  0.75691230  0.24770188  1
  O  O9  1  0.75691134  0.24768897  0.24770057  1
  O  O10  1  0.75231371  0.24308770  0.75229812  1
  O  O11  1  0.24308866  0.75231103  0.75229943  1
  O  O12  1  0.24769037  0.24769311  0.24770115  1
  O  O13  1  0.75230668  0.75230466  0.24308775  1
