# generated using pymatgen
data_Na2Zr4Si5Sn4S7O48
_symmetry_space_group_name_H-M   'P 1'
_cell_length_a   17.87062869
_cell_length_b   8.92815024
_cell_length_c   23.35332040
_cell_angle_alpha   89.99883242
_cell_angle_beta   90.51215996
_cell_angle_gamma   120.14140156
_symmetry_Int_Tables_number   1
_chemical_formula_structural   Na2Zr4Si5Sn4S7O48
_chemical_formula_sum   'Na6 Zr12 Si15 Sn12 S21 O144'
_cell_volume   3222.08409050
_cell_formula_units_Z   3
loop_
 _symmetry_equiv_pos_site_id
 _symmetry_equiv_pos_as_xyz
  1  'x, y, z'
loop_
 _atom_site_type_symbol
 _atom_site_label
 _atom_site_symmetry_multiplicity
 _atom_site_fract_x
 _atom_site_fract_y
 _atom_site_fract_z
 _atom_site_occupancy
  Na  Na0  1  0.99369691  0.99941204  0.49960002  1
  Na  Na1  1  0.49318318  0.99138939  0.99328577  1
  Na  Na2  1  0.34198291  0.35167931  0.83382468  1
  Na  Na3  1  0.83443876  0.34345069  0.82959313  1
  Na  Na4  1  0.33713789  0.32965062  0.33100502  1
  Na  Na5  1  0.83533833  0.33063073  0.33787018  1
  Zr  Zr6  1  0.00043739  0.98764442  0.35724232  1
  Zr  Zr7  1  0.49834109  0.99944869  0.85222404  1
  Zr  Zr8  1  0.00048529  0.99682067  0.64785533  1
  Zr  Zr9  1  0.49948215  0.00463238  0.14628978  1
  Zr  Zr10  1  0.83998202  0.34917547  0.68963953  1
  Zr  Zr11  1  0.34142888  0.33107997  0.18869634  1
  Zr  Zr12  1  0.34078069  0.35841119  0.97536062  1
  Zr  Zr13  1  0.84151518  0.32519231  0.97828267  1
  Zr  Zr14  1  0.34243939  0.35851992  0.48131200  1
  Zr  Zr15  1  0.83881112  0.32032999  0.47776963  1
  Zr  Zr16  1  0.16093952  0.67800814  0.30977432  1
  Zr  Zr17  1  0.65489654  0.64198457  0.80633480  1
  Si  Si18  1  0.14302130  0.00972806  0.24787729  1
  Si  Si19  1  0.50568079  0.29302769  0.25384981  1
  Si  Si20  1  0.64286436  0.27688437  0.74750182  1
  Si  Si21  1  0.00574332  0.71769594  0.75389892  1
  Si  Si22  1  0.49599010  0.70720867  0.74967700  1
  Si  Si23  1  0.97996845  0.33015772  0.58479389  1
  Si  Si24  1  0.33515553  0.63672518  0.58503048  1
  Si  Si25  1  0.48108454  0.62915120  0.08415814  1
  Si  Si26  1  0.83421927  0.03473479  0.08448813  1
  Si  Si27  1  0.30991718  0.67254372  0.91476158  1
  Si  Si28  1  0.02351570  0.37128648  0.91401864  1
  Si  Si29  1  0.52511408  0.37579927  0.91875699  1
  Si  Si30  1  0.80807360  0.94692593  0.41460653  1
  Si  Si31  1  0.02442371  0.66426465  0.41958915  1
  Si  Si32  1  0.52208074  0.67363003  0.41468807  1
  Sn  Sn33  1  0.49941612  0.00221623  0.35529883  1
  Sn  Sn34  1  0.99842230  0.99548646  0.85509274  1
  Sn  Sn35  1  0.50211767  0.99135917  0.64847758  1
  Sn  Sn36  1  0.00227682  0.00265797  0.14468116  1
  Sn  Sn37  1  0.33809853  0.35129722  0.68418741  1
  Sn  Sn38  1  0.83279575  0.32612971  0.18088887  1
  Sn  Sn39  1  0.16715240  0.65344197  0.01448839  1
  Sn  Sn40  1  0.66217575  0.66688969  0.02249462  1
  Sn  Sn41  1  0.16258743  0.66076886  0.52543122  1
  Sn  Sn42  1  0.66638159  0.68078331  0.51686034  1
  Sn  Sn43  1  0.65997826  0.66266087  0.31537862  1
  Sn  Sn44  1  0.16224490  0.65925306  0.81382768  1
  S  S45  1  0.64786626  0.00368214  0.25018628  1
  S  S46  1  0.35507078  0.71008290  0.25118142  1
  S  S47  1  0.85221928  0.70359015  0.24813223  1
  S  S48  1  0.99792848  0.28871169  0.24935624  1
  S  S49  1  0.14701321  0.29043887  0.75063650  1
  S  S50  1  0.35076114  0.00068323  0.74815041  1
  S  S51  1  0.85549489  -0.00049204  0.75136932  1
  S  S52  1  0.48280079  0.33474691  0.58325244  1
  S  S53  1  0.19127839  0.04704380  0.58364592  1
  S  S54  1  0.68744786  0.04142825  0.58318971  1
  S  S55  1  0.82825049  0.62153806  0.58115322  1
  S  S56  1  0.98218801  0.62758039  0.08294187  1
  S  S57  1  0.32770649  0.03427656  0.08130362  1
  S  S58  1  0.18762566  0.33519378  0.08372043  1
  S  S59  1  0.68961548  0.33631994  0.08238134  1
  S  S60  1  0.81154981  0.66894111  0.91753623  1
  S  S61  1  0.16537804  0.95438782  0.91725607  1
  S  S62  1  0.66718555  0.95607634  0.91635445  1
  S  S63  1  0.31145889  0.95461163  0.41753624  1
  S  S64  1  0.16775130  0.37950836  0.41615543  1
  S  S65  1  0.66586245  0.37727256  0.41724686  1
  O  O66  1  0.09599109  0.03230074  0.30380865  1
  O  O67  1  0.60986986  0.03315595  0.30215526  1
  O  O68  1  0.41009132  0.78616323  0.30324741  1
  O  O69  1  0.90750377  0.78112052  0.29983977  1
  O  O70  1  0.48407008  0.16574679  0.30959590  1
  O  O71  1  0.98240708  0.18203765  0.30038351  1
  O  O72  1  0.10787341  0.18454768  0.80250267  1
  O  O73  1  0.59867463  0.16465985  0.80450404  1
  O  O74  1  0.47811627  0.79146605  0.80562553  1
  O  O75  1  0.98427783  0.80190818  0.80944520  1
  O  O76  1  0.40598146  0.03754482  0.79981315  1
  O  O77  1  0.91213709  0.03767909  0.80315527  1
  O  O78  1  0.38898703  0.97339586  0.69632585  1
  O  O79  1  0.89826551  0.97786482  0.69985413  1
  O  O80  1  0.09232048  0.20778095  0.69876026  1
  O  O81  1  0.58252237  0.20309729  0.68951924  1
  O  O82  1  0.01433667  0.83256074  0.69693216  1
  O  O83  1  0.51272779  0.81482977  0.69117316  1
  O  O84  1  0.39605556  0.81761723  0.20007926  1
  O  O85  1  0.89115114  0.80875645  0.19657246  1
  O  O86  1  0.00999626  0.21223285  0.19699127  1
  O  O87  1  0.51448091  0.19569453  0.19726036  1
  O  O88  1  0.08109143  0.96390918  0.19088716  1
  O  O89  1  0.59447705  0.98012885  0.19853810  1
  O  O90  1  0.44392337  0.36732595  0.63474717  1
  O  O91  1  0.93046459  0.35401115  0.63876384  1
  O  O92  1  0.24371462  0.12546311  0.63683746  1
  O  O93  1  0.74152227  0.12269878  0.63421508  1
  O  O94  1  0.31115272  0.50205481  0.63869205  1
  O  O95  1  0.81719696  0.52016645  0.63348740  1
  O  O96  1  0.43150970  0.50711988  0.13922779  1
  O  O97  1  0.94391712  0.51984233  0.13608599  1
  O  O98  1  0.31695093  0.11385516  0.13409719  1
  O  O99  1  0.81376966  0.11755321  0.14175353  1
  O  O100  1  0.24068462  0.36015907  0.13534087  1
  O  O101  1  0.74161950  0.36425573  0.13707542  1
  O  O102  1  0.22503778  0.30491718  0.03217897  1
  O  O103  1  0.73081576  0.30757559  0.03290829  1
  O  O104  1  0.41831142  0.54071515  0.02830070  1
  O  O105  1  0.92512928  0.54375965  0.03285039  1
  O  O106  1  0.34230886  0.14228187  0.03086028  1
  O  O107  1  0.85092019  0.16626250  0.03077697  1
  O  O108  1  0.23116176  0.15436490  0.53244621  1
  O  O109  1  0.72770895  0.14596843  0.53105375  1
  O  O110  1  0.35052592  0.53863663  0.52963028  1
  O  O111  1  0.84234404  0.54218060  0.53019143  1
  O  O112  1  0.42607027  0.30705678  0.53190436  1
  O  O113  1  0.91920715  0.29681421  0.52739512  1
  O  O114  1  0.27321036  0.70990458  0.97455565  1
  O  O115  1  0.77418442  0.69808032  0.96979011  1
  O  O116  1  0.07511670  0.44985348  0.97482902  1
  O  O117  1  0.58568137  0.46380621  0.97588729  1
  O  O118  1  0.14927579  0.84655217  0.96975322  1
  O  O119  1  0.65674218  0.85723826  0.96972235  1
  O  O120  1  0.27292070  0.84886480  0.46865476  1
  O  O121  1  0.77198053  0.83370749  0.47334060  1
  O  O122  1  0.15599900  0.45795123  0.46815795  1
  O  O123  1  0.65057588  0.45410523  0.46906018  1
  O  O124  1  0.08785418  0.70562993  0.47443741  1
  O  O125  1  0.57671015  0.70058682  0.47381440  1
  O  O126  1  0.06729663  0.63468702  0.36193748  1
  O  O127  1  0.55879189  0.62887266  0.35820907  1
  O  O128  1  0.25846713  0.87192714  0.36482067  1
  O  O129  1  0.75161308  0.86247866  0.35610233  1
  O  O130  1  0.18161613  0.48339871  0.36434319  1
  O  O131  1  0.68256976  0.48348007  0.36509034  1
  O  O132  1  0.06108519  0.49278056  0.85855732  1
  O  O133  1  0.56664245  0.49811149  0.86327499  1
  O  O134  1  0.18193598  0.88054891  0.86574693  1
  O  O135  1  0.68357164  0.88267775  0.86587149  1
  O  O136  1  0.25070169  0.63997888  0.85753339  1
  O  O137  1  0.76001261  0.64404790  0.86579255  1
  O  O138  1  0.01504937  0.83711519  0.41260758  1
  O  O139  1  0.51077980  0.84281162  0.40559922  1
  O  O140  1  0.39822761  0.97385085  0.41039914  1
  O  O141  1  0.90606555  0.98027039  0.40728006  1
  O  O142  1  0.08858584  0.20618814  0.41041066  1
  O  O143  1  0.58746784  0.20424270  0.40991801  1
  O  O144  1  0.01108169  0.17897897  0.90569049  1
  O  O145  1  0.51399382  0.18482858  0.91297130  1
  O  O146  1  0.08735096  0.97081476  0.91003976  1
  O  O147  1  0.58959328  0.97355623  0.91208935  1
  O  O148  1  0.40660238  0.83644170  0.91124147  1
  O  O149  1  0.90004420  0.82349677  0.91178878  1
  O  O150  1  0.48898970  0.17897340  0.58972599  1
  O  O151  1  0.98987429  0.15767989  0.59114948  1
  O  O152  1  0.10391946  0.02900088  0.58991985  1
  O  O153  1  0.60095575  0.02235658  0.58758207  1
  O  O154  1  0.41971849  0.82597809  0.59256807  1
  O  O155  1  0.90659100  0.79802146  0.58854950  1
  O  O156  1  0.49021749  0.82051163  0.09304930  1
  O  O157  1  0.98816642  0.79708641  0.08980694  1
  O  O158  1  0.40579805  0.01460812  0.08952776  1
  O  O159  1  0.92122101  0.02227982  0.09494892  1
  O  O160  1  0.09927681  0.18121574  0.09016741  1
  O  O161  1  0.60302546  0.17863360  0.08970915  1
  O  O162  1  0.34040033  0.15823814  0.74062391  1
  O  O163  1  0.84675175  0.15500495  0.74400519  1
  O  O164  1  0.23231429  0.29991991  0.74400657  1
  O  O165  1  0.73847763  0.29745721  0.73995733  1
  O  O166  1  0.41075673  0.50651163  0.74630831  1
  O  O167  1  0.91899567  0.52624422  0.74654896  1
  O  O168  1  0.34494496  0.53659222  0.24406299  1
  O  O169  1  0.84495252  0.52498593  0.24142124  1
  O  O170  1  0.41909792  0.31130638  0.24666966  1
  O  O171  1  0.92016748  0.31434339  0.24335685  1
  O  O172  1  0.23854070  0.17666098  0.24076734  1
  O  O173  1  0.73601636  0.16671713  0.24450221  1
  O  O174  1  0.31225163  0.49084142  0.92010731  1
  O  O175  1  0.82095946  0.51228437  0.92557725  1
  O  O176  1  0.42734498  0.35153239  0.92477139  1
  O  O177  1  0.92686269  0.35253853  0.92159879  1
  O  O178  1  0.24174747  0.12707213  0.92580844  1
  O  O179  1  0.74396412  0.13617065  0.92430061  1
  O  O180  1  0.31920294  0.12760720  0.42314895  1
  O  O181  1  0.81317835  0.13531659  0.41969158  1
  O  O182  1  0.24325114  0.35209958  0.42300626  1
  O  O183  1  0.74214352  0.35667098  0.42475366  1
  O  O184  1  0.42538297  0.49909385  0.42155939  1
  O  O185  1  0.92623379  0.49973888  0.42344156  1
  O  O186  1  0.17826308  0.49273227  0.07814935  1
  O  O187  1  0.68141536  0.48974084  0.07723424  1
  O  O188  1  0.06866677  0.64725397  0.07522485  1
  O  O189  1  0.57439822  0.64713463  0.07714571  1
  O  O190  1  0.24915887  0.85978634  0.07555419  1
  O  O191  1  0.75307812  0.84681079  0.07107815  1
  O  O192  1  0.18207750  0.87556975  0.57770193  1
  O  O193  1  0.67953549  0.86566982  0.57764301  1
  O  O194  1  0.25156509  0.65428115  0.57087407  1
  O  O195  1  0.74984013  0.63853100  0.57484100  1
  O  O196  1  0.07252558  0.50107007  0.57689057  1
  O  O197  1  0.56932281  0.49150734  0.57442108  1
  O  O198  1  0.15379742  0.83898038  0.25780852  1
  O  O199  1  0.65729282  0.85062650  0.25527057  1
  O  O200  1  0.26987643  0.69373145  0.25923437  1
  O  O201  1  0.76688763  0.68352524  0.25660142  1
  O  O202  1  0.07641344  0.45999646  0.25657590  1
  O  O203  1  0.59305456  0.48034423  0.25941979  1
  O  O204  1  0.15674054  0.46297421  0.75520723  1
  O  O205  1  0.65814672  0.47089188  0.75664454  1
  O  O206  1  0.09256950  0.70499793  0.75922853  1
  O  O207  1  0.58241852  0.69336374  0.75742752  1
  O  O208  1  0.26501300  0.84697026  0.75701752  1
  O  O209  1  0.77253911  0.84665194  0.75887859  1
