# generated using pymatgen
data_Na7Y3MgSi3(SO8)3
_symmetry_space_group_name_H-M   'P 1'
_cell_length_a   9.39604794
_cell_length_b   9.34732491
_cell_length_c   23.24431482
_cell_angle_alpha   89.88341886
_cell_angle_beta   89.89773513
_cell_angle_gamma   119.68795855
_symmetry_Int_Tables_number   1
_chemical_formula_structural   Na7Y3MgSi3(SO8)3
_chemical_formula_sum   'Na21 Y9 Mg3 Si9 S9 O72'
_cell_volume   1773.51064219
_cell_formula_units_Z   3
loop_
 _symmetry_equiv_pos_site_id
 _symmetry_equiv_pos_as_xyz
  1  'x, y, z'
loop_
 _atom_site_type_symbol
 _atom_site_label
 _atom_site_symmetry_multiplicity
 _atom_site_fract_x
 _atom_site_fract_y
 _atom_site_fract_z
 _atom_site_occupancy
  Na  Na0  1  0.64076246  0.99498696  0.24035406  1
  Na  Na1  1  0.39489074  0.37886435  0.23681834  1
  Na  Na2  1  0.97657658  0.63185548  0.25552658  1
  Na  Na3  1  0.62378676  0.62464314  0.73601314  1
  Na  Na4  1  0.99283600  0.34036945  0.74757209  1
  Na  Na5  1  0.38942047  0.02644011  0.75564408  1
  Na  Na6  1  0.01089331  0.69399893  0.57481622  1
  Na  Na7  1  0.66920620  0.95076029  0.58569709  1
  Na  Na8  1  0.32569034  0.99287687  0.07937313  1
  Na  Na9  1  0.65338461  0.69474552  0.09485966  1
  Na  Na10  1  0.68294681  0.03261292  0.91655569  1
  Na  Na11  1  0.33622405  0.28659324  0.91959401  1
  Na  Na12  1  0.95655941  0.29651337  0.40908182  1
  Na  Na13  1  0.32806807  0.01021537  0.41346588  1
  Na  Na14  1  0.72332755  0.69011376  0.41476588  1
  Na  Na15  1  0.97907460  0.97511535  0.49264981  1
  Na  Na16  1  0.01794409  0.01618995  0.00584978  1
  Na  Na17  1  0.64687505  0.31066428  0.82687821  1
  Na  Na18  1  0.68195639  0.34938925  0.33023015  1
  Na  Na19  1  0.35356265  0.65903003  0.16105935  1
  Na  Na20  1  0.35900583  0.64856569  0.66792519  1
  Y  Y21  1  0.00915972  0.00434736  0.84732059  1
  Y  Y22  1  0.99846944  0.00589178  0.65178180  1
  Y  Y23  1  0.98922280  0.00690682  0.14778621  1
  Y  Y24  1  0.65993683  0.32227491  0.98706204  1
  Y  Y25  1  0.67159690  0.34516584  0.48331630  1
  Y  Y26  1  0.33051225  0.67177802  0.02105892  1
  Y  Y27  1  0.34734154  0.66986310  0.51575976  1
  Y  Y28  1  0.34280833  0.67715400  0.31865968  1
  Y  Y29  1  0.34107414  0.67822156  0.81576740  1
  Mg  Mg30  1  0.97389109  0.96867568  0.35160698  1
  Mg  Mg31  1  0.64808588  0.33301550  0.68519245  1
  Mg  Mg32  1  0.65855639  0.33606972  0.17608429  1
  Si  Si33  1  0.70029935  0.68969709  0.25064859  1
  Si  Si34  1  0.30661988  0.30409910  0.75052915  1
  Si  Si35  1  0.69911810  0.00911652  0.74896838  1
  Si  Si36  1  0.66873872  0.63339226  0.58728731  1
  Si  Si37  1  0.66534333  0.03665367  0.08655618  1
  Si  Si38  1  0.36869958  0.33304345  0.08542008  1
  Si  Si39  1  0.33102395  0.97231311  0.91730945  1
  Si  Si40  1  0.64350687  0.97453098  0.41585877  1
  Si  Si41  1  0.03658406  0.67220116  0.41687054  1
  S  S42  1  0.29412832  0.00375263  0.25183891  1
  S  S43  1  0.00003360  0.29631988  0.25406177  1
  S  S44  1  0.99576363  0.69488371  0.74781347  1
  S  S45  1  0.95967978  0.33574308  0.58551723  1
  S  S46  1  0.37230187  0.03686258  0.58495863  1
  S  S47  1  0.95911966  0.62524149  0.08720334  1
  S  S48  1  0.63240752  0.66778783  0.91692649  1
  S  S49  1  0.03444823  0.36944564  0.91500235  1
  S  S50  1  0.32590065  0.36048502  0.41458269  1
  O  O51  1  0.21293610  0.02269579  0.30357178  1
  O  O52  1  0.81135064  0.77816012  0.30784011  1
  O  O53  1  0.98556223  0.19859912  0.30622675  1
  O  O54  1  0.22478954  0.19279541  0.80879255  1
  O  O55  1  0.97028967  0.77736124  0.79800868  1
  O  O56  1  0.81002881  0.03162213  0.80674620  1
  O  O57  1  0.78228236  0.96993274  0.69325133  1
  O  O58  1  0.18127418  0.20810493  0.69757911  1
  O  O59  1  0.02705740  0.79849052  0.69575666  1
  O  O60  1  0.78521865  0.80855348  0.19442560  1
  O  O61  1  0.02632272  0.21844334  0.20275859  1
  O  O62  1  0.19603983  0.98399572  0.19973539  1
  O  O63  1  0.87539960  0.35075556  0.63653367  1
  O  O64  1  0.47424154  0.12139274  0.63530902  1
  O  O65  1  0.66174579  0.52672485  0.64350177  1
  O  O66  1  0.87936976  0.52830091  0.13927417  1
  O  O67  1  0.65086349  0.13262803  0.14311783  1
  O  O68  1  0.48327911  0.36195840  0.14177203  1
  O  O69  1  0.45287337  0.31328415  0.02599963  1
  O  O70  1  0.86117338  0.54882862  0.03507324  1
  O  O71  1  0.68580731  0.13496468  0.02631109  1
  O  O72  1  0.44737517  0.12917398  0.53115667  1
  O  O73  1  0.68642967  0.55002340  0.52752800  1
  O  O74  1  0.86202859  0.31469240  0.53243227  1
  O  O75  1  0.54751094  0.68516621  0.96817307  1
  O  O76  1  0.14021725  0.45338585  0.96465747  1
  O  O77  1  0.31927682  0.86461538  0.97426217  1
  O  O78  1  0.55707670  0.85427448  0.47209710  1
  O  O79  1  0.30111959  0.44132544  0.46544589  1
  O  O80  1  0.14598703  0.69020314  0.47472278  1
  O  O81  1  0.11888399  0.63463959  0.36064811  1
  O  O82  1  0.52513608  0.88818373  0.35991793  1
  O  O83  1  0.35875849  0.46629884  0.36305194  1
  O  O84  1  0.11226095  0.45895315  0.86112700  1
  O  O85  1  0.35107765  0.88377566  0.85937944  1
  O  O86  1  0.52965457  0.64244008  0.86483438  1
  O  O87  1  0.02922575  0.84359049  0.41177322  1
  O  O88  1  0.82807723  0.99867382  0.40998785  1
  O  O89  1  0.17944586  0.19745942  0.40761063  1
  O  O90  1  0.01463406  0.19925458  0.91350472  1
  O  O91  1  0.17140601  0.00111527  0.91642597  1
  O  O92  1  0.79183888  0.82184192  0.91166672  1
  O  O93  1  0.97731121  0.18627801  0.58771966  1
  O  O94  1  0.20302134  0.01000783  0.58915569  1
  O  O95  1  0.83915482  0.81865140  0.58566489  1
  O  O96  1  0.97897279  0.79422433  0.09077583  1
  O  O97  1  0.81530268  0.99251289  0.08603877  1
  O  O98  1  0.19418907  0.15691178  0.08906530  1
  O  O99  1  0.68730730  0.17719104  0.74090166  1
  O  O100  1  0.48894152  0.32387649  0.74523332  1
  O  O101  1  0.85089294  0.52987430  0.74245738  1
  O  O102  1  0.68637410  0.50656838  0.24483591  1
  O  O103  1  0.84934921  0.31004307  0.24840368  1
  O  O104  1  0.46209376  0.14758899  0.24757791  1
  O  O105  1  0.65317901  0.52151446  0.92143977  1
  O  O106  1  0.86948786  0.35175292  0.91963849  1
  O  O107  1  0.50280671  0.15568905  0.91704568  1
  O  O108  1  0.65137824  0.15353669  0.42176914  1
  O  O109  1  0.47315516  0.34050657  0.42197172  1
  O  O110  1  0.84927263  0.51114605  0.42008982  1
  O  O111  1  0.35312786  0.50003367  0.08039860  1
  O  O112  1  0.12613699  0.64613300  0.08249419  1
  O  O113  1  0.49188433  0.85409529  0.08442576  1
  O  O114  1  0.35857181  0.86965797  0.58193123  1
  O  O115  1  0.50893077  0.66346021  0.58533767  1
  O  O116  1  0.12258861  0.48759460  0.58043960  1
  O  O117  1  0.30737833  0.84914246  0.25503940  1
  O  O118  1  0.51263948  0.66835247  0.25298236  1
  O  O119  1  0.14672712  0.46634143  0.25651841  1
  O  O120  1  0.31856996  0.48600935  0.75382079  1
  O  O121  1  0.14371318  0.67670713  0.75545511  1
  O  O122  1  0.51348307  0.84510806  0.75257080  1
