# generated using pymatgen
data_MgV4P2O13
_symmetry_space_group_name_H-M   'P 1'
_cell_length_a   5.40483479
_cell_length_b   5.07458853
_cell_length_c   9.01462434
_cell_angle_alpha   95.23211539
_cell_angle_beta   99.23052774
_cell_angle_gamma   80.78938872
_symmetry_Int_Tables_number   1
_chemical_formula_structural   MgV4P2O13
_chemical_formula_sum   'Mg1 V4 P2 O13'
_cell_volume   240.35351532
_cell_formula_units_Z   1
loop_
 _symmetry_equiv_pos_site_id
 _symmetry_equiv_pos_as_xyz
  1  'x, y, z'
loop_
 _atom_site_type_symbol
 _atom_site_label
 _atom_site_symmetry_multiplicity
 _atom_site_fract_x
 _atom_site_fract_y
 _atom_site_fract_z
 _atom_site_occupancy
  Mg  Mg0  1  0.74687700  0.08421400  0.73288500  1
  V  V1  1  0.24448000  0.03973600  0.67359400  1
  V  V2  1  0.02112000  0.86882800  0.34564900  1
  V  V3  1  0.56412700  0.51117400  0.95348300  1
  V  V4  1  0.39933700  0.26017100  0.30286800  1
  P  P5  1  0.03047900  0.93662500  0.00710800  1
  P  P6  1  0.76016400  0.59145100  0.58307200  1
  O  O7  1  0.94363900  0.80338600  0.57324600  1
  O  O8  1  0.23584200  0.83694300  0.89937100  1
  O  O9  1  0.10404900  0.52673200  0.30749500  1
  O  O10  1  0.27004800  0.07004000  0.46750600  1
  O  O11  1  0.43158700  0.29428000  0.78327000  1
  O  O12  1  0.16449900  0.98533700  0.17127900  1
  O  O13  1  0.58699700  0.75010400  0.69867100  1
  O  O14  1  0.60486700  0.52550000  0.43557500  1
  O  O15  1  0.46930100  0.42543100  0.10627800  1
  O  O16  1  0.70709700  0.02137900  0.29938900  1
  O  O17  1  0.88726700  0.20366000  0.94384500  1
  O  O18  1  0.91700300  0.34329600  0.65761600  1
  O  O19  1  0.83920000  0.74199100  0.00127500  1
