# generated using pymatgen
data_Na4Ca3ZrP2(SO6)4
_symmetry_space_group_name_H-M   'P 1'
_cell_length_a   9.23169606
_cell_length_b   9.24735664
_cell_length_c   23.80147542
_cell_angle_alpha   90.22442946
_cell_angle_beta   90.02667991
_cell_angle_gamma   119.87469409
_symmetry_Int_Tables_number   1
_chemical_formula_structural   Na4Ca3ZrP2(SO6)4
_chemical_formula_sum   'Na12 Ca9 Zr3 P6 S12 O72'
_cell_volume   1761.87698361
_cell_formula_units_Z   3
loop_
 _symmetry_equiv_pos_site_id
 _symmetry_equiv_pos_as_xyz
  1  'x, y, z'
loop_
 _atom_site_type_symbol
 _atom_site_label
 _atom_site_symmetry_multiplicity
 _atom_site_fract_x
 _atom_site_fract_y
 _atom_site_fract_z
 _atom_site_occupancy
  Na  Na0  1  0.63494541  0.99818630  0.25449346  1
  Na  Na1  1  0.36267135  0.36294413  0.25011088  1
  Na  Na2  1  0.31116982  0.34281910  0.59125657  1
  Na  Na3  1  0.66606791  0.95395217  0.58141861  1
  Na  Na4  1  0.98132048  0.68108105  0.91354024  1
  Na  Na5  1  0.31996594  0.29647777  0.90989098  1
  Na  Na6  1  0.98108481  0.97825186  0.49661886  1
  Na  Na7  1  0.98885270  0.00061860  0.99597010  1
  Na  Na8  1  0.65609802  0.32199259  0.82350855  1
  Na  Na9  1  0.67798576  0.33574124  0.33719025  1
  Na  Na10  1  0.32052727  0.66602158  0.16055530  1
  Na  Na11  1  0.32985737  0.65968007  0.67169909  1
  Ca  Ca12  1  0.99340227  0.99610597  0.35366713  1
  Ca  Ca13  1  0.99626241  0.00395739  0.84743354  1
  Ca  Ca14  1  0.00148976  0.99303428  0.65551762  1
  Ca  Ca15  1  0.99993545  0.99566937  0.14471042  1
  Ca  Ca16  1  0.66425697  0.34246568  0.68724523  1
  Ca  Ca17  1  0.67512573  0.34088517  0.18060990  1
  Ca  Ca18  1  0.33747242  0.67012854  0.01657095  1
  Ca  Ca19  1  0.33587725  0.67096019  0.51288794  1
  Ca  Ca20  1  0.33290022  0.67626281  0.32451435  1
  Zr  Zr21  1  0.66623973  0.32662200  0.97839927  1
  Zr  Zr22  1  0.66971342  0.33849696  0.48158173  1
  Zr  Zr23  1  0.33605222  0.66143808  0.81843317  1
  P  P24  1  0.30193987  0.30657740  0.75212692  1
  P  P25  1  0.66532434  0.62715147  0.58169892  1
  P  P26  1  0.62837452  0.66268412  0.91878710  1
  P  P27  1  0.04052710  0.37616721  0.91823697  1
  P  P28  1  0.33464743  0.95985709  0.91738240  1
  P  P29  1  0.63819910  0.97685759  0.41891204  1
  S  S30  1  0.29877370  0.00131388  0.24935617  1
  S  S31  1  0.69891956  0.70131746  0.24989421  1
  S  S32  1  0.00219398  0.29562843  0.24978700  1
  S  S33  1  0.00844685  0.69855379  0.75386626  1
  S  S34  1  0.69094547  0.99359612  0.75021248  1
  S  S35  1  0.95821650  0.33267949  0.58239723  1
  S  S36  1  0.37868857  0.04540123  0.58185726  1
  S  S37  1  0.95986005  0.62594838  0.08047588  1
  S  S38  1  0.66685962  0.04107894  0.08326985  1
  S  S39  1  0.37389886  0.33320546  0.08244307  1
  S  S40  1  0.33787685  0.36450871  0.41780956  1
  S  S41  1  0.02754520  0.66163950  0.41873457  1
  O  O42  1  0.21928240  0.02317041  0.29984332  1
  O  O43  1  0.79776840  0.77953441  0.30063150  1
  O  O44  1  0.97935952  0.19315388  0.29999800  1
  O  O45  1  0.21526413  0.20473665  0.80438384  1
  O  O46  1  0.98642180  0.77577933  0.80472609  1
  O  O47  1  0.79513633  0.01222822  0.79861052  1
  O  O48  1  0.75961293  0.96644587  0.69698287  1
  O  O49  1  0.20324665  0.23635575  0.69634179  1
  O  O50  1  0.03230311  0.79914514  0.70302983  1
  O  O51  1  0.77891224  0.80255718  0.19970119  1
  O  O52  1  0.02408293  0.21557779  0.19909420  1
  O  O53  1  0.20081176  0.98361229  0.19863850  1
  O  O54  1  0.88033118  0.35037531  0.63300028  1
  O  O55  1  0.47909835  0.12066274  0.63225435  1
  O  O56  1  0.64142956  0.52090505  0.63289898  1
  O  O57  1  0.87916185  0.53125875  0.13161215  1
  O  O58  1  0.65297033  0.11707610  0.13636217  1
  O  O59  1  0.46571747  0.34685262  0.13513812  1
  O  O60  1  0.47062880  0.32196288  0.03246679  1
  O  O61  1  0.85507854  0.53173580  0.02951228  1
  O  O62  1  0.67709064  0.15098920  0.03427074  1
  O  O63  1  0.46928935  0.15250185  0.53141794  1
  O  O64  1  0.67767574  0.52611793  0.52912504  1
  O  O65  1  0.85108242  0.31653748  0.53169298  1
  O  O66  1  0.55080593  0.68691360  0.97103090  1
  O  O67  1  0.14538674  0.45502132  0.97014806  1
  O  O68  1  0.30453012  0.85529414  0.96938783  1
  O  O69  1  0.55096323  0.87269086  0.47075175  1
  O  O70  1  0.31728534  0.44546926  0.46764513  1
  O  O71  1  0.12679829  0.67915233  0.46832857  1
  O  O72  1  0.09638166  0.63142813  0.36704754  1
  O  O73  1  0.53854967  0.90835646  0.36341720  1
  O  O74  1  0.36343091  0.46242025  0.36576643  1
  O  O75  1  0.12529116  0.49431224  0.86606239  1
  O  O76  1  0.36225437  0.87424686  0.86500603  1
  O  O77  1  0.51040423  0.63168514  0.86651647  1
  O  O78  1  0.00573665  0.80835279  0.41374534  1
  O  O79  1  0.81466655  0.00074269  0.41503293  1
  O  O80  1  0.19409056  0.19501820  0.41265908  1
  O  O81  1  0.01803024  0.20296087  0.90980047  1
  O  O82  1  0.18638750  0.99073839  0.90961151  1
  O  O83  1  0.80834106  0.80027027  0.90994684  1
  O  O84  1  0.96775680  0.17513386  0.58318843  1
  O  O85  1  0.21510481  0.03996977  0.58391072  1
  O  O86  1  0.81925941  0.80483602  0.58185082  1
  O  O87  1  0.96918682  0.79004862  0.08114693  1
  O  O88  1  0.82133182  0.03097006  0.08239994  1
  O  O89  1  0.20918842  0.17939501  0.08231802  1
  O  O90  1  0.67033234  0.14134494  0.74585988  1
  O  O91  1  0.47896035  0.33137706  0.74924714  1
  O  O92  1  0.86374562  0.52913389  0.74805600  1
  O  O93  1  0.67039768  0.52756906  0.24539165  1
  O  O94  1  0.84762285  0.30925249  0.24525083  1
  O  O95  1  0.47006579  0.15644580  0.24555832  1
  O  O96  1  0.63406994  0.49100597  0.92520478  1
  O  O97  1  0.86383171  0.36785364  0.92505593  1
  O  O98  1  0.49586974  0.14142886  0.92557931  1
  O  O99  1  0.65384947  0.15609381  0.42813743  1
  O  O100  1  0.49484646  0.35080604  0.42467001  1
  O  O101  1  0.85521687  0.50704863  0.42522439  1
  O  O102  1  0.35737033  0.48316301  0.07857240  1
  O  O103  1  0.12699330  0.64337274  0.07745686  1
  O  O104  1  0.51714850  0.87562045  0.07848370  1
  O  O105  1  0.35951709  0.87792616  0.57503589  1
  O  O106  1  0.50400939  0.64113295  0.57608021  1
  O  O107  1  0.12895045  0.47586309  0.57572673  1
  O  O108  1  0.32649695  0.85546037  0.25336111  1
  O  O109  1  0.52782003  0.68544749  0.25430605  1
  O  O110  1  0.15552579  0.46307608  0.25531334  1
  O  O111  1  0.31744539  0.48701462  0.76098424  1
  O  O112  1  0.16531320  0.68558830  0.75977312  1
  O  O113  1  0.52056984  0.83901561  0.75814584  1
