# generated using pymatgen
data_MgMn6Nb4O18
_symmetry_space_group_name_H-M   'P 1'
_cell_length_a   5.24798830
_cell_length_b   5.56757754
_cell_length_c   15.02827636
_cell_angle_alpha   85.04992752
_cell_angle_beta   93.64749090
_cell_angle_gamma   120.74550792
_symmetry_Int_Tables_number   1
_chemical_formula_structural   MgMn6Nb4O18
_chemical_formula_sum   'Mg1 Mn6 Nb4 O18'
_cell_volume   375.88206578
_cell_formula_units_Z   1
loop_
 _symmetry_equiv_pos_site_id
 _symmetry_equiv_pos_as_xyz
  1  'x, y, z'
loop_
 _atom_site_type_symbol
 _atom_site_label
 _atom_site_symmetry_multiplicity
 _atom_site_fract_x
 _atom_site_fract_y
 _atom_site_fract_z
 _atom_site_occupancy
  Mg  Mg0  1  0.65940900  0.38641600  0.53547900  1
  Mn  Mn1  1  0.70580700  0.33576100  0.77828700  1
  Mn  Mn2  1  0.65360600  0.31713900  0.98177100  1
  Mn  Mn3  1  0.70042800  0.34806600  0.34674400  1
  Mn  Mn4  1  0.33521300  0.72259700  0.52420900  1
  Mn  Mn5  1  0.33262300  0.66027000  0.00532500  1
  Mn  Mn6  1  0.66749800  0.30624400  0.17046500  1
  Nb  Nb7  1  0.97195100  0.97952400  0.85851600  1
  Nb  Nb8  1  0.99748900  0.96297100  0.15267900  1
  Nb  Nb9  1  0.00564200  0.02582100  0.64935400  1
  Nb  Nb10  1  0.99897000  0.00024200  0.36249000  1
  O  O11  1  0.35139800  0.29679000  0.08966100  1
  O  O12  1  0.65839000  0.67537900  0.92604400  1
  O  O13  1  0.93526900  0.22928400  0.24784600  1
  O  O14  1  0.34181200  0.07928300  0.24916100  1
  O  O15  1  0.97702100  0.64535500  0.09641100  1
  O  O16  1  0.68857800  0.70981700  0.59057100  1
  O  O17  1  0.72229500  0.02674300  0.75001100  1
  O  O18  1  0.95208800  0.30578300  0.89684400  1
  O  O19  1  0.97830000  0.67449700  0.43068000  1
  O  O20  1  0.32299700  0.03565800  0.59079400  1
  O  O21  1  0.30596200  0.24096900  0.75553300  1
  O  O22  1  0.99412200  0.33516800  0.58663900  1
  O  O23  1  0.78873000  0.69808700  0.25570200  1
  O  O24  1  0.29068600  0.97931300  0.92911800  1
  O  O25  1  0.70204000  0.01612500  0.08511100  1
  O  O26  1  0.69321100  0.00092100  0.41889500  1
  O  O27  1  0.33874400  0.28497800  0.41960100  1
  O  O28  1  0.93805800  0.72496600  0.76271000  1
