# generated using pymatgen
data_MgCrP2O7
_symmetry_space_group_name_H-M   'P 1'
_cell_length_a   5.38348679
_cell_length_b   5.39686492
_cell_length_c   4.58324722
_cell_angle_alpha   80.71530591
_cell_angle_beta   99.12618146
_cell_angle_gamma   77.07251000
_symmetry_Int_Tables_number   1
_chemical_formula_structural   MgCrP2O7
_chemical_formula_sum   'Mg1 Cr1 P2 O7'
_cell_volume   125.43446565
_cell_formula_units_Z   1
loop_
 _symmetry_equiv_pos_site_id
 _symmetry_equiv_pos_as_xyz
  1  'x, y, z'
loop_
 _atom_site_type_symbol
 _atom_site_label
 _atom_site_symmetry_multiplicity
 _atom_site_fract_x
 _atom_site_fract_y
 _atom_site_fract_z
 _atom_site_occupancy
  Mg  Mg0  1  0.77042688  0.77894639  0.00971300  1
  Cr  Cr1  1  0.14466699  0.15962001  0.01437110  1
  P  P2  1  0.65559781  0.24716451  0.41844961  1
  P  P3  1  0.24125516  0.66344671  0.59849564  1
  O  O4  1  0.06937390  0.55163790  0.79662406  1
  O  O5  1  0.79160758  0.42406844  0.25068179  1
  O  O6  1  0.82783841  0.09327967  0.72402670  1
  O  O7  1  0.42168878  0.79588317  0.76356796  1
  O  O8  1  0.39719016  0.40732176  0.50451217  1
  O  O9  1  0.08399191  0.83742539  0.29478739  1
  O  O10  1  0.54287243  0.07521707  0.22199358  1
