# generated using pymatgen
data_NiH20S2(NO7)2
_symmetry_space_group_name_H-M   'P 1'
_cell_length_a   12.23879303
_cell_length_b   6.22669207
_cell_length_c   9.01996571
_cell_angle_alpha   72.81376614
_cell_angle_beta   90.00000000
_cell_angle_gamma   90.00000000
_symmetry_Int_Tables_number   1
_chemical_formula_structural   NiH20S2(NO7)2
_chemical_formula_sum   'Ni2 H40 S4 N4 O28'
_cell_volume   656.69406823
_cell_formula_units_Z   2
loop_
 _symmetry_equiv_pos_site_id
 _symmetry_equiv_pos_as_xyz
  1  'x, y, z'
loop_
 _atom_site_type_symbol
 _atom_site_label
 _atom_site_symmetry_multiplicity
 _atom_site_fract_x
 _atom_site_fract_y
 _atom_site_fract_z
 _atom_site_occupancy
  Ni  Ni0  1  0.50000000  0.00000000  0.50000000  1
  Ni  Ni1  1  -0.00000000  0.00000000  0.00000000  1
  H  H2  1  0.35472251  0.32212229  0.47294980  1
  H  H3  1  0.85472251  0.67787771  0.02705020  1
  H  H4  1  0.64527749  0.67787771  0.52705020  1
  H  H5  1  0.14527749  0.32212229  0.97294980  1
  H  H6  1  0.44479964  0.34068045  0.59108694  1
  H  H7  1  0.94479964  0.65931955  0.90891306  1
  H  H8  1  0.55520036  0.65931955  0.40891306  1
  H  H9  1  0.05520036  0.34068045  0.09108694  1
  H  H10  1  0.68638433  0.00054251  0.63949315  1
  H  H11  1  0.18638433  0.99945749  0.86050685  1
  H  H12  1  0.31361567  0.99945749  0.36050685  1
  H  H13  1  0.81361567  0.00054251  0.13949315  1
  H  H14  1  0.59485267  0.94513428  0.76797641  1
  H  H15  1  0.09485267  0.05486572  0.73202359  1
  H  H16  1  0.40514733  0.05486572  0.23202359  1
  H  H17  1  0.90514733  0.94513428  0.26797641  1
  H  H18  1  0.62062837  0.09212923  0.24659043  1
  H  H19  1  0.12062837  0.90787077  0.25340957  1
  H  H20  1  0.37937163  0.90787077  0.75340957  1
  H  H21  1  0.87937163  0.09212923  0.74659043  1
  H  H22  1  0.58704862  0.31957437  0.28180804  1
  H  H23  1  0.08704862  0.68042563  0.21819196  1
  H  H24  1  0.41295138  0.68042563  0.71819196  1
  H  H25  1  0.91295138  0.31957437  0.78180804  1
  H  H26  1  0.92134374  0.38054240  0.32719392  1
  H  H27  1  0.42134374  0.61945760  0.17280608  1
  H  H28  1  0.07865626  0.61945760  0.67280608  1
  H  H29  1  0.57865626  0.38054240  0.82719392  1
  H  H30  1  0.81982268  0.45788498  0.42943930  1
  H  H31  1  0.31982268  0.54211502  0.07056070  1
  H  H32  1  0.18017732  0.54211502  0.57056070  1
  H  H33  1  0.68017732  0.45788498  0.92943930  1
  H  H34  1  0.79094532  0.39207213  0.26585730  1
  H  H35  1  0.29094532  0.60792787  0.23414270  1
  H  H36  1  0.20905468  0.60792787  0.73414270  1
  H  H37  1  0.70905468  0.39207213  0.76585730  1
  H  H38  1  0.83066913  0.19290659  0.42945326  1
  H  H39  1  0.33066913  0.80709341  0.07054674  1
  H  H40  1  0.66933087  0.19290659  0.92945326  1
  H  H41  1  0.16933087  0.80709341  0.57054674  1
  S  S42  1  0.63044636  0.73764410  0.08846323  1
  S  S43  1  0.13044636  0.26235590  0.41153677  1
  S  S44  1  0.36955364  0.26235590  0.91153677  1
  S  S45  1  0.86955364  0.73764410  0.58846323  1
  N  N46  1  0.84053769  0.35629748  0.36157665  1
  N  N47  1  0.34053769  0.64370252  0.13842335  1
  N  N48  1  0.15946231  0.64370252  0.63842335  1
  N  N49  1  0.65946231  0.35629748  0.86157665  1
  O  O50  1  0.43338375  0.30192317  0.49444879  1
  O  O51  1  0.93338375  0.69807683  0.00555121  1
  O  O52  1  0.56661625  0.69807683  0.50555121  1
  O  O53  1  0.06661625  0.30192317  0.99444879  1
  O  O54  1  0.61150421  0.03878965  0.66129390  1
  O  O55  1  0.11150421  0.96121035  0.83870610  1
  O  O56  1  0.38849579  0.96121035  0.33870610  1
  O  O57  1  0.88849579  0.03878965  0.16129390  1
  O  O58  1  0.60883629  0.16227363  0.32920187  1
  O  O59  1  0.10883629  0.83772637  0.17079813  1
  O  O60  1  0.39116371  0.83772637  0.67079813  1
  O  O61  1  0.89116371  0.16227363  0.82920187  1
  O  O62  1  0.67520150  0.94488639  0.11468795  1
  O  O63  1  0.17520150  0.05511361  0.38531205  1
  O  O64  1  0.32479850  0.05511361  0.88531205  1
  O  O65  1  0.82479850  0.94488639  0.61468795  1
  O  O66  1  0.56358479  0.61363717  0.22411194  1
  O  O67  1  0.06358479  0.38636283  0.27588806  1
  O  O68  1  0.43641521  0.38636283  0.77588806  1
  O  O69  1  0.93641521  0.61363717  0.72411194  1
  O  O70  1  0.56321748  0.79095252  0.94838187  1
  O  O71  1  0.06321748  0.20904748  0.55161813  1
  O  O72  1  0.43678252  0.20904748  0.05161813  1
  O  O73  1  0.93678252  0.79095252  0.44838187  1
  O  O74  1  0.72308396  0.58985010  0.07420011  1
  O  O75  1  0.22308396  0.41014990  0.42579989  1
  O  O76  1  0.27691604  0.41014990  0.92579989  1
  O  O77  1  0.77691604  0.58985010  0.57420011  1
