# generated using pymatgen
data_Na4MgTiSi2SO12
_symmetry_space_group_name_H-M   'P 1'
_cell_length_a   9.11884184
_cell_length_b   9.05913967
_cell_length_c   22.04802638
_cell_angle_alpha   91.00429725
_cell_angle_beta   90.00000000
_cell_angle_gamma   120.21824486
_symmetry_Int_Tables_number   1
_chemical_formula_structural   Na4MgTiSi2SO12
_chemical_formula_sum   'Na24 Mg6 Ti6 Si12 S6 O72'
_cell_volume   1573.54197756
_cell_formula_units_Z   6
loop_
 _symmetry_equiv_pos_site_id
 _symmetry_equiv_pos_as_xyz
  1  'x, y, z'
loop_
 _atom_site_type_symbol
 _atom_site_label
 _atom_site_symmetry_multiplicity
 _atom_site_fract_x
 _atom_site_fract_y
 _atom_site_fract_z
 _atom_site_occupancy
  Na  Na0  1  0.64385325  0.01787409  0.25339558  1
  Na  Na1  1  0.36515470  0.35653203  0.24611667  1
  Na  Na2  1  0.99230817  0.62223734  0.24235684  1
  Na  Na3  1  0.62992916  0.62223734  0.74235684  1
  Na  Na4  1  0.99137733  0.35653203  0.74611667  1
  Na  Na5  1  0.37402084  0.01787409  0.75339558  1
  Na  Na6  1  0.31052025  0.35120709  0.58672858  1
  Na  Na7  1  0.03182170  0.68986503  0.57944967  1
  Na  Na8  1  0.65897517  0.95557034  0.57568984  1
  Na  Na9  1  0.29659616  0.95557034  0.07568984  1
  Na  Na10  1  0.65804433  0.68986503  0.07944967  1
  Na  Na11  1  0.04068784  0.35120709  0.08672858  1
  Na  Na12  1  0.97718625  0.68454109  0.92006258  1
  Na  Na13  1  0.69848770  0.02319903  0.91278367  1
  Na  Na14  1  0.32564117  0.28890434  0.90902384  1
  Na  Na15  1  0.96326216  0.28890434  0.40902384  1
  Na  Na16  1  0.32471033  0.02319903  0.41278367  1
  Na  Na17  1  0.70735384  0.68454109  0.42006258  1
  Na  Na18  1  0.98534746  0.98781880  0.49583848  1
  Na  Na19  1  0.00247134  0.98781880  0.99583848  1
  Na  Na20  1  0.65201446  0.32115180  0.82917148  1
  Na  Na21  1  0.66913834  0.32115180  0.32917148  1
  Na  Na22  1  0.31868046  0.65448580  0.16250548  1
  Na  Na23  1  0.33580434  0.65448580  0.66250548  1
  Mg  Mg24  1  0.99946578  0.00234748  0.35109754  1
  Mg  Mg25  1  0.00288170  0.00234748  0.85109754  1
  Mg  Mg26  1  0.66613278  0.33568048  0.68443054  1
  Mg  Mg27  1  0.66954870  0.33568048  0.18443054  1
  Mg  Mg28  1  0.33279878  0.66901448  0.01776454  1
  Mg  Mg29  1  0.33621470  0.66901448  0.51776454  1
  Ti  Ti30  1  0.98145232  0.01069550  0.64731081  1
  Ti  Ti31  1  0.02924318  0.01069550  0.14731081  1
  Ti  Ti32  1  0.64811932  0.34402850  0.98064381  1
  Ti  Ti33  1  0.69591018  0.34402850  0.48064381  1
  Ti  Ti34  1  0.31478532  0.67736250  0.31397781  1
  Ti  Ti35  1  0.36257618  0.67736250  0.81397781  1
  Si  Si36  1  0.29857088  0.00486991  0.25353885  1
  Si  Si37  1  0.00184238  0.29276578  0.25264096  1
  Si  Si38  1  0.29092341  0.29276578  0.75264096  1
  Si  Si39  1  0.70629903  0.00486991  0.75353885  1
  Si  Si40  1  0.96523788  0.33820291  0.58687185  1
  Si  Si41  1  0.66850938  0.62609878  0.58597396  1
  Si  Si42  1  0.95759041  0.62609878  0.08597396  1
  Si  Si43  1  0.37296603  0.33820291  0.08687185  1
  Si  Si44  1  0.63190388  0.67153691  0.92020585  1
  Si  Si45  1  0.33517538  0.95943278  0.91930796  1
  Si  Si46  1  0.62425641  0.95943278  0.41930796  1
  Si  Si47  1  0.03963203  0.67153691  0.42020585  1
  S  S48  1  0.70754443  0.71024918  0.25019102  1
  S  S49  1  0.00270475  0.71024918  0.75019102  1
  S  S50  1  0.37421143  0.04358218  0.58352402  1
  S  S51  1  0.66937175  0.04358218  0.08352402  1
  S  S52  1  0.04087743  0.37691618  0.91685802  1
  S  S53  1  0.33603775  0.37691618  0.41685802  1
  O  O54  1  0.20880959  0.02904968  0.31160599  1
  O  O55  1  0.80902366  0.79011446  0.30526219  1
  O  O56  1  0.96935444  0.17863502  0.31102052  1
  O  O57  1  0.20928058  0.17863502  0.81102052  1
  O  O58  1  0.98109081  0.79011446  0.80526219  1
  O  O59  1  0.82024009  0.02904968  0.81160599  1
  O  O60  1  0.79678895  0.97032683  0.69151674  1
  O  O61  1  0.16052081  0.19032463  0.69195737  1
  O  O62  1  0.02663140  0.81514757  0.69553297  1
  O  O63  1  0.78851617  0.81514757  0.19553297  1
  O  O64  1  0.02980382  0.19032463  0.19195737  1
  O  O65  1  0.17353787  0.97032683  0.19151674  1
  O  O66  1  0.87547659  0.36238268  0.64493899  1
  O  O67  1  0.47569066  0.12344746  0.63859519  1
  O  O68  1  0.63602144  0.51196802  0.64435352  1
  O  O69  1  0.87594758  0.51196802  0.14435352  1
  O  O70  1  0.64775781  0.12344746  0.13859519  1
  O  O71  1  0.48690709  0.36238268  0.14493899  1
  O  O72  1  0.46345595  0.30365983  0.02484974  1
  O  O73  1  0.82718781  0.52365763  0.02529037  1
  O  O74  1  0.69329840  0.14848057  0.02886597  1
  O  O75  1  0.45518317  0.14848057  0.52886597  1
  O  O76  1  0.69647082  0.52365763  0.52529037  1
  O  O77  1  0.84020487  0.30365983  0.52484974  1
  O  O78  1  0.54214259  0.69571668  0.97827299  1
  O  O79  1  0.14235666  0.45678146  0.97192919  1
  O  O80  1  0.30268744  0.84530202  0.97768752  1
  O  O81  1  0.54261358  0.84530202  0.47768752  1
  O  O82  1  0.31442381  0.45678146  0.47192919  1
  O  O83  1  0.15357309  0.69571668  0.47827299  1
  O  O84  1  0.13012195  0.63699383  0.35818374  1
  O  O85  1  0.49385381  0.85699163  0.35862437  1
  O  O86  1  0.35996440  0.48181457  0.36219997  1
  O  O87  1  0.12184917  0.48181457  0.86219997  1
  O  O88  1  0.36313682  0.85699163  0.85862437  1
  O  O89  1  0.50687087  0.63699383  0.85818374  1
  O  O90  1  0.01035434  0.83142366  0.41198491  1
  O  O91  1  0.81472251  0.99018045  0.41179565  1
  O  O92  1  0.18348579  0.20346221  0.41216893  1
  O  O93  1  0.01997642  0.20346221  0.91216893  1
  O  O94  1  0.17545794  0.99018045  0.91179565  1
  O  O95  1  0.82106932  0.83142366  0.91198491  1
  O  O96  1  0.97272778  0.15566726  0.58781985  1
  O  O97  1  0.20108854  0.02543499  0.58737208  1
  O  O98  1  0.85212774  0.81484315  0.58947605  1
  O  O99  1  0.96271541  0.81484315  0.08947605  1
  O  O100  1  0.82434645  0.02543499  0.08737208  1
  O  O101  1  0.18293948  0.15566726  0.08781985  1
  O  O102  1  0.67702134  0.16475666  0.74531791  1
  O  O103  1  0.48138951  0.32351345  0.74512865  1
  O  O104  1  0.85015279  0.53679521  0.74550193  1
  O  O105  1  0.68664342  0.53679521  0.24550193  1
  O  O106  1  0.84212494  0.32351345  0.24512865  1
  O  O107  1  0.48773632  0.16475666  0.24531791  1
  O  O108  1  0.63939478  0.48900026  0.92115285  1
  O  O109  1  0.86775554  0.35876799  0.92070508  1
  O  O110  1  0.51879474  0.14817615  0.92280905  1
  O  O111  1  0.62938241  0.14817615  0.42280905  1
  O  O112  1  0.49101345  0.35876799  0.42070508  1
  O  O113  1  0.84960648  0.48900026  0.42115285  1
  O  O114  1  0.34368734  0.49809066  0.07865191  1
  O  O115  1  0.14805551  0.65684745  0.07846265  1
  O  O116  1  0.51681879  0.87012921  0.07883593  1
  O  O117  1  0.35330942  0.87012921  0.57883593  1
  O  O118  1  0.50879094  0.65684745  0.57846265  1
  O  O119  1  0.15440232  0.49809066  0.57865191  1
  O  O120  1  0.30606078  0.82233426  0.25448685  1
  O  O121  1  0.53442154  0.69210199  0.25403908  1
  O  O122  1  0.18546074  0.48151015  0.25614305  1
  O  O123  1  0.29604841  0.48151015  0.75614305  1
  O  O124  1  0.15767945  0.69210199  0.75403908  1
  O  O125  1  0.51627248  0.82233426  0.75448685  1
