# generated using pymatgen
data_Na7Y2Nb2Si5PO24
_symmetry_space_group_name_H-M   'P 1'
_cell_length_a   9.31971111
_cell_length_b   9.32871930
_cell_length_c   22.70792127
_cell_angle_alpha   90.24486816
_cell_angle_beta   89.77153509
_cell_angle_gamma   119.97659738
_symmetry_Int_Tables_number   1
_chemical_formula_structural   Na7Y2Nb2Si5PO24
_chemical_formula_sum   'Na21 Y6 Nb6 Si15 P3 O72'
_cell_volume   1710.13303149
_cell_formula_units_Z   3
loop_
 _symmetry_equiv_pos_site_id
 _symmetry_equiv_pos_as_xyz
  1  'x, y, z'
loop_
 _atom_site_type_symbol
 _atom_site_label
 _atom_site_symmetry_multiplicity
 _atom_site_fract_x
 _atom_site_fract_y
 _atom_site_fract_z
 _atom_site_occupancy
  Na  Na0  1  0.65116548  0.01638820  0.25026563  1
  Na  Na1  1  0.37110603  0.35972628  0.24683198  1
  Na  Na2  1  0.98445741  0.62769120  0.24690208  1
  Na  Na3  1  0.63823220  0.62656442  0.74847612  1
  Na  Na4  1  0.98404763  0.35211833  0.74754734  1
  Na  Na5  1  0.37044336  0.01681876  0.74702632  1
  Na  Na6  1  0.31127723  0.34419962  0.58218089  1
  Na  Na7  1  0.03785586  0.69418826  0.57960370  1
  Na  Na8  1  0.65303329  0.95932123  0.58037916  1
  Na  Na9  1  0.30024967  0.96264970  0.07650663  1
  Na  Na10  1  0.03669145  0.34692945  0.08101862  1
  Na  Na11  1  0.98185179  0.68048628  0.91410031  1
  Na  Na12  1  0.31721037  0.29103228  0.91360570  1
  Na  Na13  1  0.32096739  0.02300350  0.41400812  1
  Na  Na14  1  0.70793471  0.67980171  0.41334200  1
  Na  Na15  1  0.99194738  0.00423149  0.49613494  1
  Na  Na16  1  0.98315530  0.99861063  0.99769711  1
  Na  Na17  1  0.66765899  0.32141727  0.83079624  1
  Na  Na18  1  0.67745537  0.33272180  0.33145169  1
  Na  Na19  1  0.33979662  0.65595631  0.16209734  1
  Na  Na20  1  0.33595580  0.66658378  0.66210310  1
  Y  Y21  1  0.99867971  0.00622167  0.35100295  1
  Y  Y22  1  0.99436751  0.00191820  0.85203404  1
  Y  Y23  1  0.66673095  0.33385284  0.68238968  1
  Y  Y24  1  0.66625613  0.33845774  0.18174408  1
  Y  Y25  1  0.33934966  0.66713049  0.01795334  1
  Y  Y26  1  0.33096038  0.66521646  0.51513247  1
  Nb  Nb27  1  0.99909159  0.99863822  0.64759182  1
  Nb  Nb28  1  0.00270169  0.99556805  0.14830758  1
  Nb  Nb29  1  0.66579734  0.33313304  0.98130847  1
  Nb  Nb30  1  0.67586278  0.33219171  0.48198283  1
  Nb  Nb31  1  0.32807658  0.66929934  0.31388110  1
  Nb  Nb32  1  0.32885650  0.67057608  0.81366430  1
  Si  Si33  1  0.29542966  0.99318081  0.25199574  1
  Si  Si34  1  0.70031756  0.70843896  0.25211415  1
  Si  Si35  1  0.00692285  0.30031471  0.24789609  1
  Si  Si36  1  0.29201322  0.30032780  0.75178490  1
  Si  Si37  1  0.00646551  0.70708113  0.75194128  1
  Si  Si38  1  0.69773695  0.99190185  0.74919854  1
  Si  Si39  1  0.96322883  0.32395175  0.58554840  1
  Si  Si40  1  0.36471742  0.03923982  0.58343833  1
  Si  Si41  1  0.67432525  0.63424578  0.58411969  1
  Si  Si42  1  0.96091203  0.63716576  0.08399483  1
  Si  Si43  1  0.36092981  0.32479228  0.08561373  1
  Si  Si44  1  0.03107898  0.37428757  0.91926868  1
  Si  Si45  1  0.34305154  0.96886416  0.91929546  1
  Si  Si46  1  0.62706534  0.96977429  0.41872486  1
  Si  Si47  1  0.02861687  0.65763122  0.41843742  1
  P  P48  1  0.67832335  0.04620933  0.08359126  1
  P  P49  1  0.62192539  0.65294934  0.91509887  1
  P  P50  1  0.34678646  0.37651495  0.41617685  1
  O  O51  1  0.22182390  0.02604510  0.31066250  1
  O  O52  1  0.80778589  0.77968394  0.31087333  1
  O  O53  1  0.96673710  0.17995049  0.30256211  1
  O  O54  1  0.21701364  0.19051772  0.80972320  1
  O  O55  1  0.97896181  0.78283875  0.81104895  1
  O  O56  1  0.81939487  0.03197485  0.80328072  1
  O  O57  1  0.79863519  0.96750663  0.69019023  1
  O  O58  1  0.16414190  0.19511507  0.69404737  1
  O  O59  1  0.02949735  0.83374587  0.69445356  1
  O  O60  1  0.81004643  0.84071778  0.19656773  1
  O  O61  1  0.03279855  0.20124618  0.18914380  1
  O  O62  1  0.16614737  0.96964675  0.19469119  1
  O  O63  1  0.89177721  0.35929402  0.64446867  1
  O  O64  1  0.47036272  0.11291151  0.64260920  1
  O  O65  1  0.64290602  0.53098226  0.64371254  1
  O  O66  1  0.89026647  0.52940024  0.14270698  1
  O  O67  1  0.65482611  0.11631185  0.14123812  1
  O  O68  1  0.45334953  0.33669136  0.14615005  1
  O  O69  1  0.47339340  0.30805788  0.02867585  1
  O  O70  1  0.83465893  0.52647734  0.02700132  1
  O  O71  1  0.69497602  0.16942608  0.03160543  1
  O  O72  1  0.47077329  0.16738174  0.52685241  1
  O  O73  1  0.69456579  0.52609978  0.52744913  1
  O  O74  1  0.83013546  0.30466294  0.52953156  1
  O  O75  1  0.54493669  0.67546812  0.96981528  1
  O  O76  1  0.13563552  0.45787448  0.97747985  1
  O  O77  1  0.31605486  0.86343216  0.97739839  1
  O  O78  1  0.54783113  0.86877262  0.47817529  1
  O  O79  1  0.32672228  0.44873492  0.47386218  1
  O  O80  1  0.13114200  0.68341435  0.47756436  1
  O  O81  1  0.13779421  0.64014829  0.36064114  1
  O  O82  1  0.49523511  0.85742675  0.36175992  1
  O  O83  1  0.35783113  0.49038821  0.36281338  1
  O  O84  1  0.14150067  0.50454537  0.86152881  1
  O  O85  1  0.36126657  0.86085968  0.86085210  1
  O  O86  1  0.51290153  0.63569130  0.85950562  1
  O  O87  1  0.00573727  0.81772858  0.41294451  1
  O  O88  1  0.80601688  0.98597536  0.41319013  1
  O  O89  1  0.20427342  0.19750143  0.41149656  1
  O  O90  1  0.01550217  0.19539773  0.91414771  1
  O  O91  1  0.18395915  0.99382055  0.91320300  1
  O  O92  1  0.80325920  0.79227899  0.91101346  1
  O  O93  1  0.95970523  0.14492163  0.58714997  1
  O  O94  1  0.18562106  0.03866471  0.58774708  1
  O  O95  1  0.85357363  0.81253089  0.58733708  1
  O  O96  1  0.96730224  0.81861756  0.08907426  1
  O  O97  1  0.84554026  0.04577951  0.08401481  1
  O  O98  1  0.18065338  0.14390515  0.08609592  1
  O  O99  1  0.66069729  0.14301868  0.74484206  1
  O  O100  1  0.47890394  0.33333037  0.74555647  1
  O  O101  1  0.85545563  0.51946020  0.74613827  1
  O  O102  1  0.66671529  0.52163930  0.24499620  1
  O  O103  1  0.85522805  0.33677720  0.24368323  1
  O  O104  1  0.48386603  0.14004703  0.24432090  1
  O  O105  1  0.62214561  0.48281703  0.91914164  1
  O  O106  1  0.85227289  0.37481519  0.92190761  1
  O  O107  1  0.51424057  0.15469705  0.92364774  1
  O  O108  1  0.62381586  0.14683342  0.42098863  1
  O  O109  1  0.51567354  0.37754983  0.41680081  1
  O  O110  1  0.84412720  0.48600299  0.42183436  1
  O  O111  1  0.32337475  0.47498210  0.08138406  1
  O  O112  1  0.14942989  0.67309794  0.07830984  1
  O  O113  1  0.52726665  0.87665646  0.07573006  1
  O  O114  1  0.33035756  0.85152100  0.57843246  1
  O  O115  1  0.51975951  0.66580278  0.57797081  1
  O  O116  1  0.14965912  0.47462814  0.57795220  1
  O  O117  1  0.29209730  0.81162313  0.25570358  1
  O  O118  1  0.51993493  0.70509173  0.25623850  1
  O  O119  1  0.18636112  0.47859739  0.25570005  1
  O  O120  1  0.29393507  0.47971941  0.75595230  1
  O  O121  1  0.18700716  0.70663955  0.75526373  1
  O  O122  1  0.52030035  0.81260478  0.75547397  1
