# generated using pymatgen
data_MgCu2(IO3)4
_symmetry_space_group_name_H-M   'P 1'
_cell_length_a   5.90190440
_cell_length_b   6.21267500
_cell_length_c   8.52953862
_cell_angle_alpha   89.99987625
_cell_angle_beta   89.50181683
_cell_angle_gamma   90.00010476
_symmetry_Int_Tables_number   1
_chemical_formula_structural   MgCu2(IO3)4
_chemical_formula_sum   'Mg1 Cu2 I4 O12'
_cell_volume   312.73747713
_cell_formula_units_Z   1
loop_
 _symmetry_equiv_pos_site_id
 _symmetry_equiv_pos_as_xyz
  1  'x, y, z'
loop_
 _atom_site_type_symbol
 _atom_site_label
 _atom_site_symmetry_multiplicity
 _atom_site_fract_x
 _atom_site_fract_y
 _atom_site_fract_z
 _atom_site_occupancy
  Mg  Mg0  1  0.41091300  0.75000000  0.74064900  1
  Cu  Cu1  1  0.54698400  0.47030600  0.48041100  1
  Cu  Cu2  1  0.54698400  0.02969400  0.48041100  1
  I  I3  1  0.53997700  0.75000000  0.16590100  1
  I  I4  1  0.07045000  0.25000000  0.26075600  1
  I  I5  1  0.91250300  0.75000000  0.80067900  1
  I  I6  1  0.48399100  0.25000000  0.84121700  1
  O  O7  1  0.69996000  0.95245000  0.71499000  1
  O  O8  1  0.26629700  0.02907200  0.31714700  1
  O  O9  1  0.41950400  0.25000000  0.62240700  1
  O  O10  1  0.63128100  0.75000000  0.37996200  1
  O  O11  1  0.85373000  0.25000000  0.41698900  1
  O  O12  1  0.29484700  0.48515500  0.88462500  1
  O  O13  1  0.26629700  0.47092800  0.31714800  1
  O  O14  1  0.29484700  0.01484500  0.88462500  1
  O  O15  1  0.71829800  0.52958500  0.09256700  1
  O  O16  1  0.71829800  0.97041500  0.09256700  1
  O  O17  1  0.69996000  0.54755000  0.71498900  1
  O  O18  1  0.11237800  0.75000000  0.63571100  1
