# generated using pymatgen
data_Na18Mg8Nb4Si9(SO8)9
_symmetry_space_group_name_H-M   'P 1'
_cell_length_a   9.03554410
_cell_length_b   9.03158491
_cell_length_c   22.48763745
_cell_angle_alpha   90.62794696
_cell_angle_beta   89.73457514
_cell_angle_gamma   119.92159235
_symmetry_Int_Tables_number   1
_chemical_formula_structural   Na18Mg8Nb4Si9(SO8)9
_chemical_formula_sum   'Na18 Mg8 Nb4 Si9 S9 O72'
_cell_volume   1590.40981042
_cell_formula_units_Z   1
loop_
 _symmetry_equiv_pos_site_id
 _symmetry_equiv_pos_as_xyz
  1  'x, y, z'
loop_
 _atom_site_type_symbol
 _atom_site_label
 _atom_site_symmetry_multiplicity
 _atom_site_fract_x
 _atom_site_fract_y
 _atom_site_fract_z
 _atom_site_occupancy
  Na  Na0  1  0.65330237  0.02665462  0.25654564  1
  Na  Na1  1  0.34583493  0.33883072  0.25321985  1
  Na  Na2  1  0.99403589  0.63219107  0.24218422  1
  Na  Na3  1  0.63999693  0.63228368  0.73560968  1
  Na  Na4  1  0.99048100  0.34379001  0.73952544  1
  Na  Na5  1  0.37566648  0.02934438  0.75010663  1
  Na  Na6  1  0.29736025  0.34003652  0.58954523  1
  Na  Na7  1  0.02402689  0.68959500  0.58572209  1
  Na  Na8  1  0.67571486  0.95534602  0.58182649  1
  Na  Na9  1  0.28133337  0.94937230  0.08362381  1
  Na  Na10  1  0.67889904  0.70354425  0.08434486  1
  Na  Na11  1  0.02997578  0.33941026  0.09408399  1
  Na  Na12  1  0.97619755  0.99727016  0.49781143  1
  Na  Na13  1  0.01074231  0.98644364  0.99331588  1
  Na  Na14  1  0.65010011  0.31632736  0.82503655  1
  Na  Na15  1  0.66278274  0.31402944  0.33216951  1
  Na  Na16  1  0.30907284  0.66109521  0.16633133  1
  Na  Na17  1  0.33719656  0.65254872  0.65608552  1
  Mg  Mg18  1  0.00298095  0.01766746  0.35223139  1
  Mg  Mg19  1  0.01459448  0.01383676  0.84931146  1
  Mg  Mg20  1  0.98637173  0.01194407  0.64623045  1
  Mg  Mg21  1  0.01209885  0.99859838  0.15554392  1
  Mg  Mg22  1  0.66635251  0.33386892  0.68338951  1
  Mg  Mg23  1  0.67591731  0.33185897  0.18784202  1
  Mg  Mg24  1  0.31876915  0.67162973  0.01533725  1
  Mg  Mg25  1  0.34632071  0.66557956  0.51896911  1
  Nb  Nb26  1  0.67092877  0.33959305  0.97547284  1
  Nb  Nb27  1  0.67783823  0.33172040  0.48170986  1
  Nb  Nb28  1  0.33195772  0.67665123  0.31659270  1
  Nb  Nb29  1  0.34261778  0.68070040  0.81201444  1
  Si  Si30  1  0.29218800  0.00458113  0.24922390  1
  Si  Si31  1  0.99908101  0.29062107  0.24807565  1
  Si  Si32  1  0.29414879  0.28854072  0.74916573  1
  Si  Si33  1  0.71991083  0.00891566  0.75074688  1
  Si  Si34  1  0.96985149  0.33908620  0.58717800  1
  Si  Si35  1  0.66884768  0.62917935  0.58661294  1
  Si  Si36  1  0.96273425  0.63064380  0.08648284  1
  Si  Si37  1  0.31876698  0.95868179  0.92161752  1
  Si  Si38  1  0.63764785  0.96188473  0.42232266  1
  S  S39  1  0.70535243  0.70774790  0.24983880  1
  S  S40  1  0.00094219  0.71023274  0.75188569  1
  S  S41  1  0.37536269  0.04147148  0.58373334  1
  S  S42  1  0.66623278  0.04064973  0.08234278  1
  S  S43  1  0.37831094  0.33670882  0.08238322  1
  S  S44  1  0.62445592  0.66933838  0.91897715  1
  S  S45  1  0.04247020  0.37254285  0.91871637  1
  S  S46  1  0.33527897  0.37408739  0.41750312  1
  S  S47  1  0.03996723  0.66930906  0.41882411  1
  O  O48  1  0.19720434  0.02738604  0.30511123  1
  O  O49  1  0.81284961  0.78589679  0.30141005  1
  O  O50  1  0.95795494  0.16219170  0.30131951  1
  O  O51  1  0.21220005  0.16699140  0.80479787  1
  O  O52  1  0.97816742  0.79081387  0.80456302  1
  O  O53  1  0.82759199  0.02665533  0.80886500  1
  O  O54  1  0.76998131  0.94462124  0.69069281  1
  O  O55  1  0.17872685  0.22660286  0.68906973  1
  O  O56  1  0.04047666  0.81182537  0.69741065  1
  O  O57  1  0.77336575  0.81077261  0.19473736  1
  O  O58  1  0.04577840  0.22537729  0.18579597  1
  O  O59  1  0.18253008  0.94541847  0.18745884  1
  O  O60  1  0.88011725  0.36763667  0.64431869  1
  O  O61  1  0.47943726  0.11652522  0.63760504  1
  O  O62  1  0.63621197  0.51032499  0.64330254  1
  O  O63  1  0.86634788  0.51097807  0.14197546  1
  O  O64  1  0.63408288  0.11550736  0.13586703  1
  O  O65  1  0.47884019  0.35936467  0.13624501  1
  O  O66  1  0.46782890  0.31198387  0.02892026  1
  O  O67  1  0.82951772  0.51567350  0.02734904  1
  O  O68  1  0.68702055  0.15177735  0.02950318  1
  O  O69  1  0.46354790  0.15322628  0.53057513  1
  O  O70  1  0.68177818  0.51240404  0.52695563  1
  O  O71  1  0.83334264  0.31005682  0.52741322  1
  O  O72  1  0.53856732  0.67877017  0.97323614  1
  O  O73  1  0.13989897  0.45449124  0.97298905  1
  O  O74  1  0.31687199  0.86226834  0.98071470  1
  O  O75  1  0.53543058  0.85647567  0.47869071  1
  O  O76  1  0.31521560  0.45730162  0.47054764  1
  O  O77  1  0.14068354  0.68421023  0.47098893  1
  O  O78  1  0.12408736  0.64054171  0.36300686  1
  O  O79  1  0.50411691  0.85661544  0.36172487  1
  O  O80  1  0.35467418  0.48171420  0.36265027  1
  O  O81  1  0.11950637  0.47903712  0.86566010  1
  O  O82  1  0.35332827  0.86037852  0.86268670  1
  O  O83  1  0.51538938  0.63901570  0.86519048  1
  O  O84  1  0.01996381  0.81685913  0.40969678  1
  O  O85  1  0.82057021  0.98179174  0.41146956  1
  O  O86  1  0.18645677  0.20397523  0.41099767  1
  O  O87  1  0.01262030  0.19994826  0.91373698  1
  O  O88  1  0.15856962  0.98372274  0.91290023  1
  O  O89  1  0.79407385  0.81474135  0.91269467  1
  O  O90  1  0.97884389  0.16529765  0.58208468  1
  O  O91  1  0.20699562  0.02966970  0.58713646  1
  O  O92  1  0.84983250  0.80814295  0.58443442  1
  O  O93  1  0.97060013  0.81563168  0.08369420  1
  O  O94  1  0.82471147  0.03107990  0.08562781  1
  O  O95  1  0.20716618  0.18338431  0.08312268  1
  O  O96  1  0.67949211  0.16466947  0.74573182  1
  O  O97  1  0.49194521  0.33179790  0.74528424  1
  O  O98  1  0.85427508  0.53558604  0.74691927  1
  O  O99  1  0.67512226  0.53186156  0.24218777  1
  O  O100  1  0.84205407  0.33125632  0.24524412  1
  O  O101  1  0.48506835  0.16758275  0.24244316  1
  O  O102  1  0.63765855  0.50498237  0.92206634  1
  O  O103  1  0.86435624  0.35968735  0.92360772  1
  O  O104  1  0.50687208  0.15400207  0.92666748  1
  O  O105  1  0.63958330  0.15170307  0.42205569  1
  O  O106  1  0.49555356  0.36401882  0.41931838  1
  O  O107  1  0.86819771  0.50706640  0.41980072  1
  O  O108  1  0.36577857  0.49341867  0.07452750  1
  O  O109  1  0.14865070  0.64117796  0.07978112  1
  O  O110  1  0.51891950  0.86428755  0.07570820  1
  O  O111  1  0.35316412  0.86906396  0.57613338  1
  O  O112  1  0.50156732  0.65012043  0.57918620  1
  O  O113  1  0.14948438  0.51225852  0.57504796  1
  O  O114  1  0.31804306  0.82774695  0.26061868  1
  O  O115  1  0.52839741  0.68945250  0.25669555  1
  O  O116  1  0.17999547  0.48630879  0.26039248  1
  O  O117  1  0.30782133  0.48514951  0.76494023  1
  O  O118  1  0.15954999  0.68661157  0.75932705  1
  O  O119  1  0.51435776  0.82912600  0.76200431  1
