# generated using pymatgen
data_Na9Mg2Nb4Si6(PO12)3
_symmetry_space_group_name_H-M   'P 1'
_cell_length_a   9.06367187
_cell_length_b   27.14102804
_cell_length_c   22.39488464
_cell_angle_alpha   89.93468175
_cell_angle_beta   90.05350970
_cell_angle_gamma   119.97288660
_symmetry_Int_Tables_number   1
_chemical_formula_structural   Na9Mg2Nb4Si6(PO12)3
_chemical_formula_sum   'Na54 Mg12 Nb24 Si36 P18 O216'
_cell_volume   4772.30507708
_cell_formula_units_Z   6
loop_
 _symmetry_equiv_pos_site_id
 _symmetry_equiv_pos_as_xyz
  1  'x, y, z'
loop_
 _atom_site_type_symbol
 _atom_site_label
 _atom_site_symmetry_multiplicity
 _atom_site_fract_x
 _atom_site_fract_y
 _atom_site_fract_z
 _atom_site_occupancy
  Na  Na0  1  0.01379603  0.99913318  0.49445496  1
  Na  Na1  1  0.00411149  0.33033794  0.50196191  1
  Na  Na2  1  0.99757458  0.66671543  0.49932336  1
  Na  Na3  1  0.99065190  0.00524573  0.00065548  1
  Na  Na4  1  0.01382972  0.33800956  0.99996617  1
  Na  Na5  1  0.00215572  0.66664584  0.00769155  1
  Na  Na6  1  0.67950345  0.11108938  0.83163318  1
  Na  Na7  1  0.65044797  0.44414480  0.84126959  1
  Na  Na8  1  0.67901602  0.77597878  0.82521474  1
  Na  Na9  1  0.66221646  0.10746409  0.32627562  1
  Na  Na10  1  0.66943531  0.44231100  0.33739506  1
  Na  Na11  1  0.66756669  0.77918091  0.33346150  1
  Na  Na12  1  0.32738972  0.22043673  0.16509794  1
  Na  Na13  1  0.31978843  0.55661273  0.17102891  1
  Na  Na14  1  0.33621561  0.89265300  0.16392995  1
  Na  Na15  1  0.32437744  0.21891590  0.66867315  1
  Na  Na16  1  0.34092548  0.55590377  0.67139344  1
  Na  Na17  1  0.30357111  0.88546379  0.66126730  1
  Na  Na18  1  0.62025790  0.66108718  0.25582133  1
  Na  Na19  1  0.37533272  0.11997038  0.24478654  1
  Na  Na20  1  0.36681838  0.46037588  0.25523873  1
  Na  Na21  1  0.35538990  0.78664388  0.24396396  1
  Na  Na22  1  0.98720271  0.20585543  0.24167449  1
  Na  Na23  1  0.01979849  0.54895531  0.25066947  1
  Na  Na24  1  0.61429056  0.20609390  0.74793556  1
  Na  Na25  1  0.62297119  0.54361728  0.75720639  1
  Na  Na26  1  0.62605336  0.87165296  0.74493501  1
  Na  Na27  1  0.99543058  0.12658845  0.75008769  1
  Na  Na28  1  0.01477537  0.46084519  0.75508695  1
  Na  Na29  1  0.38052939  0.00375589  0.74530907  1
  Na  Na30  1  0.36945851  0.32923189  0.75588803  1
  Na  Na31  1  0.38385042  0.66715906  0.74936176  1
  Na  Na32  1  0.30740169  0.78308207  0.57716289  1
  Na  Na33  1  0.02186372  0.56472347  0.57717716  1
  Na  Na34  1  0.66855208  0.32448563  0.57765862  1
  Na  Na35  1  0.65661900  0.98678667  0.57873523  1
  Na  Na36  1  0.30825125  0.32644668  0.07580014  1
  Na  Na37  1  0.30723433  0.98595221  0.07703619  1
  Na  Na38  1  0.66493196  0.22861338  0.08690472  1
  Na  Na39  1  0.67973619  0.57013995  0.08601858  1
  Na  Na40  1  0.65523913  0.90009311  0.07476128  1
  Na  Na41  1  0.05181409  0.77799197  0.08423896  1
  Na  Na42  1  0.95883591  0.55135272  0.92198082  1
  Na  Na43  1  0.98138492  0.89129021  0.91998775  1
  Na  Na44  1  0.69607727  0.34707096  0.92375918  1
  Na  Na45  1  0.34011098  0.10320888  0.91286520  1
  Na  Na46  1  0.33098509  0.76988204  0.92189556  1
  Na  Na47  1  0.96633958  0.09479188  0.41130667  1
  Na  Na48  1  0.95650824  0.43539596  0.42262072  1
  Na  Na49  1  0.98423239  0.77222051  0.42325380  1
  Na  Na50  1  0.31437930  0.00720000  0.41573722  1
  Na  Na51  1  0.34688511  0.34925736  0.42617078  1
  Na  Na52  1  0.69939286  0.55195865  0.42241473  1
  Na  Na53  1  0.71406069  0.89495687  0.40954084  1
  Mg  Mg54  1  0.99771897  0.99790046  0.35121460  1
  Mg  Mg55  1  0.00762949  0.66790459  0.14664398  1
  Mg  Mg56  1  0.67011110  0.11234785  0.68420967  1
  Mg  Mg57  1  0.67023565  0.77659800  0.68755376  1
  Mg  Mg58  1  0.66996643  0.11162789  0.18502086  1
  Mg  Mg59  1  0.65698977  0.44220522  0.98253226  1
  Mg  Mg60  1  0.66494817  0.44365926  0.48323756  1
  Mg  Mg61  1  0.33139597  0.88876973  0.01733808  1
  Mg  Mg62  1  0.32506816  0.88830211  0.51836088  1
  Mg  Mg63  1  0.33532374  0.55807746  0.31480494  1
  Mg  Mg64  1  0.33206437  0.22067253  0.81570372  1
  Mg  Mg65  1  0.33694272  0.55727512  0.81390931  1
  Nb  Nb66  1  0.99128620  0.33219066  0.35368487  1
  Nb  Nb67  1  0.01111591  0.66842252  0.35251516  1
  Nb  Nb68  1  0.99409831  0.99958904  0.85535522  1
  Nb  Nb69  1  0.00592583  0.33420538  0.85519981  1
  Nb  Nb70  1  0.99287446  0.66516727  0.85578505  1
  Nb  Nb71  1  0.00324978  0.99927233  0.64376717  1
  Nb  Nb72  1  0.00216927  0.33307624  0.64412664  1
  Nb  Nb73  1  0.99882454  0.66897662  0.64457605  1
  Nb  Nb74  1  0.99750917  0.00046662  0.14832402  1
  Nb  Nb75  1  0.99596610  0.33341716  0.14548424  1
  Nb  Nb76  1  0.66741332  0.44441476  0.68561995  1
  Nb  Nb77  1  0.66640895  0.44256323  0.18499239  1
  Nb  Nb78  1  0.66861111  0.77719078  0.18896363  1
  Nb  Nb79  1  0.67192196  0.11102817  0.97991398  1
  Nb  Nb80  1  0.66840969  0.77779170  0.97752067  1
  Nb  Nb81  1  0.66783408  0.11371241  0.48237193  1
  Nb  Nb82  1  0.66684075  0.77728807  0.47989732  1
  Nb  Nb83  1  0.33006053  0.22059326  0.01842736  1
  Nb  Nb84  1  0.32833967  0.55522222  0.02052166  1
  Nb  Nb85  1  0.33263583  0.22121832  0.52320708  1
  Nb  Nb86  1  0.34021114  0.55661343  0.52196556  1
  Nb  Nb87  1  0.34005086  0.22249385  0.31337324  1
  Nb  Nb88  1  0.32750377  0.88926214  0.31295341  1
  Nb  Nb89  1  0.32921655  0.88809510  0.81291689  1
  Si  Si90  1  0.28986278  0.33324261  0.25016994  1
  Si  Si91  1  0.29079786  0.66415607  0.24544255  1
  Si  Si92  1  0.70371220  0.23371917  0.24904866  1
  Si  Si93  1  0.70443567  0.90375081  0.25276759  1
  Si  Si94  1  -0.00014053  0.43160715  0.25084132  1
  Si  Si95  1  0.99915792  0.76337540  0.24720462  1
  Si  Si96  1  0.29323462  0.43102624  0.74990188  1
  Si  Si97  1  0.29003542  0.76301116  0.75088356  1
  Si  Si98  1  0.00299645  0.57032469  0.74908613  1
  Si  Si99  1  0.99805776  0.90153388  0.75003649  1
  Si  Si100  1  0.70902793  0.00111575  0.74853461  1
  Si  Si101  1  0.70675085  0.33181323  0.74969771  1
  Si  Si102  1  0.95661228  0.11092393  0.58683924  1
  Si  Si103  1  0.95791590  0.44395663  0.57977145  1
  Si  Si104  1  0.37505492  0.34726670  0.58001945  1
  Si  Si105  1  0.37833455  0.68183897  0.58749476  1
  Si  Si106  1  0.66552389  0.20758369  0.58963221  1
  Si  Si107  1  0.66496266  0.54088338  0.58076165  1
  Si  Si108  1  0.95928946  0.20737852  0.08705841  1
  Si  Si109  1  0.96186844  0.87520574  0.08335917  1
  Si  Si110  1  0.66849566  0.34745110  0.07746289  1
  Si  Si111  1  0.66742160  0.68047327  0.08379478  1
  Si  Si112  1  0.37611276  0.11057751  0.08560221  1
  Si  Si113  1  0.37680293  0.44485812  0.08264280  1
  Si  Si114  1  0.62750407  0.22292739  0.91449542  1
  Si  Si115  1  0.62205087  0.89004809  0.91967337  1
  Si  Si116  1  0.04069600  0.12614960  0.91073485  1
  Si  Si117  1  0.04280537  0.79158169  0.92054301  1
  Si  Si118  1  0.33313511  0.65175851  0.91226636  1
  Si  Si119  1  0.33786961  0.98628496  0.91882781  1
  Si  Si120  1  0.62675103  0.32086048  0.41839524  1
  Si  Si121  1  0.62631795  0.65209655  0.41355283  1
  Si  Si122  1  0.33421450  0.12420119  0.41678775  1
  Si  Si123  1  0.33789099  0.79321265  0.41905972  1
  Si  Si124  1  0.04494406  0.22209774  0.41634957  1
  Si  Si125  1  0.04368799  0.89168659  0.42009539  1
  P  P126  1  0.29322914  0.00089374  0.25225908  1
  P  P127  1  0.71156173  0.56994721  0.24771773  1
  P  P128  1  0.99654785  0.09623882  0.25401071  1
  P  P129  1  0.28820798  0.09697314  0.74957087  1
  P  P130  1  0.99685215  0.23622213  0.75104105  1
  P  P131  1  0.71079099  0.66757098  0.74995323  1
  P  P132  1  0.95895107  0.78035572  0.58646295  1
  P  P133  1  0.37704272  0.01322676  0.58600655  1
  P  P134  1  0.66706764  0.87445422  0.58559546  1
  P  P135  1  0.95595816  0.54110494  0.07986869  1
  P  P136  1  0.66571553  0.01503773  0.08658162  1
  P  P137  1  0.37414987  0.77670853  0.08337069  1
  P  P138  1  0.61944596  0.55339843  0.91474359  1
  P  P139  1  0.04363600  0.45917169  0.91319633  1
  P  P140  1  0.33728728  0.32057230  0.91346924  1
  P  P141  1  0.62160511  0.98558981  0.41974858  1
  P  P142  1  0.33281379  0.45951752  0.41401889  1
  P  P143  1  0.04081138  0.55470919  0.41394750  1
  O  O144  1  0.21226973  0.00949016  0.30793622  1
  O  O145  1  0.20012316  0.34457470  0.30865461  1
  O  O146  1  0.19137532  0.67366842  0.30606269  1
  O  O147  1  0.83207806  0.27223885  0.30532178  1
  O  O148  1  0.82643913  0.59950110  0.30459262  1
  O  O149  1  0.80977434  0.92807750  0.31243641  1
  O  O150  1  0.98834870  0.06428167  0.31071126  1
  O  O151  1  0.97443407  0.39260236  0.31127947  1
  O  O152  1  0.97003849  0.72209222  0.30719548  1
  O  O153  1  0.19720571  0.06121616  0.80648298  1
  O  O154  1  0.19772290  0.38953752  0.80858080  1
  O  O155  1  0.18076965  0.72117011  0.80804195  1
  O  O156  1  0.98398445  0.27014442  0.80667886  1
  O  O157  1  0.96888922  0.59928023  0.80886015  1
  O  O158  1  0.98719110  0.93758960  0.80842983  1
  O  O159  1  0.83474801  0.00773459  0.80559647  1
  O  O160  1  0.83501759  0.34221475  0.80798456  1
  O  O161  1  0.81931511  0.66963349  0.80568630  1
  O  O162  1  0.80383964  0.32475708  0.69131831  1
  O  O163  1  0.81145718  0.66315218  0.69496135  1
  O  O164  1  0.80560307  0.99139478  0.69014270  1
  O  O165  1  0.17161827  0.06293981  0.69480999  1
  O  O166  1  0.16641336  0.39501397  0.69453188  1
  O  O167  1  0.17300860  0.73291972  0.69041918  1
  O  O168  1  0.01262797  0.27391939  0.69623521  1
  O  O169  1  0.01866784  0.61143321  0.69171571  1
  O  O170  1  0.02758942  0.94475891  0.69261894  1
  O  O171  1  0.79883028  0.27192296  0.18967397  1
  O  O172  1  0.78827205  0.60557409  0.19181719  1
  O  O173  1  0.80591194  0.94383769  0.19302320  1
  O  O174  1  0.02230757  0.06448452  0.19841722  1
  O  O175  1  0.01436536  0.39364723  0.19593895  1
  O  O176  1  0.03929463  0.73953385  0.18831662  1
  O  O177  1  0.16887344  0.32268711  0.19161776  1
  O  O178  1  0.16494641  0.65386259  0.19219801  1
  O  O179  1  0.17419834  0.99268883  0.19546500  1
  O  O180  1  0.88136645  0.12003153  0.64716371  1
  O  O181  1  0.86559978  0.45455213  0.63961784  1
  O  O182  1  0.86862123  0.78480908  0.63980682  1
  O  O183  1  0.48098197  0.04173173  0.64196887  1
  O  O184  1  0.50158710  0.38013581  0.63939453  1
  O  O185  1  0.47653194  0.70448972  0.64851006  1
  O  O186  1  0.63595806  0.17356247  0.64981042  1
  O  O187  1  0.64059242  0.50174631  0.64141392  1
  O  O188  1  0.63997941  0.83842824  0.64084420  1
  O  O189  1  0.88878686  0.17485059  0.14842376  1
  O  O190  1  0.86702577  0.50289323  0.13759518  1
  O  O191  1  0.84840671  0.83185250  0.13849484  1
  O  O192  1  0.64056658  0.04376578  0.13962234  1
  O  O193  1  0.64168933  0.38209158  0.13579785  1
  O  O194  1  0.63919951  0.70919529  0.14449584  1
  O  O195  1  0.49152164  0.12691603  0.14438173  1
  O  O196  1  0.49799705  0.45665189  0.14415923  1
  O  O197  1  0.48402285  0.77986815  0.13905078  1
  O  O198  1  0.46311617  0.09853520  0.02659409  1
  O  O199  1  0.45609118  0.42837073  0.02884140  1
  O  O200  1  0.47537188  0.77556164  0.02673756  1
  O  O201  1  0.82735165  0.17308753  0.03127324  1
  O  O202  1  0.85080763  0.51255304  0.02442568  1
  O  O203  1  0.84225545  0.84685515  0.02321901  1
  O  O204  1  0.68867127  0.05079121  0.02845310  1
  O  O205  1  0.69775549  0.38174114  0.01758210  1
  O  O206  1  0.68680471  0.72424816  0.02844626  1
  O  O207  1  0.46656554  0.05151292  0.52869287  1
  O  O208  1  0.45007004  0.38272454  0.52032687  1
  O  O209  1  0.47994537  0.72488795  0.53007572  1
  O  O210  1  0.68767460  0.17326785  0.53050619  1
  O  O211  1  0.71178918  0.51754562  0.52265742  1
  O  O212  1  0.69091345  0.84543326  0.52803043  1
  O  O213  1  0.83094589  0.09987545  0.52708067  1
  O  O214  1  0.84124680  0.42925343  0.52169942  1
  O  O215  1  0.85318370  0.77354599  0.52718063  1
  O  O216  1  0.53709299  0.23474001  0.97366510  1
  O  O217  1  0.52619738  0.56028936  0.97125167  1
  O  O218  1  0.54593478  0.89879279  0.97975281  1
  O  O219  1  0.17288582  0.16097876  0.96766936  1
  O  O220  1  0.15630845  0.48939375  0.96975002  1
  O  O221  1  0.15637319  0.81427732  0.97948993  1
  O  O222  1  0.31570359  0.28389494  0.97111081  1
  O  O223  1  0.30410678  0.60846231  0.96966496  1
  O  O224  1  0.28505966  0.94650200  0.97689263  1
  O  O225  1  0.53687701  0.28347191  0.47787785  1
  O  O226  1  0.52211672  0.60916148  0.47079263  1
  O  O227  1  0.54657968  0.95060889  0.47619850  1
  O  O228  1  0.31829934  0.16194414  0.47104782  1
  O  O229  1  0.30551016  0.48985652  0.46946454  1
  O  O230  1  0.29547173  0.81593585  0.47838857  1
  O  O231  1  0.17339011  0.23428085  0.47244286  1
  O  O232  1  0.14882041  0.56158415  0.47136042  1
  O  O233  1  0.16642701  0.90174104  0.47435144  1
  O  O234  1  0.13069954  0.21083807  0.35636735  1
  O  O235  1  0.12286717  0.54724219  0.35810837  1
  O  O236  1  0.13946326  0.88044207  0.36035564  1
  O  O237  1  0.49983026  0.28316498  0.36127038  1
  O  O238  1  0.52634635  0.62828235  0.35286392  1
  O  O239  1  0.50138034  0.95435502  0.36456541  1
  O  O240  1  0.35905677  0.16318501  0.35574106  1
  O  O241  1  0.35007816  0.49308393  0.35744315  1
  O  O242  1  0.36522125  0.83326555  0.35930547  1
  O  O243  1  0.11137176  0.15921215  0.84967224  1
  O  O244  1  0.12701230  0.49352618  0.85703481  1
  O  O245  1  0.13933063  0.83430128  0.86245769  1
  O  O246  1  0.35447711  0.29155766  0.85773805  1
  O  O247  1  0.36231377  0.62816846  0.85140637  1
  O  O248  1  0.36006780  0.95458853  0.85867725  1
  O  O249  1  0.51172436  0.20867835  0.85603796  1
  O  O250  1  0.52220993  0.54782550  0.85761760  1
  O  O251  1  0.50155781  0.87984118  0.85991571  1
  O  O252  1  0.03242530  0.28024699  0.40973665  1
  O  O253  1  0.02081720  0.60946342  0.41128907  1
  O  O254  1  0.01192771  0.94455354  0.41233012  1
  O  O255  1  0.81766637  0.32667852  0.41225541  1
  O  O256  1  0.81766802  0.65737188  0.41433349  1
  O  O257  1  0.80210814  0.99567594  0.41043385  1
  O  O258  1  0.16531273  0.06285420  0.41504429  1
  O  O259  1  0.16680090  0.39874807  0.41394297  1
  O  O260  1  0.16703424  0.72946392  0.40702146  1
  O  O261  1  0.03330986  0.06358817  0.91277183  1
  O  O262  1  0.02594665  0.39804418  0.91232153  1
  O  O263  1  0.01653591  0.72797467  0.90731623  1
  O  O264  1  0.16959877  0.32496804  0.91192282  1
  O  O265  1  0.15493868  0.65658377  0.91325594  1
  O  O266  1  0.17288683  0.99637826  0.90673246  1
  O  O267  1  0.81665241  0.28174730  0.91158697  1
  O  O268  1  0.80132529  0.61008961  0.91391295  1
  O  O269  1  0.81982358  0.94337494  0.91004053  1
  O  O270  1  0.97116830  0.05172346  0.58778083  1
  O  O271  1  0.98000729  0.38826094  0.59202689  1
  O  O272  1  0.97094987  0.72310001  0.58707775  1
  O  O273  1  0.19672508  0.00875457  0.58787830  1
  O  O274  1  0.18392881  0.33739967  0.59316243  1
  O  O275  1  0.18378066  0.67560793  0.58551944  1
  O  O276  1  0.83457544  0.27238924  0.58690114  1
  O  O277  1  0.83125138  0.60508233  0.59281715  1
  O  O278  1  0.83375046  0.93513035  0.58780823  1
  O  O279  1  0.97932182  0.27212972  0.08566111  1
  O  O280  1  0.97240267  0.59942009  0.08771805  1
  O  O281  1  0.97110563  0.93774892  0.09067725  1
  O  O282  1  0.83319362  0.00964874  0.09017542  1
  O  O283  1  0.82820206  0.33631803  0.09039072  1
  O  O284  1  0.83384194  0.67370245  0.08418705  1
  O  O285  1  0.18553019  0.05289335  0.09088639  1
  O  O286  1  0.18599131  0.38914752  0.09409829  1
  O  O287  1  0.19816206  0.72400431  0.08239166  1
  O  O288  1  0.68708505  0.05630177  0.74833141  1
  O  O289  1  0.70118526  0.39187231  0.74488903  1
  O  O290  1  0.69453540  0.72029353  0.74931004  1
  O  O291  1  0.46249227  0.10077007  0.74771797  1
  O  O292  1  0.47751627  0.43260842  0.74535420  1
  O  O293  1  0.47400706  0.76817276  0.75061679  1
  O  O294  1  0.83323674  0.17856000  0.75158918  1
  O  O295  1  0.82543428  0.50803462  0.74441181  1
  O  O296  1  0.82622204  0.84197056  0.74767989  1
  O  O297  1  0.68768379  0.17231335  0.25249752  1
  O  O298  1  0.70558595  0.51058613  0.24545118  1
  O  O299  1  0.67222032  0.83849719  0.23924825  1
  O  O300  1  0.84540323  0.10526753  0.24726405  1
  O  O301  1  0.82904510  0.43811421  0.24326667  1
  O  O302  1  0.82347868  0.76765814  0.24690031  1
  O  O303  1  0.46876326  0.05285850  0.24268115  1
  O  O304  1  0.47632404  0.39170683  0.24316965  1
  O  O305  1  0.47645230  0.72499869  0.24602435  1
  O  O306  1  0.64691144  0.16667704  0.92812526  1
  O  O307  1  0.65670437  0.50444780  0.92207053  1
  O  O308  1  0.64208882  0.83216114  0.92049316  1
  O  O309  1  0.85131387  0.11615293  0.92694918  1
  O  O310  1  0.86397889  0.45136919  0.91905390  1
  O  O311  1  0.85516019  0.78795841  0.92204533  1
  O  O312  1  0.50322591  0.05088525  0.92145108  1
  O  O313  1  0.49517627  0.37972605  0.91862536  1
  O  O314  1  0.48882817  0.71697499  0.92670456  1
  O  O315  1  0.62931655  0.04504197  0.42151864  1
  O  O316  1  0.64436362  0.38272808  0.41451850  1
  O  O317  1  0.65977952  0.71690630  0.42830005  1
  O  O318  1  0.50457990  0.11737473  0.42358577  1
  O  O319  1  0.49062701  0.45285626  0.42065765  1
  O  O320  1  0.51252968  0.78823760  0.42215515  1
  O  O321  1  0.85982261  0.16367962  0.42461057  1
  O  O322  1  0.85928516  0.50292804  0.41949279  1
  O  O323  1  0.85455660  0.83125802  0.42312965  1
  O  O324  1  0.35337729  0.16688397  0.07186927  1
  O  O325  1  0.36331366  0.50307377  0.07668276  1
  O  O326  1  0.36735141  0.83228403  0.08468672  1
  O  O327  1  0.15394920  0.21978399  0.07272889  1
  O  O328  1  0.13624764  0.54519768  0.07690468  1
  O  O329  1  0.14709788  0.88117607  0.08396559  1
  O  O330  1  0.49340029  0.28409756  0.07981197  1
  O  O331  1  0.49485937  0.61714624  0.07371789  1
  O  O332  1  0.51254727  0.95435197  0.07983164  1
  O  O333  1  0.36440641  0.28474431  0.58100429  1
  O  O334  1  0.34110247  0.61674596  0.57166075  1
  O  O335  1  0.36161982  0.95473626  0.57923349  1
  O  O336  1  0.50385974  0.21787089  0.57617216  1
  O  O337  1  0.49274105  0.54718286  0.57692108  1
  O  O338  1  0.51431162  0.88421049  0.57819751  1
  O  O339  1  0.14717830  0.16543678  0.57368791  1
  O  O340  1  0.14333710  0.50277024  0.57592322  1
  O  O341  1  0.14405459  0.82896872  0.58120008  1
  O  O342  1  0.30068611  0.27506870  0.25629327  1
  O  O343  1  0.32203441  0.61116497  0.25317349  1
  O  O344  1  0.30416660  0.94513135  0.25501606  1
  O  O345  1  0.51528538  0.22914074  0.25359128  1
  O  O346  1  0.53001967  0.55912476  0.25621672  1
  O  O347  1  0.51005384  0.89525848  0.25319287  1
  O  O348  1  0.16833237  0.15635840  0.25197458  1
  O  O349  1  0.16899262  0.49286739  0.25166915  1
  O  O350  1  0.16751342  0.82619619  0.26030574  1
  O  O351  1  0.29836812  0.15501721  0.74896600  1
  O  O352  1  0.31558619  0.49338685  0.75246447  1
  O  O353  1  0.30694793  0.82612196  0.75652354  1
  O  O354  1  0.16003212  0.23273325  0.75246146  1
  O  O355  1  0.16890214  0.56353164  0.74955257  1
  O  O356  1  0.17990065  0.90170767  0.75440932  1
  O  O357  1  0.51875830  0.27719115  0.75311537  1
  O  O358  1  0.53906893  0.61177143  0.75033697  1
  O  O359  1  0.52536058  0.94159192  0.75461847  1
