# generated using pymatgen
data_Li7V4P9O32
_symmetry_space_group_name_H-M   'P 1'
_cell_length_a   13.85804500
_cell_length_b   13.85804500
_cell_length_c   6.38983600
_cell_angle_alpha   90.00000000
_cell_angle_beta   90.00000000
_cell_angle_gamma   90.00000000
_symmetry_Int_Tables_number   1
_chemical_formula_structural   Li7V4P9O32
_chemical_formula_sum   'Li14 V8 P18 O64'
_cell_volume   1227.13868226
_cell_formula_units_Z   2
loop_
 _symmetry_equiv_pos_site_id
 _symmetry_equiv_pos_as_xyz
  1  'x, y, z'
loop_
 _atom_site_type_symbol
 _atom_site_label
 _atom_site_symmetry_multiplicity
 _atom_site_fract_x
 _atom_site_fract_y
 _atom_site_fract_z
 _atom_site_occupancy
  Li  Li0  1  0.00000000  0.00000000  0.00000000  1
  Li  Li1  1  0.00000000  0.50000000  0.13634500  1
  Li  Li2  1  0.00000000  0.50000000  0.63634500  1
  Li  Li3  1  0.10627500  0.74296400  0.81389800  1
  Li  Li4  1  0.24296400  0.60627500  0.31389800  1
  Li  Li5  1  0.25703600  0.10627500  0.18610200  1
  Li  Li6  1  0.39372500  0.24296400  0.68610200  1
  Li  Li7  1  0.50000000  0.00000000  0.36365500  1
  Li  Li8  1  0.50000000  0.00000000  0.86365500  1
  Li  Li9  1  0.50000000  0.50000000  0.50000000  1
  Li  Li10  1  0.60627500  0.75703600  0.68610200  1
  Li  Li11  1  0.74296400  0.89372500  0.18610200  1
  Li  Li12  1  0.75703600  0.39372500  0.31389800  1
  Li  Li13  1  0.89372500  0.25703600  0.81389800  1
  V  V14  1  0.12142900  0.19573500  0.62117200  1
  V  V15  1  0.19573500  0.87857100  0.37882800  1
  V  V16  1  0.30426500  0.37857100  0.12117200  1
  V  V17  1  0.37857100  0.69573500  0.87882800  1
  V  V18  1  0.62142900  0.30426500  0.87882800  1
  V  V19  1  0.69573500  0.62142900  0.12117200  1
  V  V20  1  0.80426500  0.12142900  0.37882800  1
  V  V21  1  0.87857100  0.80426500  0.62117200  1
  P  P22  1  0.00000000  0.00000000  0.50000000  1
  P  P23  1  0.05951000  0.69237600  0.38446400  1
  P  P24  1  0.10831700  0.24703800  0.13331100  1
  P  P25  1  0.19237600  0.55951000  0.88446400  1
  P  P26  1  0.24703800  0.89168300  0.86668900  1
  P  P27  1  0.25296200  0.39168300  0.63331100  1
  P  P28  1  0.30762400  0.05951000  0.61553600  1
  P  P29  1  0.39168300  0.74703800  0.36668900  1
  P  P30  1  0.44049000  0.19237600  0.11553600  1
  P  P31  1  0.50000000  0.50000000  0.00000000  1
  P  P32  1  0.55951000  0.80762400  0.11553600  1
  P  P33  1  0.60831700  0.25296200  0.36668900  1
  P  P34  1  0.69237600  0.94049000  0.61553600  1
  P  P35  1  0.74703800  0.60831700  0.63331100  1
  P  P36  1  0.75296200  0.10831700  0.86668900  1
  P  P37  1  0.80762400  0.44049000  0.88446400  1
  P  P38  1  0.89168300  0.75296200  0.13331100  1
  P  P39  1  0.94049000  0.30762400  0.38446400  1
  O  O40  1  0.00389400  0.72713900  0.17104100  1
  O  O41  1  0.01321000  0.74301700  0.57381400  1
  O  O42  1  0.06117300  0.06474300  0.64862600  1
  O  O43  1  0.06474300  0.93882700  0.35137400  1
  O  O44  1  0.05685700  0.58323000  0.38889000  1
  O  O45  1  0.08323000  0.55685700  0.88889000  1
  O  O46  1  0.10801500  0.18801800  0.93299500  1
  O  O47  1  0.14103000  0.18045300  0.31322000  1
  O  O48  1  0.15880200  0.33555400  0.62255900  1
  O  O49  1  0.16444600  0.34119800  0.12255900  1
  O  O50  1  0.16285600  0.73081100  0.34973200  1
  O  O51  1  0.18045300  0.85897000  0.68678000  1
  O  O52  1  0.18801800  0.89198500  0.06700500  1
  O  O53  1  0.22713900  0.50389400  0.67104100  1
  O  O54  1  0.23081100  0.66285600  0.84973200  1
  O  O55  1  0.24301700  0.51321000  0.07381400  1
  O  O56  1  0.25698300  0.01321000  0.42618600  1
  O  O57  1  0.26918900  0.16285600  0.65026800  1
  O  O58  1  0.27286100  0.00389400  0.82895900  1
  O  O59  1  0.31198200  0.39198500  0.43299500  1
  O  O60  1  0.31954700  0.35897000  0.81322000  1
  O  O61  1  0.33714400  0.23081100  0.15026800  1
  O  O62  1  0.33555400  0.84119800  0.37744100  1
  O  O63  1  0.34119800  0.83555400  0.87744100  1
  O  O64  1  0.35897000  0.68045300  0.18678000  1
  O  O65  1  0.39198500  0.68801800  0.56700500  1
  O  O66  1  0.41677000  0.05685700  0.61111000  1
  O  O67  1  0.44314300  0.08323000  0.11111000  1
  O  O68  1  0.43525700  0.43882700  0.14862600  1
  O  O69  1  0.43882700  0.56474300  0.85137400  1
  O  O70  1  0.48679000  0.24301700  0.92618600  1
  O  O71  1  0.49610600  0.22713900  0.32895900  1
  O  O72  1  0.50389400  0.77286100  0.32895900  1
  O  O73  1  0.51321000  0.75698300  0.92618600  1
  O  O74  1  0.56117300  0.43525700  0.85137400  1
  O  O75  1  0.56474300  0.56117300  0.14862600  1
  O  O76  1  0.55685700  0.91677000  0.11111000  1
  O  O77  1  0.58323000  0.94314300  0.61111000  1
  O  O78  1  0.60801500  0.31198200  0.56700500  1
  O  O79  1  0.64103000  0.31954700  0.18678000  1
  O  O80  1  0.65880200  0.16444600  0.87744100  1
  O  O81  1  0.66444600  0.15880200  0.37744100  1
  O  O82  1  0.66285600  0.76918900  0.15026800  1
  O  O83  1  0.68045300  0.64103000  0.81322000  1
  O  O84  1  0.68801800  0.60801500  0.43299500  1
  O  O85  1  0.72713900  0.99610600  0.82895900  1
  O  O86  1  0.73081100  0.83714400  0.65026800  1
  O  O87  1  0.74301700  0.98679000  0.42618600  1
  O  O88  1  0.75698300  0.48679000  0.07381400  1
  O  O89  1  0.76918900  0.33714400  0.84973200  1
  O  O90  1  0.77286100  0.49610600  0.67104100  1
  O  O91  1  0.81198200  0.10801500  0.06700500  1
  O  O92  1  0.81954700  0.14103000  0.68678000  1
  O  O93  1  0.83714400  0.26918900  0.34973200  1
  O  O94  1  0.83555400  0.65880200  0.12255900  1
  O  O95  1  0.84119800  0.66444600  0.62255900  1
  O  O96  1  0.85897000  0.81954700  0.31322000  1
  O  O97  1  0.89198500  0.81198200  0.93299500  1
  O  O98  1  0.91677000  0.44314300  0.88889000  1
  O  O99  1  0.94314300  0.41677000  0.38889000  1
  O  O100  1  0.93525700  0.06117300  0.35137400  1
  O  O101  1  0.93882700  0.93525700  0.64862600  1
  O  O102  1  0.98679000  0.25698300  0.57381400  1
  O  O103  1  0.99610600  0.27286100  0.17104100  1
