# generated using pymatgen
data_Na4CaHf3(PO4)6
_symmetry_space_group_name_H-M   'P 1'
_cell_length_a   9.04134568
_cell_length_b   9.04093848
_cell_length_c   22.82307348
_cell_angle_alpha   90.07701755
_cell_angle_beta   89.94665291
_cell_angle_gamma   119.78196935
_symmetry_Int_Tables_number   1
_chemical_formula_structural   Na4CaHf3(PO4)6
_chemical_formula_sum   'Na12 Ca3 Hf9 P18 O72'
_cell_volume   1619.20152384
_cell_formula_units_Z   3
loop_
 _symmetry_equiv_pos_site_id
 _symmetry_equiv_pos_as_xyz
  1  'x, y, z'
loop_
 _atom_site_type_symbol
 _atom_site_label
 _atom_site_symmetry_multiplicity
 _atom_site_fract_x
 _atom_site_fract_y
 _atom_site_fract_z
 _atom_site_occupancy
  Na  Na0  1  0.65094807  0.01513194  0.24331910  1
  Na  Na1  1  0.36714657  0.35044798  0.24331898  1
  Na  Na2  1  0.98346899  0.63327905  0.24286279  1
  Na  Na3  1  0.98665061  0.36205392  0.74158567  1
  Na  Na4  1  0.37809008  0.00861321  0.74154838  1
  Na  Na5  1  0.70931307  0.67684966  0.41559619  1
  Na  Na6  1  0.01766669  0.01793703  0.49691004  1
  Na  Na7  1  0.00025478  0.00032960  0.00302401  1
  Na  Na8  1  0.66559275  0.35080854  0.83248015  1
  Na  Na9  1  0.66579552  0.31747943  0.33342738  1
  Na  Na10  1  0.33344801  0.66659976  0.15890017  1
  Na  Na11  1  0.35293554  0.66483816  0.65956600  1
  Ca  Ca12  1  0.00943401  0.01033064  0.35744114  1
  Ca  Ca13  1  0.66532019  0.34327663  0.68251761  1
  Ca  Ca14  1  0.66692256  0.33419427  0.17149325  1
  Hf  Hf15  1  0.99709723  0.99716016  0.85783711  1
  Hf  Hf16  1  0.99514639  0.99480640  0.64413849  1
  Hf  Hf17  1  0.00041185  0.00010784  0.14570922  1
  Hf  Hf18  1  0.66692224  0.33238219  0.98416570  1
  Hf  Hf19  1  0.66660433  0.32787036  0.48538314  1
  Hf  Hf20  1  0.33324568  0.66645439  0.01565214  1
  Hf  Hf21  1  0.32870095  0.66729551  0.51984119  1
  Hf  Hf22  1  0.32951641  0.66626471  0.31661496  1
  Hf  Hf23  1  0.33797675  0.66601800  0.81533416  1
  P  P24  1  0.29350416  0.99434543  0.24949062  1
  P  P25  1  0.70134524  0.70757107  0.25293010  1
  P  P26  1  0.00480569  0.29826680  0.24984084  1
  P  P27  1  0.27897614  0.28636697  0.75247816  1
  P  P28  1  0.00807547  0.71638472  0.75288985  1
  P  P29  1  0.70918194  0.99072105  0.75202056  1
  P  P30  1  0.96764376  0.33134909  0.58667715  1
  P  P31  1  0.36461964  0.03340027  0.58677968  1
  P  P32  1  0.66787617  0.63636066  0.58108384  1
  P  P33  1  0.97188299  0.63939098  0.08325545  1
  P  P34  1  0.66666348  0.02696317  0.08343125  1
  P  P35  1  0.35989733  0.33231223  0.08339579  1
  P  P36  1  0.62597051  0.66141566  0.91734201  1
  P  P37  1  0.03655188  0.37513329  0.91533615  1
  P  P38  1  0.33910361  0.96403497  0.91561056  1
  P  P39  1  0.61657183  0.96257699  0.41789359  1
  P  P40  1  0.34598852  0.38099701  0.41880840  1
  P  P41  1  0.03089382  0.65251732  0.41805079  1
  O  O42  1  0.21749117  0.02448258  0.30385541  1
  O  O43  1  0.79735289  0.77753589  0.31006779  1
  O  O44  1  0.97253371  0.19151759  0.30409103  1
  O  O45  1  0.18140134  0.18123334  0.80688092  1
  O  O46  1  0.99851099  0.81065174  0.80782367  1
  O  O47  1  0.81452655  0.00123203  0.80660871  1
  O  O48  1  0.79625339  0.97497009  0.69581762  1
  O  O49  1  0.16974660  0.19952069  0.69710188  1
  O  O50  1  0.02632857  0.82276233  0.69718302  1
  O  O51  1  0.80219278  0.82830377  0.20001045  1
  O  O52  1  0.02920322  0.20601100  0.19501425  1
  O  O53  1  0.17847272  0.97248656  0.19461313  1
  O  O54  1  0.90714499  0.36194148  0.64513859  1
  O  O55  1  0.45649146  0.09246764  0.64510317  1
  O  O56  1  0.63243795  0.53266416  0.63611285  1
  O  O57  1  0.91847919  0.55318660  0.14282448  1
  O  O58  1  0.63413502  0.08158004  0.14286584  1
  O  O59  1  0.44677329  0.36605744  0.14289264  1
  O  O60  1  0.47018275  0.31262665  0.03466821  1
  O  O61  1  0.84241543  0.52921043  0.03464779  1
  O  O62  1  0.68749213  0.15649692  0.03450686  1
  O  O63  1  0.47001697  0.15921247  0.53631567  1
  O  O64  1  0.69125724  0.54285147  0.52684883  1
  O  O65  1  0.84168571  0.31242514  0.53640919  1
  O  O66  1  0.53807486  0.68744484  0.97020373  1
  O  O67  1  0.15516148  0.46742065  0.96691665  1
  O  O68  1  0.31434849  0.84644249  0.96733262  1
  O  O69  1  0.50896790  0.85058840  0.46894098  1
  O  O70  1  0.34346529  0.48935349  0.47036517  1
  O  O71  1  0.14177073  0.66068788  0.47024006  1
  O  O72  1  0.11939638  0.64274630  0.35961447  1
  O  O73  1  0.51614834  0.87706652  0.35938003  1
  O  O74  1  0.36049528  0.48435948  0.36080581  1
  O  O75  1  0.12137394  0.48276476  0.85864665  1
  O  O76  1  0.36211040  0.87840577  0.85904904  1
  O  O77  1  0.51441963  0.63892142  0.86193542  1
  O  O78  1  0.00362285  0.80517071  0.41962666  1
  O  O79  1  0.78764200  0.96936934  0.41889135  1
  O  O80  1  0.19236512  0.20571118  0.42077902  1
  O  O81  1  0.01721788  0.19506130  0.91106626  1
  O  O82  1  0.17813215  0.98297299  0.91120238  1
  O  O83  1  0.80474628  0.82152995  0.91187495  1
  O  O84  1  0.97855300  0.16508444  0.58738325  1
  O  O85  1  0.18744939  0.02223386  0.58812344  1
  O  O86  1  0.83442314  0.81222905  0.58604552  1
  O  O87  1  0.98084966  0.81610977  0.08525304  1
  O  O88  1  0.83327545  0.01567719  0.08554688  1
  O  O89  1  0.18325845  0.16543507  0.08530781  1
  O  O90  1  0.69084809  0.15085357  0.75106096  1
  O  O91  1  0.45301598  0.29918957  0.75115325  1
  O  O92  1  0.85881543  0.53475966  0.75189880  1
  O  O93  1  0.66959944  0.52585073  0.24328575  1
  O  O94  1  0.85683128  0.33387939  0.24154104  1
  O  O95  1  0.47677263  0.14214656  0.24177733  1
  O  O96  1  0.64401922  0.50104863  0.92362654  1
  O  O97  1  0.85905880  0.35820417  0.92328824  1
  O  O98  1  0.49900070  0.14137117  0.92340270  1
  O  O99  1  0.63351300  0.14165291  0.42294017  1
  O  O100  1  0.51621495  0.37539791  0.42188759  1
  O  O101  1  0.85466313  0.48535611  0.42183284  1
  O  O102  1  0.33166881  0.48357294  0.06931642  1
  O  O103  1  0.15100112  0.66711169  0.06914776  1
  O  O104  1  0.51475010  0.84878406  0.06944466  1
  O  O105  1  0.33330563  0.85143717  0.57413006  1
  O  O106  1  0.51886431  0.67278446  0.57152481  1
  O  O107  1  0.14918569  0.48201052  0.57414604  1
  O  O108  1  0.29684822  0.82135417  0.25388945  1
  O  O109  1  0.52350350  0.70169030  0.25485653  1
  O  O110  1  0.17679828  0.47419665  0.25494742  1
  O  O111  1  0.29052283  0.46588472  0.75688120  1
  O  O112  1  0.17997418  0.70986114  0.75647459  1
  O  O113  1  0.52720205  0.82871687  0.75629794  1
