# generated using pymatgen
data_Na6CaHf3Si4(SO12)2
_symmetry_space_group_name_H-M   'P 1'
_cell_length_a   9.22394471
_cell_length_b   9.20662562
_cell_length_c   22.94856383
_cell_angle_alpha   90.12315715
_cell_angle_beta   89.99100443
_cell_angle_gamma   120.00345150
_symmetry_Int_Tables_number   1
_chemical_formula_structural   Na6CaHf3Si4(SO12)2
_chemical_formula_sum   'Na18 Ca3 Hf9 Si12 S6 O72'
_cell_volume   1687.66780282
_cell_formula_units_Z   3
loop_
 _symmetry_equiv_pos_site_id
 _symmetry_equiv_pos_as_xyz
  1  'x, y, z'
loop_
 _atom_site_type_symbol
 _atom_site_label
 _atom_site_symmetry_multiplicity
 _atom_site_fract_x
 _atom_site_fract_y
 _atom_site_fract_z
 _atom_site_occupancy
  Na  Na0  1  0.99247644  0.34927715  0.75840313  1
  Na  Na1  1  0.39662969  0.01908331  0.74960240  1
  Na  Na2  1  0.33512694  0.33945464  0.58615113  1
  Na  Na3  1  0.02456509  0.70411397  0.57061448  1
  Na  Na4  1  0.65102626  0.96843477  0.59186065  1
  Na  Na5  1  0.32794666  0.98545183  0.08320389  1
  Na  Na6  1  0.65310092  0.66978395  0.08709591  1
  Na  Na7  1  0.01958924  0.34335018  0.08451171  1
  Na  Na8  1  0.32789667  0.29362843  0.92568857  1
  Na  Na9  1  0.96661307  0.29011471  0.41119721  1
  Na  Na10  1  0.32042303  0.02791699  0.41445204  1
  Na  Na11  1  0.71071544  0.68060409  0.41529028  1
  Na  Na12  1  0.00017308  0.99464040  0.49155392  1
  Na  Na13  1  0.00010182  0.99282715  0.99872428  1
  Na  Na14  1  0.65973155  0.31235201  0.83509581  1
  Na  Na15  1  0.66893175  0.33368784  0.32677215  1
  Na  Na16  1  0.33512656  0.66629097  0.16443598  1
  Na  Na17  1  0.38302715  0.67338009  0.67130238  1
  Ca  Ca18  1  -0.00007662  0.99846383  0.35000806  1
  Ca  Ca19  1  0.65574242  0.33423955  0.68781841  1
  Ca  Ca20  1  0.66522760  0.32964217  0.17959109  1
  Hf  Hf21  1  0.00223962  0.01445915  0.85547242  1
  Hf  Hf22  1  0.99717602  0.00144092  0.64937688  1
  Hf  Hf23  1  0.00195652  0.00038505  0.14580870  1
  Hf  Hf24  1  0.67288192  0.32159182  0.98294481  1
  Hf  Hf25  1  0.65419563  0.33708773  0.47908427  1
  Hf  Hf26  1  0.32322135  0.66962656  0.01584497  1
  Hf  Hf27  1  0.34137804  0.67512860  0.51625875  1
  Hf  Hf28  1  0.33227085  0.66715513  0.31748919  1
  Hf  Hf29  1  0.33710344  0.67258465  0.81496844  1
  Si  Si30  1  0.29002450  0.29944706  0.75165146  1
  Si  Si31  1  0.70447334  0.99127726  0.75091154  1
  Si  Si32  1  0.36591441  0.03128604  0.58542662  1
  Si  Si33  1  0.66755396  0.63649524  0.58189207  1
  Si  Si34  1  0.96035384  0.62543566  0.08299544  1
  Si  Si35  1  0.66148735  0.02872257  0.08406150  1
  Si  Si36  1  0.37187929  0.33752712  0.08066421  1
  Si  Si37  1  0.03259847  0.37771613  0.91385988  1
  Si  Si38  1  0.33657066  0.96814846  0.91485329  1
  Si  Si39  1  0.62166015  0.96569407  0.41683476  1
  Si  Si40  1  0.33788086  0.37951526  0.41827589  1
  Si  Si41  1  0.03521409  0.65396864  0.41826109  1
  S  S42  1  0.29795903  0.99066070  0.25107634  1
  S  S43  1  0.69287093  0.70271104  0.25090193  1
  S  S44  1  0.01008717  0.30644088  0.25129193  1
  S  S45  1  0.00866347  0.71649202  0.75189599  1
  S  S46  1  0.96224333  0.32978937  0.58346616  1
  S  S47  1  0.62515908  0.66524031  0.91621685  1
  O  O48  1  0.21664754  -0.00471548  0.30574397  1
  O  O49  1  0.77892073  0.78443556  0.30564426  1
  O  O50  1  0.00506026  0.22010686  0.30584962  1
  O  O51  1  0.17972735  0.18335814  0.80732941  1
  O  O52  1  0.99550889  0.80232203  0.80290586  1
  O  O53  1  0.81773409  0.98858491  0.80497370  1
  O  O54  1  0.79318985  0.97891484  0.68895824  1
  O  O55  1  0.17451066  0.20018875  0.69284088  1
  O  O56  1  0.02038363  0.81513757  0.69691839  1
  O  O57  1  0.79191442  0.80884604  0.19961899  1
  O  O58  1  0.01803110  0.20818739  0.19993947  1
  O  O59  1  0.19231268  0.98403718  0.19961305  1
  O  O60  1  0.89482061  0.35983122  0.63730635  1
  O  O61  1  0.48242689  0.09292318  0.64273855  1
  O  O62  1  0.62313494  0.51193668  0.63565887  1
  O  O63  1  0.90745876  0.50137833  0.13713548  1
  O  O64  1  0.58864094  0.08414840  0.13690606  1
  O  O65  1  0.49869338  0.40116739  0.13427496  1
  O  O66  1  0.45120542  0.29217840  0.02300005  1
  O  O67  1  0.82804768  0.53841996  0.02805245  1
  O  O68  1  0.71023827  0.16375749  0.02921276  1
  O  O69  1  0.46481192  0.16018880  0.52980748  1
  O  O70  1  0.70121793  0.54959847  0.52346485  1
  O  O71  1  0.85875935  0.31131081  0.53218656  1
  O  O72  1  0.54856366  0.68586063  0.96926545  1
  O  O73  1  0.15863967  0.46838771  0.96877056  1
  O  O74  1  0.32625928  0.85985161  0.97238808  1
  O  O75  1  0.52937441  0.85361928  0.47530017  1
  O  O76  1  0.32055066  0.46711078  0.47826684  1
  O  O77  1  0.14218365  0.66979436  0.47765026  1
  O  O78  1  0.13484131  0.63325273  0.36168555  1
  O  O79  1  0.49770350  0.86772334  0.36099814  1
  O  O80  1  0.36478898  0.50326088  0.36247599  1
  O  O81  1  0.12933210  0.48730939  0.85491088  1
  O  O82  1  0.35429109  0.87233621  0.85636504  1
  O  O83  1  0.51745943  0.65083943  0.86438662  1
  O  O84  1  0.01326783  0.81758216  0.41553256  1
  O  O85  1  0.80590420  0.98566573  0.41485315  1
  O  O86  1  0.17864144  0.19235878  0.41476690  1
  O  O87  1  0.01412465  0.18793231  0.91164770  1
  O  O88  1  0.16580168  0.98511272  0.91161309  1
  O  O89  1  0.79703118  0.81028960  0.91052965  1
  O  O90  1  0.97402424  0.17325741  0.58669698  1
  O  O91  1  0.18290541  0.02491537  0.59025765  1
  O  O92  1  0.84040943  0.82220979  0.58759004  1
  O  O93  1  0.97317664  0.81167487  0.09461012  1
  O  O94  1  0.83918944  0.02621803  0.09615638  1
  O  O95  1  0.18672627  0.16131734  0.09385455  1
  O  O96  1  0.70322806  0.16682511  0.75347561  1
  O  O97  1  0.46600620  0.30343647  0.75462648  1
  O  O98  1  0.87382781  0.54507308  0.74810848  1
  O  O99  1  0.67163685  0.53441516  0.24826187  1
  O  O100  1  0.86276684  0.32736604  0.24892992  1
  O  O101  1  0.46593216  0.13747258  0.24873523  1
  O  O102  1  0.62949099  0.50568292  0.91795988  1
  O  O103  1  0.84872827  0.36066762  0.92076115  1
  O  O104  1  0.49919725  0.15985780  0.91919321  1
  O  O105  1  0.63217187  0.14762790  0.42296874  1
  O  O106  1  0.51181879  0.36955530  0.42093252  1
  O  O107  1  0.85415289  0.47943917  0.42250949  1
  O  O108  1  0.32646524  0.48668410  0.06858072  1
  O  O109  1  0.15666417  0.67468122  0.06967821  1
  O  O110  1  0.52005962  0.83418360  0.06832352  1
  O  O111  1  0.32405023  0.83559122  0.57534803  1
  O  O112  1  0.50359697  0.66587265  0.57728122  1
  O  O113  1  0.13990534  0.47661757  0.57722644  1
  O  O114  1  0.30489758  0.82949572  0.24916081  1
  O  O115  1  0.52491256  0.69541183  0.24923965  1
  O  O116  1  0.17016925  0.47523857  0.24976216  1
  O  O117  1  0.29600077  0.48226819  0.75374012  1
  O  O118  1  0.17425090  0.71623962  0.75185572  1
  O  O119  1  0.51100384  0.83007370  0.75419536  1
