# generated using pymatgen
data_Li3AsS3
_symmetry_space_group_name_H-M   'P 1'
_cell_length_a   6.64129102
_cell_length_b   8.04813258
_cell_length_c   9.81699727
_cell_angle_alpha   90.00000000
_cell_angle_beta   90.00000000
_cell_angle_gamma   90.00000000
_symmetry_Int_Tables_number   1
_chemical_formula_structural   Li3AsS3
_chemical_formula_sum   'Li12 As4 S12'
_cell_volume   524.71841211
_cell_formula_units_Z   4
loop_
 _symmetry_equiv_pos_site_id
 _symmetry_equiv_pos_as_xyz
  1  'x, y, z'
loop_
 _atom_site_type_symbol
 _atom_site_label
 _atom_site_symmetry_multiplicity
 _atom_site_fract_x
 _atom_site_fract_y
 _atom_site_fract_z
 _atom_site_occupancy
  Li  Li0  1  0.11847095  0.75156063  0.11121248  1
  Li  Li1  1  0.88152905  0.24843937  0.61121248  1
  Li  Li2  1  0.38152905  0.25156063  0.11121248  1
  Li  Li3  1  0.61847095  0.74843937  0.61121248  1
  Li  Li4  1  0.35351391  0.07924493  0.80992521  1
  Li  Li5  1  0.64648609  0.92075507  0.30992521  1
  Li  Li6  1  0.45061105  0.56700871  0.27932364  1
  Li  Li7  1  0.54938895  0.43299129  0.77932364  1
  Li  Li8  1  0.04938895  0.06700871  0.27932364  1
  Li  Li9  1  0.95061105  0.93299129  0.77932364  1
  Li  Li10  1  0.14648609  0.57924493  0.80992521  1
  Li  Li11  1  0.85351391  0.42075507  0.30992521  1
  As  As12  1  0.09845039  0.75415178  0.49954637  1
  As  As13  1  0.90154961  0.24584822  0.99954637  1
  As  As14  1  0.40154961  0.25415178  0.49954637  1
  As  As15  1  0.59845039  0.74584822  0.99954637  1
  S  S16  1  0.79162814  0.66004133  0.82486996  1
  S  S17  1  0.20837186  0.33995867  0.32486996  1
  S  S18  1  0.70837186  0.16004133  0.82486996  1
  S  S19  1  0.29162814  0.83995867  0.32486996  1
  S  S20  1  0.21808225  0.31641554  0.68616324  1
  S  S21  1  0.78191775  0.68358446  0.18616324  1
  S  S22  1  0.35971523  0.54317617  0.00965710  1
  S  S23  1  0.64028477  0.45682383  0.50965710  1
  S  S24  1  0.14028477  0.04317617  0.00965710  1
  S  S25  1  0.85971523  0.95682383  0.50965710  1
  S  S26  1  0.28191775  0.81641554  0.68616324  1
  S  S27  1  0.71808225  0.18358446  0.18616324  1
