# generated using pymatgen
data_MgGe(SO4)3
_symmetry_space_group_name_H-M   'P 1'
_cell_length_a   8.47288708
_cell_length_b   8.47288682
_cell_length_c   21.80241285
_cell_angle_alpha   90.00000000
_cell_angle_beta   90.00000000
_cell_angle_gamma   120.00000100
_symmetry_Int_Tables_number   1
_chemical_formula_structural   MgGe(SO4)3
_chemical_formula_sum   'Mg6 Ge6 S18 O72'
_cell_volume   1355.49528248
_cell_formula_units_Z   6
loop_
 _symmetry_equiv_pos_site_id
 _symmetry_equiv_pos_as_xyz
  1  'x, y, z'
loop_
 _atom_site_type_symbol
 _atom_site_label
 _atom_site_symmetry_multiplicity
 _atom_site_fract_x
 _atom_site_fract_y
 _atom_site_fract_z
 _atom_site_occupancy
  Mg  Mg0  1  -0.00000000  0.00000000  0.35722754  1
  Mg  Mg1  1  -0.00000000  0.00000000  0.85722754  1
  Mg  Mg2  1  0.66666700  0.33333300  0.69056054  1
  Mg  Mg3  1  0.66666700  0.33333300  0.19056054  1
  Mg  Mg4  1  0.33333300  0.66666700  0.02389454  1
  Mg  Mg5  1  0.33333300  0.66666700  0.52389454  1
  Ge  Ge6  1  -0.00000000  0.00000000  0.64854667  1
  Ge  Ge7  1  -0.00000000  0.00000000  0.14854667  1
  Ge  Ge8  1  0.66666700  0.33333300  0.98187967  1
  Ge  Ge9  1  0.66666700  0.33333300  0.48187967  1
  Ge  Ge10  1  0.33333300  0.66666700  0.31521367  1
  Ge  Ge11  1  0.33333300  0.66666700  0.81521367  1
  S  S12  1  0.28461159  0.98872408  0.25148849  1
  S  S13  1  0.70411249  0.71538841  0.25148849  1
  S  S14  1  0.01127592  0.29588751  0.25148849  1
  S  S15  1  0.28461159  0.29588751  0.75148849  1
  S  S16  1  0.01127592  0.71538841  0.75148849  1
  S  S17  1  0.70411249  0.98872408  0.75148849  1
  S  S18  1  0.95127859  0.32205708  0.58482149  1
  S  S19  1  0.37077949  0.04872141  0.58482149  1
  S  S20  1  0.67794292  0.62922051  0.58482149  1
  S  S21  1  0.95127859  0.62922051  0.08482149  1
  S  S22  1  0.67794292  0.04872141  0.08482149  1
  S  S23  1  0.37077949  0.32205708  0.08482149  1
  S  S24  1  0.61794459  0.65539108  0.91815549  1
  S  S25  1  0.03744549  0.38205541  0.91815549  1
  S  S26  1  0.34460892  0.96255451  0.91815549  1
  S  S27  1  0.61794459  0.96255451  0.41815549  1
  S  S28  1  0.34460892  0.38205541  0.41815549  1
  S  S29  1  0.03744549  0.65539108  0.41815549  1
  O  O30  1  0.19988563  0.01623921  0.30465556  1
  O  O31  1  0.81635357  0.80011437  0.30465556  1
  O  O32  1  0.98376079  0.18364643  0.30465556  1
  O  O33  1  0.19988563  0.18364643  0.80465556  1
  O  O34  1  0.98376079  0.80011437  0.80465556  1
  O  O35  1  0.81635357  0.01623921  0.80465556  1
  O  O36  1  0.78148377  0.94569652  0.69379604  1
  O  O37  1  0.16421275  0.21851623  0.69379604  1
  O  O38  1  0.05430348  0.83578725  0.69379604  1
  O  O39  1  0.78148377  0.83578725  0.19379604  1
  O  O40  1  0.05430348  0.21851623  0.19379604  1
  O  O41  1  0.16421275  0.94569652  0.19379604  1
  O  O42  1  0.86655263  0.34957221  0.63798856  1
  O  O43  1  0.48302057  0.13344737  0.63798856  1
  O  O44  1  0.65042779  0.51697943  0.63798856  1
  O  O45  1  0.86655263  0.51697943  0.13798856  1
  O  O46  1  0.65042779  0.13344737  0.13798856  1
  O  O47  1  0.48302057  0.34957221  0.13798856  1
  O  O48  1  0.44815077  0.27902952  0.02712904  1
  O  O49  1  0.83087975  0.55184923  0.02712904  1
  O  O50  1  0.72097048  0.16912025  0.02712904  1
  O  O51  1  0.44815077  0.16912025  0.52712904  1
  O  O52  1  0.72097048  0.55184923  0.52712904  1
  O  O53  1  0.83087975  0.27902952  0.52712904  1
  O  O54  1  0.53321863  0.68290621  0.97132256  1
  O  O55  1  0.14968657  0.46678137  0.97132256  1
  O  O56  1  0.31709379  0.85031343  0.97132256  1
  O  O57  1  0.53321863  0.85031343  0.47132256  1
  O  O58  1  0.31709379  0.46678137  0.47132256  1
  O  O59  1  0.14968657  0.68290621  0.47132256  1
  O  O60  1  0.11481677  0.61236352  0.36046304  1
  O  O61  1  0.49754575  0.88518323  0.36046304  1
  O  O62  1  0.38763648  0.50245425  0.36046304  1
  O  O63  1  0.11481677  0.50245425  0.86046304  1
  O  O64  1  0.38763648  0.88518323  0.86046304  1
  O  O65  1  0.49754575  0.61236352  0.86046304  1
  O  O66  1  0.01212032  0.80939107  0.40768190  1
  O  O67  1  0.79727075  0.98787968  0.40768190  1
  O  O68  1  0.19060893  0.20272925  0.40768190  1
  O  O69  1  0.01212032  0.20272925  0.90768190  1
  O  O70  1  0.19060893  0.98787968  0.90768190  1
  O  O71  1  0.79727075  0.80939107  0.90768190  1
  O  O72  1  0.96133286  0.14919255  0.59045327  1
  O  O73  1  0.18785969  0.03866714  0.59045327  1
  O  O74  1  0.85080745  0.81214031  0.59045327  1
  O  O75  1  0.96133286  0.81214031  0.09045327  1
  O  O76  1  0.85080745  0.03866714  0.09045327  1
  O  O77  1  0.18785969  0.14919255  0.09045327  1
  O  O78  1  0.67878732  0.14272407  0.74101490  1
  O  O79  1  0.46393775  0.32121268  0.74101490  1
  O  O80  1  0.85727593  0.53606225  0.74101490  1
  O  O81  1  0.67878732  0.53606225  0.24101490  1
  O  O82  1  0.85727593  0.32121268  0.24101490  1
  O  O83  1  0.46393775  0.14272407  0.24101490  1
  O  O84  1  0.62799986  0.48252555  0.92378627  1
  O  O85  1  0.85452669  0.37200014  0.92378627  1
  O  O86  1  0.51747445  0.14547331  0.92378627  1
  O  O87  1  0.62799986  0.14547331  0.42378627  1
  O  O88  1  0.51747445  0.37200014  0.42378627  1
  O  O89  1  0.85452669  0.48252555  0.42378627  1
  O  O90  1  0.34545332  0.47605807  0.07434890  1
  O  O91  1  0.13060375  0.65454668  0.07434890  1
  O  O92  1  0.52394193  0.86939625  0.07434890  1
  O  O93  1  0.34545332  0.86939625  0.57434890  1
  O  O94  1  0.52394193  0.65454668  0.57434890  1
  O  O95  1  0.13060375  0.47605807  0.57434890  1
  O  O96  1  0.29466586  0.81585955  0.25712027  1
  O  O97  1  0.52119269  0.70533414  0.25712027  1
  O  O98  1  0.18414045  0.47880731  0.25712027  1
  O  O99  1  0.29466586  0.47880731  0.75712027  1
  O  O100  1  0.18414045  0.70533414  0.75712027  1
  O  O101  1  0.52119269  0.81585955  0.75712027  1
