# generated using pymatgen
data_Na5Ca2Zr2P5SO24
_symmetry_space_group_name_H-M   'P 1'
_cell_length_a   9.22516890
_cell_length_b   9.22327154
_cell_length_c   22.95387840
_cell_angle_alpha   90.09576043
_cell_angle_beta   89.84193850
_cell_angle_gamma   119.94751793
_symmetry_Int_Tables_number   1
_chemical_formula_structural   Na5Ca2Zr2P5SO24
_chemical_formula_sum   'Na15 Ca6 Zr6 P15 S3 O72'
_cell_volume   1692.28608228
_cell_formula_units_Z   3
loop_
 _symmetry_equiv_pos_site_id
 _symmetry_equiv_pos_as_xyz
  1  'x, y, z'
loop_
 _atom_site_type_symbol
 _atom_site_label
 _atom_site_symmetry_multiplicity
 _atom_site_fract_x
 _atom_site_fract_y
 _atom_site_fract_z
 _atom_site_occupancy
  Na  Na0  1  0.64493749  0.00412644  0.25340743  1
  Na  Na1  1  0.37351070  0.37894106  0.24260902  1
  Na  Na2  1  0.98883028  0.61789918  0.25207996  1
  Na  Na3  1  0.64562338  0.63266493  0.74400076  1
  Na  Na4  1  0.98307679  0.34751925  0.74436109  1
  Na  Na5  1  0.36733894  0.01919442  0.74427753  1
  Na  Na6  1  0.30610803  0.96278900  0.07013718  1
  Na  Na7  1  0.03079323  0.34866808  0.07251865  1
  Na  Na8  1  0.70732325  0.67898496  0.41891047  1
  Na  Na9  1  0.00473499  0.00252642  0.50126595  1
  Na  Na10  1  0.00202636  0.00029269  0.98565639  1
  Na  Na11  1  0.66626961  0.32631164  0.83455711  1
  Na  Na12  1  0.69191862  0.32667973  0.33800731  1
  Na  Na13  1  0.35124093  0.65903222  0.15888853  1
  Na  Na14  1  0.33638239  0.66407356  0.66296547  1
  Ca  Ca15  1  0.99989433  0.00416214  0.35707372  1
  Ca  Ca16  1  0.00576701  0.00628910  0.85209311  1
  Ca  Ca17  1  0.66849772  0.33421323  0.67439459  1
  Ca  Ca18  1  0.66927313  0.33979279  0.17930583  1
  Ca  Ca19  1  0.33804725  0.66473996  0.01424175  1
  Ca  Ca20  1  0.32767623  0.67000850  0.32044068  1
  Zr  Zr21  1  0.99794561  0.99853605  0.64684270  1
  Zr  Zr22  1  0.98620996  0.99416174  0.14405657  1
  Zr  Zr23  1  0.66752140  0.33268029  0.98212675  1
  Zr  Zr24  1  0.67363763  0.32788806  0.49019877  1
  Zr  Zr25  1  0.32904514  0.67394087  0.51772184  1
  Zr  Zr26  1  0.32444259  0.66837477  0.81976693  1
  P  P27  1  0.70355510  0.70466952  0.25272850  1
  P  P28  1  0.00305244  0.29564576  0.24769641  1
  P  P29  1  0.29429916  0.30161063  0.74918610  1
  P  P30  1  0.00414965  0.70675635  0.75012842  1
  P  P31  1  0.69849493  0.99226258  0.75027150  1
  P  P32  1  0.97762416  0.33279250  0.58675764  1
  P  P33  1  0.35856924  0.03009611  0.58609225  1
  P  P34  1  0.66645543  0.64114787  0.58339746  1
  P  P35  1  0.96547809  0.63562945  0.08520519  1
  P  P36  1  0.66846425  0.03781142  0.08600975  1
  P  P37  1  0.36072475  0.32438238  0.08685966  1
  P  P38  1  0.02438424  0.36827975  0.92071229  1
  P  P39  1  0.34234145  0.97463315  0.92107253  1
  P  P40  1  0.62843803  0.97108014  0.41657781  1
  P  P41  1  0.02226743  0.65633314  0.41715106  1
  S  S42  1  0.29028936  0.99818367  0.24726368  1
  S  S43  1  0.62874875  0.65560286  0.91506690  1
  S  S44  1  0.34693445  0.37305027  0.41929694  1
  O  O45  1  0.20580834  0.01190100  0.29906128  1
  O  O46  1  0.79684321  0.78216236  0.30928167  1
  O  O47  1  0.99305003  0.19211076  0.30039721  1
  O  O48  1  0.22249233  0.19424052  0.80263631  1
  O  O49  1  0.97155256  0.78089095  0.80350019  1
  O  O50  1  0.80587330  0.02418181  0.80335894  1
  O  O51  1  0.79015652  0.96733320  0.69582844  1
  O  O52  1  0.17621873  0.20843081  0.69558950  1
  O  O53  1  0.03129661  0.82261077  0.69586772  1
  O  O54  1  0.81388473  0.81808014  0.19948398  1
  O  O55  1  0.00863785  0.19821952  0.19085251  1
  O  O56  1  0.19436145  0.99137945  0.19336745  1
  O  O57  1  0.92053749  0.36490100  0.64496889  1
  O  O58  1  0.44622144  0.08453947  0.64449237  1
  O  O59  1  0.63453889  0.54922607  0.64109596  1
  O  O60  1  0.89973040  0.54587599  0.14319223  1
  O  O61  1  0.65116056  0.10776634  0.14403284  1
  O  O62  1  0.44359870  0.34190826  0.14582214  1
  O  O63  1  0.46781749  0.30859807  0.03634467  1
  O  O64  1  0.84572340  0.53227883  0.03406509  1
  O  O65  1  0.69235526  0.16374042  0.03537565  1
  O  O66  1  0.46649903  0.15518881  0.53708702  1
  O  O67  1  0.68808408  0.53951715  0.53251427  1
  O  O68  1  0.84917458  0.31291893  0.53815821  1
  O  O69  1  0.54849022  0.67030294  0.96732840  1
  O  O70  1  0.11634718  0.44611715  0.97694769  1
  O  O71  1  0.33427773  0.88403491  0.97703996  1
  O  O72  1  0.50814419  0.84378817  0.46300575  1
  O  O73  1  0.33617366  0.47531040  0.46705148  1
  O  O74  1  0.14168949  0.65776807  0.46510044  1
  O  O75  1  0.08106614  0.63629836  0.35670210  1
  O  O76  1  0.54964516  0.91567388  0.35601868  1
  O  O77  1  0.36811245  0.45961249  0.36278960  1
  O  O78  1  0.13009517  0.48589832  0.86675847  1
  O  O79  1  0.35787952  0.87170157  0.86687734  1
  O  O80  1  0.52536166  0.64144068  0.86154089  1
  O  O81  1  0.00379297  0.81194939  0.42350290  1
  O  O82  1  0.79536045  0.97384405  0.42302551  1
  O  O83  1  0.20034053  0.20521309  0.42101656  1
  O  O84  1  0.99439449  0.19231254  0.91393236  1
  O  O85  1  0.19145688  0.99696091  0.91496478  1
  O  O86  1  0.79780250  0.79764522  0.91051059  1
  O  O87  1  0.98560550  0.16884358  0.58685783  1
  O  O88  1  0.18458382  0.01760062  0.58659322  1
  O  O89  1  0.82996823  0.81511481  0.58621437  1
  O  O90  1  0.97894829  0.81247227  0.08575311  1
  O  O91  1  0.83754964  0.03316645  0.08491219  1
  O  O92  1  0.18884665  0.15185076  0.08556255  1
  O  O93  1  0.66688069  0.14016599  0.74189995  1
  O  O94  1  0.47419540  0.33524200  0.74037355  1
  O  O95  1  0.85971030  0.52667665  0.74143753  1
  O  O96  1  0.67871266  0.52679125  0.24801496  1
  O  O97  1  0.84515356  0.31431488  0.24747198  1
  O  O98  1  0.46202362  0.14540788  0.24580632  1
  O  O99  1  0.63363630  0.49458468  0.91709978  1
  O  O100  1  0.85339511  0.36800430  0.92053932  1
  O  O101  1  0.50870396  0.14954670  0.92093827  1
  O  O102  1  0.65030096  0.14752020  0.42950554  1
  O  O103  1  0.50435748  0.36423185  0.42736865  1
  O  O104  1  0.84237443  0.49929117  0.42747762  1
  O  O105  1  0.32200218  0.46582866  0.07924562  1
  O  O106  1  0.14288416  0.66311400  0.07780507  1
  O  O107  1  0.51817305  0.86486420  0.07768031  1
  O  O108  1  0.33176679  0.85245876  0.57201201  1
  O  O109  1  0.51651128  0.66849921  0.56964449  1
  O  O110  1  0.15259397  0.48193218  0.57172842  1
  O  O111  1  0.30000487  0.84159079  0.24726099  1
  O  O112  1  0.53375132  0.70016608  0.24810608  1
  O  O113  1  0.16468051  0.46942288  0.24596069  1
  O  O114  1  0.29769426  0.47498389  0.75487094  1
  O  O115  1  0.17461940  0.70225142  0.75596640  1
  O  O116  1  0.52394733  0.82376351  0.75535697  1
