# generated using pymatgen
data_MgV4O10
_symmetry_space_group_name_H-M   'P 1'
_cell_length_a   3.72646200
_cell_length_b   6.60506564
_cell_length_c   7.37688116
_cell_angle_alpha   89.66837728
_cell_angle_beta   90.00000000
_cell_angle_gamma   90.00000000
_symmetry_Int_Tables_number   1
_chemical_formula_structural   MgV4O10
_chemical_formula_sum   'Mg1 V4 O10'
_cell_volume   181.56801583
_cell_formula_units_Z   1
loop_
 _symmetry_equiv_pos_site_id
 _symmetry_equiv_pos_as_xyz
  1  'x, y, z'
loop_
 _atom_site_type_symbol
 _atom_site_label
 _atom_site_symmetry_multiplicity
 _atom_site_fract_x
 _atom_site_fract_y
 _atom_site_fract_z
 _atom_site_occupancy
  Mg  Mg0  1  0.25000000  0.98084800  0.56638600  1
  V  V1  1  0.75000100  0.71178500  0.75634400  1
  V  V2  1  0.25000100  0.27359300  0.24886300  1
  V  V3  1  0.75000100  0.19509600  0.91254900  1
  V  V4  1  0.25000100  0.80510800  0.09197100  1
  O  O5  1  0.25000100  0.75686700  0.81792600  1
  O  O6  1  0.75000100  0.25885700  0.16633400  1
  O  O7  1  0.75000100  0.03689600  0.71222600  1
  O  O8  1  0.25000100  0.95867100  0.28489600  1
  O  O9  1  0.75000100  0.42995600  0.81923300  1
  O  O10  1  0.25000100  0.56761400  0.17425500  1
  O  O11  1  0.25000100  0.14923400  0.96589000  1
  O  O12  1  0.75000100  0.72420200  0.53024300  1
  O  O13  1  0.25000100  0.27727900  0.47491800  1
  O  O14  1  0.75000100  0.84274300  0.02796700  1
