# generated using pymatgen
data_Na4Ca2Al2SiS5O24
_symmetry_space_group_name_H-M   'P 1'
_cell_length_a   8.91544153
_cell_length_b   8.88714026
_cell_length_c   22.59073077
_cell_angle_alpha   90.14353501
_cell_angle_beta   89.98230131
_cell_angle_gamma   119.79810586
_symmetry_Int_Tables_number   1
_chemical_formula_structural   Na4Ca2Al2SiS5O24
_chemical_formula_sum   'Na12 Ca6 Al6 Si3 S15 O72'
_cell_volume   1553.25991243
_cell_formula_units_Z   3
loop_
 _symmetry_equiv_pos_site_id
 _symmetry_equiv_pos_as_xyz
  1  'x, y, z'
loop_
 _atom_site_type_symbol
 _atom_site_label
 _atom_site_symmetry_multiplicity
 _atom_site_fract_x
 _atom_site_fract_y
 _atom_site_fract_z
 _atom_site_occupancy
  Na  Na0  1  0.99790018  0.63139853  0.23908324  1
  Na  Na1  1  0.99746463  0.36406623  0.75550276  1
  Na  Na2  1  0.37584509  0.99617951  0.74850357  1
  Na  Na3  1  0.65919349  0.97633528  0.59281534  1
  Na  Na4  1  0.68180816  0.68129056  0.07813951  1
  Na  Na5  1  0.33714941  0.04150573  0.42589118  1
  Na  Na6  1  0.02440275  0.00534283  0.50944583  1
  Na  Na7  1  0.01629140  0.99140863  0.00354330  1
  Na  Na8  1  0.66501476  0.33792973  0.83924726  1
  Na  Na9  1  0.66570065  0.33376782  0.32938148  1
  Na  Na10  1  0.31088480  0.66175792  0.15584050  1
  Na  Na11  1  0.34973982  0.67379535  0.66377098  1
  Ca  Ca12  1  0.99301661  0.00412978  0.35758246  1
  Ca  Ca13  1  0.67293270  0.33362269  0.17057248  1
  Ca  Ca14  1  0.67468930  0.34003127  0.98805600  1
  Ca  Ca15  1  0.65718697  0.33135705  0.49160311  1
  Ca  Ca16  1  0.33992814  0.66304048  0.30802890  1
  Ca  Ca17  1  0.34996640  0.67419904  0.81152497  1
  Al  Al18  1  0.97697219  0.99848304  0.85344213  1
  Al  Al19  1  0.00093381  0.99278856  0.65049584  1
  Al  Al20  1  0.00649289  0.00378176  0.14712657  1
  Al  Al21  1  0.65658203  0.30670331  0.67969947  1
  Al  Al22  1  0.31714303  0.66679963  0.01437948  1
  Al  Al23  1  0.32462830  0.67141291  0.52159801  1
  Si  Si24  1  0.72485139  0.01233441  0.74452266  1
  Si  Si25  1  0.34824754  0.02036691  0.58391792  1
  Si  Si26  1  0.99255289  0.66014846  0.08589236  1
  S  S27  1  0.29111648  0.00823682  0.24843066  1
  S  S28  1  0.71329088  0.71316873  0.24399159  1
  S  S29  1  0.99543140  0.28457039  0.24441602  1
  S  S30  1  0.28811760  0.27169519  0.74686544  1
  S  S31  1  0.97921418  0.71046277  0.75024164  1
  S  S32  1  0.97489050  0.33537405  0.58697291  1
  S  S33  1  0.66911451  0.63250980  0.58922681  1
  S  S34  1  0.66283919  0.00875354  0.08180839  1
  S  S35  1  0.34382438  0.33663275  0.08113371  1
  S  S36  1  0.64154425  0.68139232  0.91666059  1
  S  S37  1  0.04674886  0.36241444  0.91306403  1
  S  S38  1  0.31524391  0.95832375  0.91313403  1
  S  S39  1  0.61917651  0.94885252  0.42465325  1
  S  S40  1  0.33256842  0.38520129  0.42484468  1
  S  S41  1  0.04583746  0.66339843  0.42032493  1
  O  O42  1  0.22031220  0.01367970  0.30741114  1
  O  O43  1  0.80328020  0.79373980  0.29983024  1
  O  O44  1  0.99871062  0.20520770  0.30073059  1
  O  O45  1  0.21535390  0.16861607  0.80194134  1
  O  O46  1  0.96748394  0.79673711  0.80529570  1
  O  O47  1  0.84495821  0.04219172  0.80451158  1
  O  O48  1  0.82920721  0.00372997  0.68703266  1
  O  O49  1  0.18147444  0.18060921  0.69492685  1
  O  O50  1  0.00922003  0.82113649  0.69801137  1
  O  O51  1  0.81665244  0.81533000  0.19193022  1
  O  O52  1  0.99128611  0.17791388  0.19305201  1
  O  O53  1  0.17767846  0.00841888  0.20015992  1
  O  O54  1  0.88952606  0.36670468  0.63977453  1
  O  O55  1  0.50251948  0.12844624  0.63599535  1
  O  O56  1  0.64821878  0.51136316  0.63866638  1
  O  O57  1  0.93037159  0.54849267  0.14673308  1
  O  O58  1  0.61446750  0.07037523  0.13472531  1
  O  O59  1  0.45929051  0.38371456  0.13328720  1
  O  O60  1  0.41018114  0.28272081  0.03088904  1
  O  O61  1  0.83945886  0.57193862  0.03659659  1
  O  O62  1  0.69920081  0.12044475  0.03041058  1
  O  O63  1  0.40741523  0.12167468  0.52193980  1
  O  O64  1  0.70609283  0.57657057  0.53280826  1
  O  O65  1  0.86437177  0.29604590  0.53456781  1
  O  O66  1  0.55040776  0.69549359  0.97016502  1
  O  O67  1  0.16319092  0.46315665  0.96326984  1
  O  O68  1  0.30316676  0.84052234  0.96264802  1
  O  O69  1  0.52040643  0.84992735  0.47868074  1
  O  O70  1  0.33574174  0.48928217  0.47776871  1
  O  O71  1  0.15693580  0.66738932  0.47104202  1
  O  O72  1  0.12166361  0.65801370  0.36300826  1
  O  O73  1  0.52529352  0.86459671  0.37015935  1
  O  O74  1  0.33020311  0.46672707  0.36927171  1
  O  O75  1  0.11468870  0.45313168  0.85629400  1
  O  O76  1  0.33883572  0.89204883  0.85578383  1
  O  O77  1  0.54357596  0.66200053  0.86270919  1
  O  O78  1  0.04326715  0.83005824  0.42526116  1
  O  O79  1  0.79005580  0.96218787  0.42807419  1
  O  O80  1  0.17681195  0.20916022  0.42959044  1
  O  O81  1  0.04135204  0.18938963  0.91047000  1
  O  O82  1  0.14860346  0.96296904  0.91064176  1
  O  O83  1  0.81435054  0.84835308  0.91238329  1
  O  O84  1  0.99795692  0.18211471  0.59547501  1
  O  O85  1  0.15767597  0.99165041  0.60078650  1
  O  O86  1  0.81537205  0.81267429  0.59927614  1
  O  O87  1  0.01691173  0.85701401  0.09611267  1
  O  O88  1  0.81977157  0.99138472  0.09347126  1
  O  O89  1  0.16586431  0.19664882  0.09554510  1
  O  O90  1  0.70495995  0.19409372  0.73863811  1
  O  O91  1  0.46666877  0.29604710  0.73974350  1
  O  O92  1  0.82269640  0.53698320  0.74385792  1
  O  O93  1  0.69492294  0.53726842  0.24304388  1
  O  O94  1  0.84019553  0.30551120  0.24501241  1
  O  O95  1  0.46686085  0.15633279  0.24395497  1
  O  O96  1  0.66992734  0.53251561  0.92018589  1
  O  O97  1  0.87127485  0.33435492  0.92106660  1
  O  O98  1  0.46287619  0.13350738  0.92210264  1
  O  O99  1  0.63632440  0.12423921  0.42459978  1
  O  O100  1  0.48775682  0.36397373  0.42324222  1
  O  O101  1  0.87156156  0.51338088  0.42424765  1
  O  O102  1  0.33774527  0.49837303  0.06613366  1
  O  O103  1  0.17762172  0.67777455  0.06601680  1
  O  O104  1  0.51771833  0.82770429  0.06868133  1
  O  O105  1  0.34806087  0.83119995  0.57715402  1
  O  O106  1  0.50852406  0.64637775  0.58475379  1
  O  O107  1  0.14728660  0.49322909  0.57910425  1
  O  O108  1  0.29122594  0.84015963  0.24278602  1
  O  O109  1  0.54279812  0.70107920  0.24007704  1
  O  O110  1  0.15206060  0.45996328  0.23926576  1
  O  O111  1  0.29682982  0.44236971  0.74922669  1
  O  O112  1  0.13300022  0.68429006  0.75258114  1
  O  O113  1  0.52775617  0.85124270  0.74336514  1
