# generated using pymatgen
data_Na6Hf2Si5Sn2SO24
_symmetry_space_group_name_H-M   'P 1'
_cell_length_a   9.09464538
_cell_length_b   9.09513621
_cell_length_c   22.91075225
_cell_angle_alpha   90.16842235
_cell_angle_beta   89.76015542
_cell_angle_gamma   119.94711586
_symmetry_Int_Tables_number   1
_chemical_formula_structural   Na6Hf2Si5Sn2SO24
_chemical_formula_sum   'Na18 Hf6 Si15 Sn6 S3 O72'
_cell_volume   1642.07175530
_cell_formula_units_Z   3
loop_
 _symmetry_equiv_pos_site_id
 _symmetry_equiv_pos_as_xyz
  1  'x, y, z'
loop_
 _atom_site_type_symbol
 _atom_site_label
 _atom_site_symmetry_multiplicity
 _atom_site_fract_x
 _atom_site_fract_y
 _atom_site_fract_z
 _atom_site_occupancy
  Na  Na0  1  0.63612823  0.00040041  0.25178405  1
  Na  Na1  1  0.36395694  0.36429618  0.24762235  1
  Na  Na2  1  0.00133214  0.63550168  0.25011480  1
  Na  Na3  1  0.63521987  0.63440797  0.74830232  1
  Na  Na4  1  0.99750530  0.36288819  0.75034082  1
  Na  Na5  1  0.36722285  0.00393418  0.75066853  1
  Na  Na6  1  0.30199655  0.33256916  0.58503539  1
  Na  Na7  1  0.02943154  0.69837343  0.58298997  1
  Na  Na8  1  0.66934963  0.96912962  0.58322090  1
  Na  Na9  1  0.03879676  0.33710225  0.08472881  1
  Na  Na10  1  0.97526197  0.66768495  0.91742240  1
  Na  Na11  1  0.33394958  0.02549251  0.41641087  1
  Na  Na12  1  0.98788709  0.99188401  0.49882783  1
  Na  Na13  1  0.01411301  0.00548164  0.00010228  1
  Na  Na14  1  0.66143531  0.32084657  0.83451722  1
  Na  Na15  1  0.67906750  0.33765073  0.33458297  1
  Na  Na16  1  0.33334836  0.66637080  0.16549089  1
  Na  Na17  1  0.33458465  0.66612314  0.66674272  1
  Hf  Hf18  1  0.98687890  0.98988732  0.35163789  1
  Hf  Hf19  1  0.99953113  0.99974330  0.64846999  1
  Hf  Hf20  1  0.66735731  0.33360079  0.68507444  1
  Hf  Hf21  1  0.68176232  0.33660060  0.48102538  1
  Hf  Hf22  1  0.33659076  0.67757943  0.51907455  1
  Hf  Hf23  1  0.32516882  0.67040762  0.81494657  1
  Si  Si24  1  0.29485638  0.00308767  0.25135057  1
  Si  Si25  1  0.70762478  0.71032069  0.24850531  1
  Si  Si26  1  0.99914265  0.28922001  0.24879063  1
  Si  Si27  1  0.29428055  0.29454771  0.74942264  1
  Si  Si28  1  0.99773811  0.71058164  0.75163340  1
  Si  Si29  1  0.70942535  0.99890665  0.75127261  1
  Si  Si30  1  0.96159117  0.33312781  0.58405638  1
  Si  Si31  1  0.37591397  0.04528644  0.58212576  1
  Si  Si32  1  0.66573355  0.62399731  0.58304570  1
  Si  Si33  1  0.95453548  0.62809186  0.08239411  1
  Si  Si34  1  0.37489428  0.33515440  0.08267948  1
  Si  Si35  1  0.03449263  0.36608050  0.91710226  1
  Si  Si36  1  0.33656039  0.96379942  0.91783400  1
  Si  Si37  1  0.62906233  0.96082698  0.41631773  1
  Si  Si38  1  0.03848424  0.66606093  0.41593548  1
  Sn  Sn39  1  0.01251664  0.01377486  0.85167120  1
  Sn  Sn40  1  0.01080234  0.99571138  0.14883434  1
  Sn  Sn41  1  0.66725208  0.34345258  0.18508446  1
  Sn  Sn42  1  0.66063371  0.32869059  0.98139202  1
  Sn  Sn43  1  0.31595890  0.65690930  0.01843476  1
  Sn  Sn44  1  0.33031007  0.67253806  0.31427398  1
  S  S45  1  0.66482960  0.03788474  0.08350199  1
  S  S46  1  0.62391446  0.66825927  0.91697752  1
  S  S47  1  0.33350286  0.37533273  0.41650300  1
  O  O48  1  0.21366589  0.04219599  0.30887452  1
  O  O49  1  0.83118285  0.79339906  0.30485557  1
  O  O50  1  0.96464365  0.16642061  0.30458722  1
  O  O51  1  0.21615651  0.16934326  0.80523674  1
  O  O52  1  0.95812728  0.79038949  0.80983064  1
  O  O53  1  0.83403758  0.03813505  0.80690786  1
  O  O54  1  0.79048634  0.96346430  0.69236804  1
  O  O55  1  0.17369740  0.21217538  0.69187790  1
  O  O56  1  0.03650423  0.82894916  0.69364944  1
  O  O57  1  0.78875550  0.83618988  0.19255211  1
  O  O58  1  0.03656674  0.21099411  0.18946811  1
  O  O59  1  0.17151691  0.95555953  0.19500445  1
  O  O60  1  0.87914856  0.37157391  0.64155207  1
  O  O61  1  0.49471285  0.12571140  0.64012577  1
  O  O62  1  0.63113949  0.50740183  0.64160294  1
  O  O63  1  0.87898511  0.50255198  0.14041470  1
  O  O64  1  0.63495621  0.11258828  0.13740336  1
  O  O65  1  0.48426909  0.36497311  0.14305431  1
  O  O66  1  0.46063466  0.29780692  0.02645506  1
  O  O67  1  0.84196659  0.53862552  0.02351147  1
  O  O68  1  0.69860836  0.14942366  0.03167434  1
  O  O69  1  0.45977542  0.16352786  0.52480595  1
  O  O70  1  0.69983089  0.53285434  0.52791487  1
  O  O71  1  0.83568792  0.29575090  0.52879477  1
  O  O72  1  0.54494800  0.69444847  0.96960798  1
  O  O73  1  0.15141879  0.44854547  0.97528894  1
  O  O74  1  0.30022804  0.83600936  0.97355561  1
  O  O75  1  0.53861593  0.84251764  0.47395892  1
  O  O76  1  0.30882347  0.45656372  0.46905575  1
  O  O77  1  0.15992736  0.69647871  0.47317854  1
  O  O78  1  0.12143455  0.63115041  0.35715925  1
  O  O79  1  0.50755416  0.87645966  0.35825129  1
  O  O80  1  0.36107067  0.47880885  0.36296724  1
  O  O81  1  0.12451146  0.49137131  0.86034710  1
  O  O82  1  0.36401520  0.87525140  0.85914966  1
  O  O83  1  0.51996366  0.64256921  0.86383838  1
  O  O84  1  0.03875233  0.84672412  0.41072060  1
  O  O85  1  0.81715515  0.98245125  0.41131369  1
  O  O86  1  0.18128952  0.20437585  0.41137194  1
  O  O87  1  0.01414513  0.17793970  0.91216167  1
  O  O88  1  0.15368535  0.96218141  0.91191231  1
  O  O89  1  0.79679142  0.81796750  0.91181918  1
  O  O90  1  0.97805440  0.16307593  0.58900746  1
  O  O91  1  0.18636298  0.02172960  0.58886795  1
  O  O92  1  0.83471002  0.81230428  0.58907027  1
  O  O93  1  0.97037505  0.81449512  0.08805009  1
  O  O94  1  0.82267145  0.02850262  0.08879351  1
  O  O95  1  0.17797367  0.17230514  0.08825906  1
  O  O96  1  0.68887299  0.16732951  0.74443554  1
  O  O97  1  0.48196902  0.31299434  0.74344273  1
  O  O98  1  0.83172789  0.52148730  0.74497658  1
  O  O99  1  0.69064242  0.52136599  0.24531861  1
  O  O100  1  0.82755491  0.30767119  0.24256126  1
  O  O101  1  0.48573365  0.17093274  0.24292502  1
  O  O102  1  0.64367657  0.51453860  0.92102234  1
  O  O103  1  0.85235819  0.36693378  0.92342795  1
  O  O104  1  0.50645111  0.15156744  0.92262305  1
  O  O105  1  0.62944132  0.14127088  0.42215924  1
  O  O106  1  0.48439541  0.35449925  0.42216749  1
  O  O107  1  0.85063326  0.50011420  0.42165870  1
  O  O108  1  0.35572135  0.50804461  0.07643771  1
  O  O109  1  0.14249183  0.63834325  0.07918499  1
  O  O110  1  0.51338987  0.86810138  0.07621796  1
  O  O111  1  0.35641084  0.85495197  0.57747269  1
  O  O112  1  0.49476733  0.64037015  0.57650721  1
  O  O113  1  0.14926123  0.50038369  0.57564090  1
  O  O114  1  0.31401180  0.83204497  0.25469433  1
  O  O115  1  0.51606768  0.68466530  0.25739202  1
  O  O116  1  0.17161346  0.47838610  0.25615819  1
  O  O117  1  0.31457539  0.48292307  0.75771038  1
  O  O118  1  0.16858294  0.69133035  0.75657335  1
  O  O119  1  0.52151673  0.82788367  0.75745586  1
