# generated using pymatgen
data_Na6Nb3Al(SiO4)6
_symmetry_space_group_name_H-M   'P 1'
_cell_length_a   15.59749943
_cell_length_b   9.02477695
_cell_length_c   9.00611205
_cell_angle_alpha   90.45762742
_cell_angle_beta   124.76967236
_cell_angle_gamma   89.72979598
_symmetry_Int_Tables_number   1
_chemical_formula_structural   Na6Nb3Al(SiO4)6
_chemical_formula_sum   'Na12 Nb6 Al2 Si12 O48'
_cell_volume   1041.34994801
_cell_formula_units_Z   2
loop_
 _symmetry_equiv_pos_site_id
 _symmetry_equiv_pos_as_xyz
  1  'x, y, z'
loop_
 _atom_site_type_symbol
 _atom_site_label
 _atom_site_symmetry_multiplicity
 _atom_site_fract_x
 _atom_site_fract_y
 _atom_site_fract_z
 _atom_site_occupancy
  Na  Na0  1  0.24951301  0.74987294  0.99904177  1
  Na  Na1  1  0.74435687  0.74734627  0.48261904  1
  Na  Na2  1  0.74951301  0.24987294  0.99904177  1
  Na  Na3  1  0.24435687  0.24734627  0.48261904  1
  Na  Na4  1  0.50458299  0.10487188  0.76448258  1
  Na  Na5  1  0.49876560  0.87434298  0.23235726  1
  Na  Na6  1  0.00458299  0.60487188  0.76448258  1
  Na  Na7  1  0.99876560  0.37434298  0.23235726  1
  Na  Na8  1  0.80109387  0.93539228  0.21209878  1
  Na  Na9  1  0.18998456  0.06865230  0.80437853  1
  Na  Na10  1  0.30109387  0.43539228  0.21209878  1
  Na  Na11  1  0.68998456  0.56865230  0.80437853  1
  Nb  Nb12  1  0.10704789  0.75202696  0.56521966  1
  Nb  Nb13  1  0.89362871  0.75421705  0.92811114  1
  Nb  Nb14  1  0.89175269  0.24980732  0.43292955  1
  Nb  Nb15  1  0.60704789  0.25202696  0.56521966  1
  Nb  Nb16  1  0.39362871  0.25421705  0.92811114  1
  Nb  Nb17  1  0.39175269  0.74980732  0.43292955  1
  Al  Al18  1  0.10572690  0.24737510  0.06760077  1
  Al  Al19  1  0.60572690  0.74737510  0.06760077  1
  Si  Si20  1  0.00044659  0.96962484  0.75608841  1
  Si  Si21  1  0.00766874  0.04504376  0.25136393  1
  Si  Si22  1  0.50044659  0.46962484  0.75608841  1
  Si  Si23  1  0.50766874  0.54504376  0.25136393  1
  Si  Si24  1  0.36157900  0.88607128  0.76877648  1
  Si  Si25  1  0.64335007  0.89424406  0.75386982  1
  Si  Si26  1  0.64338775  0.10171491  0.23945963  1
  Si  Si27  1  0.35093797  0.10804962  0.25103651  1
  Si  Si28  1  0.86157900  0.38607128  0.76877648  1
  Si  Si29  1  0.14335007  0.39424406  0.75386982  1
  Si  Si30  1  0.14338775  0.60171491  0.23945963  1
  Si  Si31  1  0.85093797  0.60804962  0.25103651  1
  O  O32  1  0.14820533  0.57484857  0.73718785  1
  O  O33  1  0.84844171  0.56999143  0.75848460  1
  O  O34  1  0.85118007  0.42566534  0.25930844  1
  O  O35  1  0.15270023  0.42282346  0.24035337  1
  O  O36  1  0.64820533  0.07484857  0.73718785  1
  O  O37  1  0.34844171  0.06999143  0.75848460  1
  O  O38  1  0.35118007  0.92566534  0.25930844  1
  O  O39  1  0.65270023  0.92282346  0.24035337  1
  O  O40  1  0.43006578  0.56305161  0.56432015  1
  O  O41  1  0.57135901  0.58025549  0.92237929  1
  O  O42  1  0.57138877  0.43931737  0.43362536  1
  O  O43  1  0.43718119  0.42537752  0.08218545  1
  O  O44  1  0.93006578  0.06305161  0.56432015  1
  O  O45  1  0.07135901  0.08025549  0.92237929  1
  O  O46  1  0.07138877  0.93931737  0.43362536  1
  O  O47  1  0.93718119  0.92537752  0.08218545  1
  O  O48  1  0.25692067  0.82138605  0.74878261  1
  O  O49  1  0.74009337  0.81143707  0.76003135  1
  O  O50  1  0.74299088  0.17673987  0.25134475  1
  O  O51  1  0.25450480  0.19134192  0.23395174  1
  O  O52  1  0.75692067  0.32138605  0.74878261  1
  O  O53  1  0.24009337  0.31143707  0.76003135  1
  O  O54  1  0.24299088  0.67673987  0.25134475  1
  O  O55  1  0.75450480  0.69134192  0.23395174  1
  O  O56  1  0.35912791  0.84447899  0.58596564  1
  O  O57  1  0.64324469  0.86227505  0.92980334  1
  O  O58  1  0.63935721  0.15293901  0.41234136  1
  O  O59  1  0.35585263  0.14269406  0.07473746  1
  O  O60  1  0.85912791  0.34447899  0.58596564  1
  O  O61  1  0.14324469  0.36227505  0.92980334  1
  O  O62  1  0.13935721  0.65293901  0.41234136  1
  O  O63  1  0.85585263  0.64269406  0.07473746  1
  O  O64  1  0.46799849  0.83042850  0.94657920  1
  O  O65  1  0.53614203  0.82955413  0.56716032  1
  O  O66  1  0.53591935  0.16621376  0.05801485  1
  O  O67  1  0.46195683  0.17277489  0.43086366  1
  O  O68  1  0.96799849  0.33042850  0.94657920  1
  O  O69  1  0.03614203  0.32955413  0.56716032  1
  O  O70  1  0.03591935  0.66621376  0.05801485  1
  O  O71  1  0.96195683  0.67277489  0.43086366  1
  O  O72  1  0.08136629  0.85847959  0.74234642  1
  O  O73  1  0.91916950  0.85479001  0.75937100  1
  O  O74  1  0.91773585  0.14125198  0.25438894  1
  O  O75  1  0.08327416  0.15323073  0.23703900  1
  O  O76  1  0.58136629  0.35847959  0.74234642  1
  O  O77  1  0.41916950  0.35479001  0.75937100  1
  O  O78  1  0.41773585  0.64125198  0.25438894  1
  O  O79  1  0.58327416  0.65323073  0.23703900  1
