# generated using pymatgen
data_Na3CaHf(PO4)3
_symmetry_space_group_name_H-M   'P 1'
_cell_length_a   9.21882487
_cell_length_b   9.22871673
_cell_length_c   22.75541181
_cell_angle_alpha   90.00000001
_cell_angle_beta   89.97798187
_cell_angle_gamma   120.03550352
_symmetry_Int_Tables_number   1
_chemical_formula_structural   Na3CaHf(PO4)3
_chemical_formula_sum   'Na18 Ca6 Hf6 P18 O72'
_cell_volume   1676.01031102
_cell_formula_units_Z   6
loop_
 _symmetry_equiv_pos_site_id
 _symmetry_equiv_pos_as_xyz
  1  'x, y, z'
loop_
 _atom_site_type_symbol
 _atom_site_label
 _atom_site_symmetry_multiplicity
 _atom_site_fract_x
 _atom_site_fract_y
 _atom_site_fract_z
 _atom_site_occupancy
  Na  Na0  1  0.98384161  0.96996806  0.49505352  1
  Na  Na1  1  0.98384161  0.01387354  0.99505352  1
  Na  Na2  1  0.66735837  0.33778344  0.82836991  1
  Na  Na3  1  0.66735837  0.32957392  0.32836991  1
  Na  Na4  1  0.32904357  0.66304295  0.16171519  1
  Na  Na5  1  0.32904357  0.66600163  0.66171519  1
  Na  Na6  1  0.36978548  0.35568851  0.24579645  1
  Na  Na7  1  0.98671062  0.63866045  0.24630416  1
  Na  Na8  1  0.98671062  0.34805018  0.74630416  1
  Na  Na9  1  0.36978548  0.01409697  0.74579645  1
  Na  Na10  1  0.31635951  0.34575317  0.57970726  1
  Na  Na11  1  0.65428526  0.96579890  0.57893667  1
  Na  Na12  1  0.31635951  0.97060534  0.07970726  1
  Na  Na13  1  0.65428526  0.68848536  0.07893667  1
  Na  Na14  1  0.98444900  0.68161821  0.91189817  1
  Na  Na15  1  0.31934280  0.29709793  0.91295905  1
  Na  Na16  1  0.98444900  0.30283179  0.41189817  1
  Na  Na17  1  0.31934280  0.02224587  0.41295905  1
  Ca  Ca18  1  0.98743988  0.99377516  0.35024547  1
  Ca  Ca19  1  0.98743988  0.99366472  0.85024547  1
  Ca  Ca20  1  0.67230516  0.34702468  0.68376328  1
  Ca  Ca21  1  0.67230516  0.32527948  0.18376328  1
  Ca  Ca22  1  0.32913731  0.66240890  0.01725582  1
  Ca  Ca23  1  0.32913731  0.66672941  0.51725582  1
  Hf  Hf24  1  0.99603524  0.99178748  0.64941577  1
  Hf  Hf25  1  0.99603524  0.00424775  0.14941577  1
  Hf  Hf26  1  0.67059145  0.32736475  0.98257274  1
  Hf  Hf27  1  0.67059145  0.34322570  0.48257274  1
  Hf  Hf28  1  0.34226380  0.67230035  0.31606043  1
  Hf  Hf29  1  0.34226380  0.66996445  0.81606043  1
  P  P30  1  0.29097770  0.99128742  0.25200278  1
  P  P31  1  0.69713917  0.70506995  0.24842531  1
  P  P32  1  0.01277972  0.30702867  0.25396754  1
  P  P33  1  0.29097770  0.29969028  0.75200278  1
  P  P34  1  0.01277972  0.70575104  0.75396754  1
  P  P35  1  0.69713917  0.99206922  0.74842531  1
  P  P36  1  0.96110667  0.32138059  0.58538482  1
  P  P37  1  0.36684729  0.04321110  0.58562434  1
  P  P38  1  0.67411447  0.63638592  0.58365280  1
  P  P39  1  0.96110667  0.63972508  0.08538482  1
  P  P40  1  0.67411447  0.03772755  0.08365280  1
  P  P41  1  0.36684729  0.32363519  0.08562434  1
  P  P42  1  0.62758776  0.65491596  0.92096418  1
  P  P43  1  0.03334003  0.37503174  0.91542394  1
  P  P44  1  0.34328368  0.97037406  0.91797340  1
  P  P45  1  0.62758776  0.97267280  0.42096418  1
  P  P46  1  0.34328368  0.37291062  0.41797340  1
  P  P47  1  0.03334003  0.65830929  0.41542394  1
  O  O48  1  0.21393608  0.01275279  0.30794555  1
  O  O49  1  0.80756715  0.78167463  0.30098543  1
  O  O50  1  0.99370474  0.21810181  0.31151239  1
  O  O51  1  0.21393608  0.20118329  0.80794555  1
  O  O52  1  0.99370474  0.77560293  0.81151239  1
  O  O53  1  0.80756715  0.02589252  0.80098543  1
  O  O54  1  0.78518206  0.97006595  0.69180275  1
  O  O55  1  0.17006959  0.20385633  0.69762767  1
  O  O56  1  0.02804937  0.82563407  0.70103093  1
  O  O57  1  0.78518206  0.81511612  0.19180275  1
  O  O58  1  0.02804937  0.20241530  0.20103093  1
  O  O59  1  0.17006959  0.96621326  0.19762767  1
  O  O60  1  0.88641010  0.34005744  0.64200053  1
  O  O61  1  0.46477481  0.12030736  0.64155676  1
  O  O62  1  0.63981963  0.53056085  0.63742505  1
  O  O63  1  0.88641010  0.54635167  0.14200053  1
  O  O64  1  0.63981963  0.10925779  0.13742505  1
  O  O65  1  0.46477481  0.34446645  0.14155676  1
  O  O66  1  0.46256871  0.29810120  0.03136192  1
  O  O67  1  0.84509322  0.53988520  0.03078158  1
  O  O68  1  0.69485582  0.15135617  0.02837085  1
  O  O69  1  0.46256871  0.16446650  0.53136192  1
  O  O70  1  0.69485582  0.54349865  0.52837085  1
  O  O71  1  0.84509322  0.30520702  0.53078158  1
  O  O72  1  0.55726615  0.67472347  0.97826884  1
  O  O73  1  0.13978046  0.45703808  0.96849054  1
  O  O74  1  0.31609016  0.87082273  0.97375339  1
  O  O75  1  0.55726615  0.88254369  0.47826884  1
  O  O76  1  0.31609016  0.44526843  0.47375339  1
  O  O77  1  0.13978046  0.68274338  0.46849054  1
  O  O78  1  0.12316350  0.63308235  0.35931413  1
  O  O79  1  0.50687584  0.87008246  0.36773138  1
  O  O80  1  0.36118104  0.48748866  0.36312452  1
  O  O81  1  0.12316350  0.49008216  0.85931413  1
  O  O82  1  0.36118104  0.87369338  0.86312452  1
  O  O83  1  0.50687584  0.63679439  0.86773138  1
  O  O84  1  0.00964570  0.80966550  0.41003327  1
  O  O85  1  0.80820979  0.01172914  0.41361740  1
  O  O86  1  0.19278711  0.19439990  0.41112886  1
  O  O87  1  0.00964570  0.19998019  0.91003327  1
  O  O88  1  0.19278711  0.99838721  0.91112886  1
  O  O89  1  0.80820979  0.79648065  0.91361740  1
  O  O90  1  0.96141514  0.14873913  0.58656286  1
  O  O91  1  0.19209147  0.03714237  0.58865402  1
  O  O92  1  0.84024472  0.81128271  0.58801496  1
  O  O93  1  0.96141514  0.81267601  0.08656286  1
  O  O94  1  0.84024472  0.02896200  0.08801496  1
  O  O95  1  0.19209147  0.15494910  0.08865402  1
  O  O96  1  0.66504525  0.13998103  0.74271042  1
  O  O97  1  0.46387666  0.31841320  0.74499614  1
  O  O98  1  0.87199527  0.52435921  0.74710427  1
  O  O99  1  0.66504525  0.52506322  0.24271042  1
  O  O100  1  0.87199527  0.34763506  0.24710427  1
  O  O101  1  0.46387666  0.14546246  0.24499614  1
  O  O102  1  0.62779364  0.48241013  0.92129466  1
  O  O103  1  0.86047667  0.37285479  0.92034392  1
  O  O104  1  0.50711230  0.14764101  0.92099033  1
  O  O105  1  0.62779364  0.14538250  0.42129466  1
  O  O106  1  0.50711230  0.35947029  0.42099033  1
  O  O107  1  0.86047667  0.48762088  0.42034392  1
  O  O108  1  0.34711161  0.47680820  0.07841789  1
  O  O109  1  0.14304108  0.68026847  0.07956011  1
  O  O110  1  0.52627347  0.85831696  0.07699034  1
  O  O111  1  0.34711160  0.87030440  0.57841789  1
  O  O112  1  0.52627347  0.66795751  0.57699034  1
  O  O113  1  0.14304108  0.46277361  0.57956011  1
  O  O114  1  0.29702170  0.82287723  0.25483056  1
  O  O115  1  0.52149380  0.69453133  0.25462646  1
  O  O116  1  0.18655069  0.47879417  0.25356630  1
  O  O117  1  0.29702170  0.47414546  0.75483056  1
  O  O118  1  0.18655069  0.70775752  0.75356630  1
  O  O119  1  0.52149380  0.82696347  0.75462646  1
