# generated using pymatgen
data_NiP4O11
_symmetry_space_group_name_H-M   'P 1'
_cell_length_a   8.01135986
_cell_length_b   9.36292121
_cell_length_c   13.13536933
_cell_angle_alpha   56.35020643
_cell_angle_beta   90.00000000
_cell_angle_gamma   90.00000000
_symmetry_Int_Tables_number   1
_chemical_formula_structural   NiP4O11
_chemical_formula_sum   'Ni4 P16 O44'
_cell_volume   820.18691254
_cell_formula_units_Z   4
loop_
 _symmetry_equiv_pos_site_id
 _symmetry_equiv_pos_as_xyz
  1  'x, y, z'
loop_
 _atom_site_type_symbol
 _atom_site_label
 _atom_site_symmetry_multiplicity
 _atom_site_fract_x
 _atom_site_fract_y
 _atom_site_fract_z
 _atom_site_occupancy
  Ni  Ni0  1  0.48581298  0.75260008  0.27998745  1
  Ni  Ni1  1  0.98581298  0.24739992  0.22001255  1
  Ni  Ni2  1  0.51418702  0.24739992  0.72001255  1
  Ni  Ni3  1  0.01418702  0.75260008  0.77998745  1
  P  P4  1  0.49977817  0.33031011  0.92757827  1
  P  P5  1  -0.00022183  0.66968989  0.57242173  1
  P  P6  1  0.50022183  0.66968989  0.07242173  1
  P  P7  1  0.00022183  0.33031011  0.42757827  1
  P  P8  1  0.88778902  0.68579643  0.25480299  1
  P  P9  1  0.38778902  0.31420357  0.24519701  1
  P  P10  1  0.11221098  0.31420357  0.74519701  1
  P  P11  1  0.61221098  0.68579643  0.75480299  1
  P  P12  1  0.61470895  0.13570926  0.17567461  1
  P  P13  1  0.11470895  0.86429074  0.32432539  1
  P  P14  1  0.62507310  0.66980225  0.54207819  1
  P  P15  1  0.88529105  0.13570926  0.67567461  1
  P  P16  1  0.87492690  0.66980225  0.04207819  1
  P  P17  1  0.37492690  0.33019775  0.45792181  1
  P  P18  1  0.12507310  0.33019775  0.95792181  1
  P  P19  1  0.38529105  0.86429074  0.82432539  1
  O  O20  1  0.54013857  0.77357432  0.42348209  1
  O  O21  1  0.04013857  0.22642568  0.07651791  1
  O  O22  1  0.45986143  0.22642568  0.57651791  1
  O  O23  1  0.95986143  0.77357432  0.92348209  1
  O  O24  1  0.01298086  0.53263789  0.33707082  1
  O  O25  1  0.51298086  0.46736211  0.16292918  1
  O  O26  1  0.98701914  0.46736211  0.66292918  1
  O  O27  1  0.48701914  0.53263789  0.83707082  1
  O  O28  1  0.67945177  0.72455158  0.01982477  1
  O  O29  1  0.17945177  0.27544842  0.48017523  1
  O  O30  1  0.32054823  0.27544842  0.98017523  1
  O  O31  1  0.82054823  0.72455158  0.51982477  1
  O  O32  1  0.38294789  0.51784083  0.37973363  1
  O  O33  1  0.88294789  0.48215917  0.12026637  1
  O  O34  1  0.61705211  0.48215917  0.62026637  1
  O  O35  1  0.44805474  0.16888144  0.23157477  1
  O  O36  1  0.93131986  0.74959495  0.12016303  1
  O  O37  1  0.43131986  0.25040505  0.37983697  1
  O  O38  1  0.06868014  0.25040505  0.87983697  1
  O  O39  1  0.56868014  0.74959495  0.62016303  1
  O  O40  1  0.91781668  0.98780177  0.66760290  1
  O  O41  1  0.41781668  0.01219823  0.83239710  1
  O  O42  1  0.08218332  0.01219823  0.33239710  1
  O  O43  1  0.58218332  0.98780177  0.16760290  1
  O  O44  1  0.89492946  0.30728319  0.53613149  1
  O  O45  1  0.39492946  0.69271681  0.96386851  1
  O  O46  1  0.10507054  0.69271681  0.46386851  1
  O  O47  1  0.60507054  0.30728319  0.03613149  1
  O  O48  1  0.24053163  0.85063986  0.76282959  1
  O  O49  1  0.74053163  0.14936014  0.73717041  1
  O  O50  1  0.75946837  0.14936014  0.23717041  1
  O  O51  1  0.25946837  0.85063986  0.26282959  1
  O  O52  1  0.78661238  0.63534652  0.79007086  1
  O  O53  1  0.28661238  0.36465348  0.70992914  1
  O  O54  1  0.21338762  0.36465348  0.20992914  1
  O  O55  1  0.71338762  0.63534652  0.29007086  1
  O  O56  1  0.07064393  0.75447108  0.62750034  1
  O  O57  1  0.57064393  0.24552892  0.87249966  1
  O  O58  1  0.92935607  0.24552892  0.37249966  1
  O  O59  1  0.42935607  0.75447108  0.12750034  1
  O  O60  1  0.05194526  0.16888144  0.73157477  1
  O  O61  1  0.55194526  0.83111856  0.76842523  1
  O  O62  1  0.94805474  0.83111856  0.26842523  1
  O  O63  1  0.11705211  0.51784083  0.87973363  1
