# generated using pymatgen
data_Na4LaYSi(PO6)2
_symmetry_space_group_name_H-M   'P 1'
_cell_length_a   9.62729263
_cell_length_b   9.62411944
_cell_length_c   23.36233904
_cell_angle_alpha   90.02514484
_cell_angle_beta   90.01469341
_cell_angle_gamma   119.96867162
_symmetry_Int_Tables_number   1
_chemical_formula_structural   Na4LaYSi(PO6)2
_chemical_formula_sum   'Na24 La6 Y6 Si6 P12 O72'
_cell_volume   1875.20623151
_cell_formula_units_Z   6
loop_
 _symmetry_equiv_pos_site_id
 _symmetry_equiv_pos_as_xyz
  1  'x, y, z'
loop_
 _atom_site_type_symbol
 _atom_site_label
 _atom_site_symmetry_multiplicity
 _atom_site_fract_x
 _atom_site_fract_y
 _atom_site_fract_z
 _atom_site_occupancy
  Na  Na0  1  0.64080679  0.00323415  0.25494075  1
  Na  Na1  1  0.35671062  0.36654564  0.24901547  1
  Na  Na2  1  0.00525496  0.62688289  0.25207584  1
  Na  Na3  1  0.63651045  0.63799139  0.74263123  1
  Na  Na4  1  0.98731394  0.35731081  0.74848611  1
  Na  Na5  1  0.37972530  0.00786882  0.74512157  1
  Na  Na6  1  0.30138290  0.32398740  0.58123495  1
  Na  Na7  1  0.04103386  0.71098435  0.58002446  1
  Na  Na8  1  0.66132395  0.96870549  0.59086364  1
  Na  Na9  1  0.28864136  0.96300679  0.08175618  1
  Na  Na10  1  0.68168837  0.70430271  0.08252906  1
  Na  Na11  1  0.03295569  0.33522837  0.09280992  1
  Na  Na12  1  0.97177066  0.67588365  0.92348527  1
  Na  Na13  1  0.69550895  0.03552726  0.90871505  1
  Na  Na14  1  0.33278594  0.29317729  0.91628250  1
  Na  Na15  1  0.96672354  0.30753198  0.40773795  1
  Na  Na16  1  0.32443855  0.02539039  0.42164878  1
  Na  Na17  1  0.70752685  0.66638161  0.41507326  1
  Na  Na18  1  0.00966324  0.99004465  0.50014884  1
  Na  Na19  1  0.00792243  0.99178243  0.00053903  1
  Na  Na20  1  0.65952804  0.31630882  0.83402884  1
  Na  Na21  1  0.68289470  0.34030591  0.33643303  1
  Na  Na22  1  0.31700359  0.65750277  0.16729069  1
  Na  Na23  1  0.34111751  0.68244654  0.66628178  1
  La  La24  1  0.00027226  0.99948519  0.84294831  1
  La  La25  1  0.67233374  0.33540366  0.18326337  1
  La  La26  1  0.66848869  0.33344016  0.98921964  1
  La  La27  1  0.33023522  0.67044532  0.01343205  1
  La  La28  1  0.33008457  0.66987435  0.51291648  1
  La  La29  1  0.33617395  0.67447252  0.81734535  1
  Y  Y30  1  0.00043860  0.00090180  0.34893690  1
  Y  Y31  1  0.99958984  0.99932924  0.64937439  1
  Y  Y32  1  0.00109839  0.00068413  0.15490646  1
  Y  Y33  1  0.66363995  0.32682324  0.67969040  1
  Y  Y34  1  0.66543797  0.33088197  0.48434266  1
  Y  Y35  1  0.32673059  0.66378254  0.31905069  1
  Si  Si36  1  0.00608349  0.30742527  0.25173186  1
  Si  Si37  1  0.69331897  0.00356672  0.74804203  1
  Si  Si38  1  0.36030734  0.03056296  0.58238380  1
  Si  Si39  1  0.98023326  0.65139940  0.08460338  1
  Si  Si40  1  0.33387738  0.98356556  0.91658964  1
  Si  Si41  1  0.02122393  0.66542313  0.41679353  1
  P  P42  1  0.29902846  0.99429326  0.25201382  1
  P  P43  1  0.69400227  0.70266057  0.25177376  1
  P  P44  1  0.30912850  0.30734028  0.74650656  1
  P  P45  1  0.99471942  0.68955799  0.74661734  1
  P  P46  1  0.96470589  0.32761887  0.58326302  1
  P  P47  1  0.67089603  0.63480867  0.58357194  1
  P  P48  1  0.67305021  0.02074031  0.08543396  1
  P  P49  1  0.35029307  0.32824416  0.08577792  1
  P  P50  1  0.64477941  0.66523736  0.91671812  1
  P  P51  1  0.02155220  0.35464090  0.91538054  1
  P  P52  1  0.64025671  0.97477415  0.41509514  1
  P  P53  1  0.33641093  0.36065351  0.41599124  1
  O  O54  1  0.20910550  0.00718666  0.30513684  1
  O  O55  1  0.79958249  0.78801184  0.30504667  1
  O  O56  1  0.99099465  0.19941797  0.30818590  1
  O  O57  1  0.23833954  0.21500245  0.80317150  1
  O  O58  1  0.97919717  0.76363357  0.80337682  1
  O  O59  1  0.78751608  0.01963188  0.80851145  1
  O  O60  1  0.79522497  0.98850911  0.69412277  1
  O  O61  1  0.19985720  0.20831217  0.69571133  1
  O  O62  1  0.01302533  0.80251190  0.69603336  1
  O  O63  1  0.78058812  0.79992564  0.19732741  1
  O  O64  1  0.01948812  0.21822737  0.19366643  1
  O  O65  1  0.19996768  0.97805900  0.19746396  1
  O  O66  1  0.88263424  0.34737170  0.63742796  1
  O  O67  1  0.46744817  0.12218166  0.63921832  1
  O  O68  1  0.65734319  0.53651327  0.63795972  1
  O  O69  1  0.88586605  0.53709247  0.13982948  1
  O  O70  1  0.64761757  0.10419479  0.13796409  1
  O  O71  1  0.45428948  0.34559280  0.13886701  1
  O  O72  1  0.43174628  0.31127394  0.03091921  1
  O  O73  1  0.87717344  0.56771847  0.02584649  1
  O  O74  1  0.68908243  0.11859792  0.03068520  1
  O  O75  1  0.45072657  0.13584708  0.52485488  1
  O  O76  1  0.68441921  0.54719376  0.52986099  1
  O  O77  1  0.86358892  0.31535572  0.52984533  1
  O  O78  1  0.55943350  0.67504041  0.97153665  1
  O  O79  1  0.12019952  0.44061088  0.96948239  1
  O  O80  1  0.31888417  0.87986125  0.97447387  1
  O  O81  1  0.56687922  0.87417733  0.46996145  1
  O  O82  1  0.31046686  0.43273517  0.47155425  1
  O  O83  1  0.12704918  0.69468053  0.47545183  1
  O  O84  1  0.11837390  0.64304951  0.36271564  1
  O  O85  1  0.53258333  0.88592660  0.36293332  1
  O  O86  1  0.35595456  0.47085079  0.36444111  1
  O  O87  1  0.10905614  0.45204445  0.86111637  1
  O  O88  1  0.34874579  0.89087716  0.85970267  1
  O  O89  1  0.54354663  0.65239969  0.86314365  1
  O  O90  1  0.99862455  0.82490550  0.41282472  1
  O  O91  1  0.81286411  0.99907578  0.40998582  1
  O  O92  1  0.18719412  0.18829568  0.41040196  1
  O  O93  1  0.00182962  0.18415354  0.91498084  1
  O  O94  1  0.17207725  0.00120573  0.91604201  1
  O  O95  1  0.81369737  0.81871315  0.91558117  1
  O  O96  1  0.97614595  0.17122753  0.58557377  1
  O  O97  1  0.17965434  0.01265730  0.58349689  1
  O  O98  1  0.82454592  0.80478483  0.58511922  1
  O  O99  1  0.99610553  0.82979630  0.08790131  1
  O  O100  1  0.82944403  0.01156343  0.08984407  1
  O  O101  1  0.18222490  0.17436534  0.08887084  1
  O  O102  1  0.67567653  0.16603070  0.74564560  1
  O  O103  1  0.48191427  0.33276837  0.74198182  1
  O  O104  1  0.84066699  0.52212760  0.74175448  1
  O  O105  1  0.66712211  0.52899362  0.25064777  1
  O  O106  1  0.84479899  0.32806936  0.25309242  1
  O  O107  1  0.46797218  0.14746688  0.25117854  1
  O  O108  1  0.66394145  0.51411764  0.91672672  1
  O  O109  1  0.85278966  0.33973766  0.91609829  1
  O  O110  1  0.49617072  0.16260774  0.91654346  1
  O  O111  1  0.65328516  0.14304563  0.41840254  1
  O  O112  1  0.49094179  0.34707069  0.41874873  1
  O  O113  1  0.84311594  0.50080106  0.41841898  1
  O  O114  1  0.32996109  0.47870395  0.08433542  1
  O  O115  1  0.16042209  0.67018055  0.08561791  1
  O  O116  1  0.52797193  0.84679535  0.08334530  1
  O  O117  1  0.34324188  0.85022940  0.58348128  1
  O  O118  1  0.51895157  0.65310422  0.58194616  1
  O  O119  1  0.13770220  0.47473194  0.58108857  1
  O  O120  1  0.31859005  0.84319883  0.25487866  1
  O  O121  1  0.52848981  0.69420808  0.25505160  1
  O  O122  1  0.17027475  0.48699407  0.25279646  1
  O  O123  1  0.31935533  0.47377184  0.74597751  1
  O  O124  1  0.14422616  0.66740240  0.74595009  1
  O  O125  1  0.51339101  0.84111208  0.74525419  1
