# generated using pymatgen
data_Na6Ca3TiP4(SO12)2
_symmetry_space_group_name_H-M   'P 1'
_cell_length_a   9.25312658
_cell_length_b   9.26669347
_cell_length_c   22.83230307
_cell_angle_alpha   90.52701639
_cell_angle_beta   89.84189630
_cell_angle_gamma   119.82566033
_symmetry_Int_Tables_number   1
_chemical_formula_structural   Na6Ca3TiP4(SO12)2
_chemical_formula_sum   'Na18 Ca9 Ti3 P12 S6 O72'
_cell_volume   1698.37897307
_cell_formula_units_Z   3
loop_
 _symmetry_equiv_pos_site_id
 _symmetry_equiv_pos_as_xyz
  1  'x, y, z'
loop_
 _atom_site_type_symbol
 _atom_site_label
 _atom_site_symmetry_multiplicity
 _atom_site_fract_x
 _atom_site_fract_y
 _atom_site_fract_z
 _atom_site_occupancy
  Na  Na0  1  0.36348109  0.36350963  0.25461805  1
  Na  Na1  1  0.64593543  0.64982541  0.74607023  1
  Na  Na2  1  0.99719351  0.34798538  0.75176287  1
  Na  Na3  1  0.29784501  0.34658275  0.58074456  1
  Na  Na4  1  0.02790742  0.69020141  0.57778866  1
  Na  Na5  1  0.66996647  0.95718360  0.57886743  1
  Na  Na6  1  0.29355209  0.96245084  0.07547457  1
  Na  Na7  1  0.65565594  0.68737292  0.07847739  1
  Na  Na8  1  0.04716604  0.34479700  0.07697848  1
  Na  Na9  1  0.31948108  0.29803939  0.91015391  1
  Na  Na10  1  0.98746514  0.31083872  0.41599255  1
  Na  Na11  1  0.68007923  0.67067367  0.41587279  1
  Na  Na12  1  0.00650944  0.00015202  0.49414445  1
  Na  Na13  1  0.99112139  0.98348511  0.99033132  1
  Na  Na14  1  0.65179453  0.30150991  0.83178483  1
  Na  Na15  1  0.66043510  0.31031581  0.33408462  1
  Na  Na16  1  0.32390511  0.67168529  0.17253220  1
  Na  Na17  1  0.33688736  0.66972430  0.67063935  1
  Ca  Ca18  1  0.00266752  0.99423778  0.35010433  1
  Ca  Ca19  1  -0.00001597  0.99871446  0.85049536  1
  Ca  Ca20  1  0.99470713  0.00593629  0.65495492  1
  Ca  Ca21  1  0.99931087  0.99355153  0.14832720  1
  Ca  Ca22  1  0.65689926  0.32593716  0.68589376  1
  Ca  Ca23  1  0.67570157  0.33752937  0.18427500  1
  Ca  Ca24  1  0.33299334  0.66985013  0.01030512  1
  Ca  Ca25  1  0.33340180  0.66918337  0.51037679  1
  Ca  Ca26  1  0.33565072  0.68068682  0.32421395  1
  Ti  Ti27  1  0.67399937  0.35067436  0.97378944  1
  Ti  Ti28  1  0.67474050  0.34092026  0.48066017  1
  Ti  Ti29  1  0.34496143  0.67620242  0.82560927  1
  P  P30  1  0.30663451  0.32444828  0.75580354  1
  P  P31  1  0.68191987  0.98649713  0.75241246  1
  P  P32  1  0.95781774  0.33256986  0.58263247  1
  P  P33  1  0.66821939  0.62630679  0.58261354  1
  P  P34  1  0.95356506  0.62218823  0.07763800  1
  P  P35  1  0.37750639  0.33133394  0.07934194  1
  P  P36  1  0.63110227  0.66001966  0.91998597  1
  P  P37  1  0.02980116  0.37568903  0.91839739  1
  P  P38  1  0.34922006  0.97664874  0.92114434  1
  P  P39  1  0.64428236  0.98568166  0.42317682  1
  P  P40  1  0.34474454  0.35865513  0.41944997  1
  P  P41  1  0.01585653  0.65836231  0.42329049  1
  S  S42  1  0.30605320  0.99888167  0.24626179  1
  S  S43  1  0.68584179  0.69193448  0.24957235  1
  S  S44  1  0.00712961  0.30751709  0.25046094  1
  S  S45  1  0.01375214  0.69624709  0.75022831  1
  S  S46  1  0.37206040  0.04263340  0.58036530  1
  S  S47  1  0.66985734  0.04622950  0.07890958  1
  O  O48  1  0.20825092  0.00794729  0.29573683  1
  O  O49  1  0.77922830  0.78274972  0.30244999  1
  O  O50  1  0.00189018  0.21261898  0.30316076  1
  O  O51  1  0.22141088  0.21637267  0.80869626  1
  O  O52  1  0.98900959  0.78521121  0.79853743  1
  O  O53  1  0.80923090  0.01128494  0.79892804  1
  O  O54  1  0.73111753  0.93771918  0.69294230  1
  O  O55  1  0.20215987  0.25282958  0.69859073  1
  O  O56  1  0.03283414  0.78406041  0.69369941  1
  O  O57  1  0.77294216  0.78077044  0.19536608  1
  O  O58  1  0.01313390  0.21971460  0.19592645  1
  O  O59  1  0.22051221  0.98952437  0.18978501  1
  O  O60  1  0.87956874  0.34360659  0.64021738  1
  O  O61  1  0.46298230  0.11573458  0.63491858  1
  O  O62  1  0.65226981  0.53495301  0.63971283  1
  O  O63  1  0.87454866  0.51991105  0.13172185  1
  O  O64  1  0.65186518  0.11938669  0.13385110  1
  O  O65  1  0.46964020  0.34412647  0.13629024  1
  O  O66  1  0.48550855  0.32488317  0.02524894  1
  O  O67  1  0.83798069  0.51376083  0.02338350  1
  O  O68  1  0.68066512  0.14945971  0.02795378  1
  O  O69  1  0.46726047  0.14580760  0.52942665  1
  O  O70  1  0.67179280  0.51539928  0.52930928  1
  O  O71  1  0.84280760  0.32718419  0.52988139  1
  O  O72  1  0.56216098  0.67718333  0.97808712  1
  O  O73  1  0.12191989  0.44398299  0.97627855  1
  O  O74  1  0.32773539  0.89214846  0.97982340  1
  O  O75  1  0.57382520  0.88209063  0.47883830  1
  O  O76  1  0.31791572  0.44188807  0.47383701  1
  O  O77  1  0.10907945  0.68401057  0.48102165  1
  O  O78  1  0.09608956  0.61593435  0.37224283  1
  O  O79  1  0.53344311  0.90501914  0.36977609  1
  O  O80  1  0.38687806  0.47181269  0.36481083  1
  O  O81  1  0.13397395  0.49894821  0.86688355  1
  O  O82  1  0.36111696  0.85889640  0.87144630  1
  O  O83  1  0.50221292  0.63612093  0.86867641  1
  O  O84  1  0.97150636  0.79560961  0.41434269  1
  O  O85  1  0.82383084  0.01586179  0.41493041  1
  O  O86  1  0.18837839  0.18805499  0.41232692  1
  O  O87  1  0.01167208  0.20405455  0.90891952  1
  O  O88  1  0.20559132  0.00895249  0.90958553  1
  O  O89  1  0.80569271  0.79831047  0.90883996  1
  O  O90  1  0.96952960  0.17062240  0.57849870  1
  O  O91  1  0.20550591  0.03249047  0.58130895  1
  O  O92  1  0.83358227  0.79580514  0.57930019  1
  O  O93  1  0.95301321  0.78919566  0.07581855  1
  O  O94  1  0.82540576  0.03302407  0.07985936  1
  O  O95  1  0.20352628  0.16946889  0.07587700  1
  O  O96  1  0.66511236  0.14250103  0.74981615  1
  O  O97  1  0.48842083  0.36282327  0.75154146  1
  O  O98  1  0.86578290  0.52433686  0.74822061  1
  O  O99  1  0.66530812  0.52124575  0.25134239  1
  O  O100  1  0.85969236  0.32908624  0.25109153  1
  O  O101  1  0.47059512  0.15629903  0.24855271  1
  O  O102  1  0.62682928  0.48455851  0.91989539  1
  O  O103  1  0.85207757  0.36229607  0.92179207  1
  O  O104  1  0.51517261  0.15109801  0.92147265  1
  O  O105  1  0.66416754  0.16485856  0.43099283  1
  O  O106  1  0.50558501  0.34306899  0.42954778  1
  O  O107  1  0.83688655  0.49188700  0.42871350  1
  O  O108  1  0.35430258  0.48607352  0.07658150  1
  O  O109  1  0.13360636  0.65421452  0.07441593  1
  O  O110  1  0.52330333  0.87350265  0.07604954  1
  O  O111  1  0.34767215  0.87082965  0.57664039  1
  O  O112  1  0.51560943  0.65211552  0.57790582  1
  O  O113  1  0.13436446  0.48766965  0.57820059  1
  O  O114  1  0.32710248  0.85153399  0.24999530  1
  O  O115  1  0.51514845  0.67118841  0.24922099  1
  O  O116  1  0.16557941  0.47162321  0.25122708  1
  O  O117  1  0.31514903  0.50126268  0.76524913  1
  O  O118  1  0.16586710  0.67906537  0.75872572  1
  O  O119  1  0.50770605  0.82545657  0.76873458  1
