# generated using pymatgen
data_NaTa2SiSn2P5O24
_symmetry_space_group_name_H-M   'P 1'
_cell_length_a   8.77540791
_cell_length_b   8.77388448
_cell_length_c   22.71737700
_cell_angle_alpha   90.07307597
_cell_angle_beta   89.91362584
_cell_angle_gamma   119.98526221
_symmetry_Int_Tables_number   1
_chemical_formula_structural   NaTa2SiSn2P5O24
_chemical_formula_sum   'Na3 Ta6 Si3 Sn6 P15 O72'
_cell_volume   1514.99760690
_cell_formula_units_Z   3
loop_
 _symmetry_equiv_pos_site_id
 _symmetry_equiv_pos_as_xyz
  1  'x, y, z'
loop_
 _atom_site_type_symbol
 _atom_site_label
 _atom_site_symmetry_multiplicity
 _atom_site_fract_x
 _atom_site_fract_y
 _atom_site_fract_z
 _atom_site_occupancy
  Na  Na0  1  0.99986504  0.99786773  0.99767866  1
  Na  Na1  1  0.66600727  0.33375103  0.83095106  1
  Na  Na2  1  0.66833713  0.33406583  0.33673213  1
  Ta  Ta3  1  0.99864070  0.00320622  0.35660647  1
  Ta  Ta4  1  0.00055319  0.99950128  0.64296550  1
  Ta  Ta5  1  0.66822677  0.33318898  0.19074899  1
  Ta  Ta6  1  0.66460017  0.33372223  0.97642586  1
  Ta  Ta7  1  0.33621144  0.67130341  0.02353972  1
  Ta  Ta8  1  0.33807333  0.66988698  0.80870177  1
  Si  Si9  1  0.00495310  0.28955014  0.24943280  1
  Si  Si10  1  0.62026308  0.67061795  0.91612480  1
  Si  Si11  1  0.33040156  0.95089500  0.91640510  1
  Sn  Sn12  1  0.99987549  0.99868958  0.85485948  1
  Sn  Sn13  1  0.00161059  0.00144352  0.14703341  1
  Sn  Sn14  1  0.66595948  0.33345277  0.68455157  1
  Sn  Sn15  1  0.66764688  0.33347449  0.48166682  1
  Sn  Sn16  1  0.33190432  0.66583752  0.52016433  1
  Sn  Sn17  1  0.33190417  0.66510835  0.31224800  1
  P  P18  1  0.28542112  0.99829676  0.25007804  1
  P  P19  1  0.71331282  0.71499025  0.25023820  1
  P  P20  1  0.28807372  0.28545337  0.75005340  1
  P  P21  1  0.99640622  0.70950051  0.74981776  1
  P  P22  1  0.71562808  0.00459229  0.74996112  1
  P  P23  1  0.95746089  0.33539781  0.58339389  1
  P  P24  1  0.37879635  0.04234636  0.58319692  1
  P  P25  1  0.66350924  0.62163222  0.58324243  1
  P  P26  1  0.95159419  0.62061605  0.08358472  1
  P  P27  1  0.66988923  0.04864478  0.08326845  1
  P  P28  1  0.37781801  0.32985349  0.08333197  1
  P  P29  1  0.05136561  0.38448771  0.91680144  1
  P  P30  1  0.61937969  0.95588142  0.41642492  1
  P  P31  1  0.33779256  0.37921665  0.41664341  1
  P  P32  1  0.04234919  0.66456998  0.41665726  1
  O  O33  1  0.19852513  0.03171397  0.30402479  1
  O  O34  1  0.83493464  0.79768174  0.30418072  1
  O  O35  1  0.96645763  0.15984521  0.30648084  1
  O  O36  1  0.21162606  0.17350885  0.80573565  1
  O  O37  1  0.95953751  0.78601522  0.80529303  1
  O  O38  1  0.82694566  0.03999014  0.80565450  1
  O  O39  1  0.80503685  0.97782347  0.69564558  1
  O  O40  1  0.17271425  0.19435773  0.69561934  1
  O  O41  1  0.02331494  0.82606799  0.69543086  1
  O  O42  1  0.78986412  0.81884081  0.19334921  1
  O  O43  1  0.03505094  0.20920167  0.18986576  1
  O  O44  1  0.17762905  0.96248029  0.19357317  1
  O  O45  1  0.87850766  0.37075285  0.63853408  1
  O  O46  1  0.49213864  0.12090423  0.63849785  1
  O  O47  1  0.62808110  0.50780704  0.63845806  1
  O  O48  1  0.86099171  0.50679284  0.13878745  1
  O  O49  1  0.64391817  0.13745448  0.13842183  1
  O  O50  1  0.49138232  0.35611055  0.13822344  1
  O  O51  1  0.47241147  0.30726585  0.02854828  1
  O  O52  1  0.83604753  0.53061312  0.02899641  1
  O  O53  1  0.69498478  0.16449164  0.02892768  1
  O  O54  1  0.45217255  0.16073401  0.52877763  1
  O  O55  1  0.70925869  0.54858456  0.52880891  1
  O  O56  1  0.83942919  0.29005142  0.52885585  1
  O  O57  1  0.52200184  0.68958454  0.97467245  1
  O  O58  1  0.16200863  0.47082641  0.97242536  1
  O  O59  1  0.30467985  0.83108672  0.97482920  1
  O  O60  1  0.54363349  0.84449379  0.47199735  1
  O  O61  1  0.29901069  0.45278562  0.47228097  1
  O  O62  1  0.15361177  0.70122792  0.47247827  1
  O  O63  1  0.12212099  0.62862265  0.36219460  1
  O  O64  1  0.50632928  0.87770361  0.36136751  1
  O  O65  1  0.37492554  0.49474034  0.36218711  1
  O  O66  1  0.13213585  0.49655253  0.86099966  1
  O  O67  1  0.36023432  0.85877704  0.85825870  1
  O  O68  1  0.49682181  0.63363939  0.85792148  1
  O  O69  1  0.02366075  0.82904286  0.40575172  1
  O  O70  1  0.80274595  0.97117624  0.40675289  1
  O  O71  1  0.17226858  0.19441425  0.40620950  1
  O  O72  1  0.02997192  0.20110256  0.91167757  1
  O  O73  1  0.16362240  0.97951023  0.91278982  1
  O  O74  1  0.81022775  0.84522936  0.91268042  1
  O  O75  1  0.97510829  0.16921529  0.59520821  1
  O  O76  1  0.19498425  0.02511509  0.59491422  1
  O  O77  1  0.83008360  0.80524467  0.59517827  1
  O  O78  1  0.97114531  0.80463309  0.08820613  1
  O  O79  1  0.83151145  0.02499437  0.08681226  1
  O  O80  1  0.19634481  0.16155310  0.08563414  1
  O  O81  1  0.68804786  0.16416220  0.74339538  1
  O  O82  1  0.47490964  0.31137627  0.74347900  1
  O  O83  1  0.83453894  0.52336439  0.74315558  1
  O  O84  1  0.69406054  0.52757638  0.24229396  1
  O  O85  1  0.82215001  0.30282534  0.24187650  1
  O  O86  1  0.46828459  0.17178499  0.24185364  1
  O  O87  1  0.64047143  0.49526033  0.92522331  1
  O  O88  1  0.86733454  0.36752285  0.92556850  1
  O  O89  1  0.51162043  0.14184777  0.92544033  1
  O  O90  1  0.64612715  0.14361699  0.42221898  1
  O  O91  1  0.49930245  0.35354681  0.42257196  1
  O  O92  1  0.85562167  0.50122860  0.42245783  1
  O  O93  1  0.35950958  0.49360312  0.07408149  1
  O  O94  1  0.13140827  0.63302141  0.07532525  1
  O  O95  1  0.50118828  0.86729507  0.07568725  1
  O  O96  1  0.35352694  0.85878629  0.57531822  1
  O  O97  1  0.50539266  0.64703506  0.57512496  1
  O  O98  1  0.14087283  0.49390400  0.57542047  1
  O  O99  1  0.31898298  0.84718790  0.25959201  1
  O  O100  1  0.53316139  0.69349615  0.25959452  1
  O  O101  1  0.16714345  0.48215977  0.25862432  1
  O  O102  1  0.29948753  0.46621216  0.75759748  1
  O  O103  1  0.16302583  0.69362207  0.75787292  1
  O  O104  1  0.53318466  0.83482605  0.75724304  1
