# generated using pymatgen
data_Na14Zr4Si11Ge4SO48
_symmetry_space_group_name_H-M   'P 1'
_cell_length_a   18.04208310
_cell_length_b   9.02975049
_cell_length_c   22.21558977
_cell_angle_alpha   90.30212218
_cell_angle_beta   89.95587716
_cell_angle_gamma   119.97826479
_symmetry_Int_Tables_number   1
_chemical_formula_structural   Na14Zr4Si11Ge4SO48
_chemical_formula_sum   'Na42 Zr12 Si33 Ge12 S3 O144'
_cell_volume   3135.01007141
_cell_formula_units_Z   3
loop_
 _symmetry_equiv_pos_site_id
 _symmetry_equiv_pos_as_xyz
  1  'x, y, z'
loop_
 _atom_site_type_symbol
 _atom_site_label
 _atom_site_symmetry_multiplicity
 _atom_site_fract_x
 _atom_site_fract_y
 _atom_site_fract_z
 _atom_site_occupancy
  Na  Na0  1  0.31858772  0.99982516  0.24963629  1
  Na  Na1  1  0.81854084  0.00034850  0.25004129  1
  Na  Na2  1  0.31929408  0.64013205  0.75212285  1
  Na  Na3  1  0.81906269  0.63645581  0.74936269  1
  Na  Na4  1  0.50373029  0.36447839  0.75351069  1
  Na  Na5  1  0.68383246  0.00340836  0.74942816  1
  Na  Na6  1  0.14741514  0.33349058  0.58104577  1
  Na  Na7  1  0.65170037  0.33356843  0.58228332  1
  Na  Na8  1  0.01347205  0.69129592  0.58366990  1
  Na  Na9  1  0.52244879  0.70749689  0.58066753  1
  Na  Na10  1  0.33353483  0.96868079  0.58369130  1
  Na  Na11  1  0.83078478  0.95966126  0.58143262  1
  Na  Na12  1  0.14826366  0.96266927  0.08077835  1
  Na  Na13  1  0.64992125  0.96639544  0.07998251  1
  Na  Na14  1  0.33191319  0.69960156  0.08232481  1
  Na  Na15  1  0.83153090  0.70154569  0.08190304  1
  Na  Na16  1  0.01892104  0.33868877  0.08207836  1
  Na  Na17  1  0.52068461  0.33860371  0.08226637  1
  Na  Na18  1  0.48272233  0.67008759  0.91637085  1
  Na  Na19  1  0.97927332  0.66009365  0.91844969  1
  Na  Na20  1  0.35173526  0.03798475  0.91651747  1
  Na  Na21  1  0.85162842  0.04169573  0.91826047  1
  Na  Na22  1  0.16514110  0.29953037  0.91984106  1
  Na  Na23  1  0.66949909  0.29313728  0.91881881  1
  Na  Na24  1  0.48538738  0.30186322  0.41543789  1
  Na  Na25  1  0.97887796  0.29691638  0.41818716  1
  Na  Na26  1  0.16410856  0.02786011  0.41696435  1
  Na  Na27  1  0.66854674  0.04267105  0.42061351  1
  Na  Na28  1  0.35114082  0.66420429  0.41523189  1
  Na  Na29  1  0.84944720  0.66068536  0.41810676  1
  Na  Na30  1  0.99991890  0.00025755  0.49936747  1
  Na  Na31  1  0.50205862  0.00045006  0.50073211  1
  Na  Na32  1  0.00124627  0.00193544  0.00087704  1
  Na  Na33  1  0.50104330  0.00062540  0.00032755  1
  Na  Na34  1  0.33247621  0.32413499  0.83356452  1
  Na  Na35  1  0.83942296  0.33500043  0.83058361  1
  Na  Na36  1  0.33730142  0.34867802  0.32738566  1
  Na  Na37  1  0.83630838  0.34754607  0.33003799  1
  Na  Na38  1  0.16262447  0.65207620  0.16946699  1
  Na  Na39  1  0.66297124  0.65127611  0.16991248  1
  Na  Na40  1  0.16195472  0.67369229  0.67093761  1
  Na  Na41  1  0.66820268  0.66876608  0.66711179  1
  Zr  Zr42  1  0.98971005  0.99241225  0.35015172  1
  Zr  Zr43  1  0.49617955  0.99647660  0.35070250  1
  Zr  Zr44  1  0.99277995  0.98849875  0.85438384  1
  Zr  Zr45  1  0.50235713  0.00526444  0.85426342  1
  Zr  Zr46  1  0.99269480  0.98214653  0.64760152  1
  Zr  Zr47  1  0.50189872  0.00145479  0.65042850  1
  Zr  Zr48  1  0.99393203  0.00317589  0.14819265  1
  Zr  Zr49  1  0.49758097  0.00721287  0.14927242  1
  Zr  Zr50  1  0.33803943  0.32972790  0.68415508  1
  Zr  Zr51  1  0.33415484  0.33813634  0.97913751  1
  Zr  Zr52  1  0.33448690  0.33322695  0.47736503  1
  Zr  Zr53  1  0.16305543  0.66126152  0.51928966  1
  Si  Si54  1  0.34413953  0.68727591  0.24959637  1
  Si  Si55  1  0.84262825  0.68360868  0.24906128  1
  Si  Si56  1  0.99946862  0.31342135  0.24958201  1
  Si  Si57  1  0.50112615  0.31474040  0.25026727  1
  Si  Si58  1  0.65360808  0.30781116  0.75072600  1
  Si  Si59  1  0.00164872  0.69036323  0.75001165  1
  Si  Si60  1  0.50401844  0.70175493  0.75349165  1
  Si  Si61  1  0.34412315  0.98844098  0.75328671  1
  Si  Si62  1  0.84778127  0.00425908  0.75105390  1
  Si  Si63  1  0.48796978  0.34240250  0.57985058  1
  Si  Si64  1  0.96987371  0.32965622  0.58355684  1
  Si  Si65  1  0.18414297  0.03808071  0.58157153  1
  Si  Si66  1  0.69476954  0.04869856  0.58152910  1
  Si  Si67  1  0.33339516  0.62910369  0.58460635  1
  Si  Si68  1  0.82855343  0.60663404  0.58096632  1
  Si  Si69  1  0.48475536  0.62730931  0.08241117  1
  Si  Si70  1  0.97847393  0.61744459  0.07893752  1
  Si  Si71  1  0.32868740  0.04219850  0.08468075  1
  Si  Si72  1  0.82916308  0.05228627  0.08184608  1
  Si  Si73  1  0.19081405  0.33975190  0.08468395  1
  Si  Si74  1  0.69585022  0.34049093  0.08122294  1
  Si  Si75  1  0.30310082  0.66739587  0.91614103  1
  Si  Si76  1  0.80459508  0.65745736  0.91968139  1
  Si  Si77  1  0.02477063  0.38955908  0.91894325  1
  Si  Si78  1  0.53037929  0.39419084  0.91707086  1
  Si  Si79  1  0.16633802  0.94828416  0.91902015  1
  Si  Si80  1  0.67090586  0.95177687  0.91991567  1
  Si  Si81  1  0.30697528  0.94826353  0.41208413  1
  Si  Si82  1  0.80311498  0.94861653  0.41773799  1
  Si  Si83  1  0.16577732  0.37196078  0.41435475  1
  Si  Si84  1  0.67074101  0.38309312  0.42061300  1
  Si  Si85  1  0.01912390  0.65861276  0.41462864  1
  Si  Si86  1  0.53152910  0.66970400  0.41608709  1
  Ge  Ge87  1  0.83378099  0.33344272  0.68634313  1
  Ge  Ge88  1  0.34448953  0.35639084  0.18120761  1
  Ge  Ge89  1  0.84426995  0.35585261  0.18034027  1
  Ge  Ge90  1  0.83352367  0.33389668  0.97949392  1
  Ge  Ge91  1  0.83290424  0.33058231  0.47953617  1
  Ge  Ge92  1  0.16522697  0.66607757  0.02083222  1
  Ge  Ge93  1  0.66814059  0.66873924  0.02122649  1
  Ge  Ge94  1  0.66818940  0.66753190  0.51978178  1
  Ge  Ge95  1  0.16394185  0.64425810  0.31631494  1
  Ge  Ge96  1  0.66841369  0.64459458  0.31845228  1
  Ge  Ge97  1  0.16316449  0.68096478  0.81827304  1
  Ge  Ge98  1  0.67035279  0.67178205  0.81525660  1
  S  S99  1  0.14899653  -0.00012037  0.24980166  1
  S  S100  1  0.65142146  0.00093980  0.24972117  1
  S  S101  1  0.14637521  0.29639240  0.75086032  1
  O  O102  1  0.10508243  0.01830073  0.30410101  1
  O  O103  1  0.60782495  0.02059029  0.30421147  1
  O  O104  1  0.40555431  0.77919320  0.30906803  1
  O  O105  1  0.90291884  0.77461588  0.30839139  1
  O  O106  1  0.48179026  0.18232297  0.30727062  1
  O  O107  1  0.97945171  0.18293136  0.30710108  1
  O  O108  1  0.10482792  0.19215460  0.80509121  1
  O  O109  1  0.60989949  0.18082491  0.80847728  1
  O  O110  1  0.48547222  0.79135106  0.81084396  1
  O  O111  1  0.98356273  0.78538576  0.80773549  1
  O  O112  1  0.40933167  0.02860982  0.81039973  1
  O  O113  1  0.90759919  0.03172398  0.81013133  1
  O  O114  1  0.39037757  0.95980370  0.69350124  1
  O  O115  1  0.89007248  0.96015566  0.69303986  1
  O  O116  1  0.09616533  0.21028794  0.69604776  1
  O  O117  1  0.58938532  0.22226246  0.69295203  1
  O  O118  1  0.01692356  0.81275677  0.69098714  1
  O  O119  1  0.52042161  0.82090515  0.69372652  1
  O  O120  1  0.39183307  0.81973136  0.19289243  1
  O  O121  1  0.88839114  0.81604288  0.19200141  1
  O  O122  1  0.01435631  0.21861894  0.19105177  1
  O  O123  1  0.51638341  0.22378940  0.19066711  1
  O  O124  1  0.09572107  0.98075288  0.19542575  1
  O  O125  1  0.59749231  0.98212622  0.19581108  1
  O  O126  1  0.44504458  0.37515731  0.64008334  1
  O  O127  1  0.92625915  0.36927749  0.64080581  1
  O  O128  1  0.24793030  0.13238414  0.63794337  1
  O  O129  1  0.75282037  0.13363989  0.64224359  1
  O  O130  1  0.31917972  0.51292074  0.64412201  1
  O  O131  1  0.81154804  0.49238097  0.64182308  1
  O  O132  1  0.43972595  0.49494097  0.13842008  1
  O  O133  1  0.93956466  0.49360698  0.13769486  1
  O  O134  1  0.31378543  0.13736616  0.14344607  1
  O  O135  1  0.81337530  0.13934568  0.14243983  1
  O  O136  1  0.25928143  0.37555159  0.13915895  1
  O  O137  1  0.76048077  0.37784180  0.13824905  1
  O  O138  1  0.22641973  0.29937166  0.02264362  1
  O  O139  1  0.73456209  0.29806709  0.02016952  1
  O  O140  1  0.42479019  0.55451877  0.02246141  1
  O  O141  1  0.91529019  0.53492417  0.02011269  1
  O  O142  1  0.35001971  0.15919987  0.02451106  1
  O  O143  1  0.85148592  0.17457594  0.02216352  1
  O  O144  1  0.22687771  0.15184156  0.52128409  1
  O  O145  1  0.73500790  0.17063571  0.52171827  1
  O  O146  1  0.34794958  0.54024501  0.52482606  1
  O  O147  1  0.85150640  0.52803766  0.52154457  1
  O  O148  1  0.42476657  0.30124966  0.52233998  1
  O  O149  1  0.91417393  0.29551320  0.52063026  1
  O  O150  1  0.26209835  0.69981042  0.97807436  1
  O  O151  1  0.76549942  0.70143427  0.97936479  1
  O  O152  1  0.08508447  0.46723834  0.97960425  1
  O  O153  1  0.58745274  0.47596381  0.97842209  1
  O  O154  1  0.14809086  0.83001785  0.97925597  1
  O  O155  1  0.65078859  0.82910542  0.97907560  1
  O  O156  1  0.26934809  0.83890983  0.47376746  1
  O  O157  1  0.76509106  0.82712305  0.47770519  1
  O  O158  1  0.14689681  0.44486641  0.47649523  1
  O  O159  1  0.64860477  0.46640181  0.47891315  1
  O  O160  1  0.07521985  0.70215298  0.47657051  1
  O  O161  1  0.58687671  0.70252492  0.47877218  1
  O  O162  1  0.06962522  0.62484248  0.35978008  1
  O  O163  1  0.57677316  0.63194940  0.35925945  1
  O  O164  1  0.24360596  0.85384430  0.35425231  1
  O  O165  1  0.74541640  0.86214866  0.35676477  1
  O  O166  1  0.18634865  0.50367906  0.35907809  1
  O  O167  1  0.69360711  0.50624107  0.36162262  1
  O  O168  1  0.06872130  0.51550026  0.86110436  1
  O  O169  1  0.57268005  0.50942512  0.85660457  1
  O  O170  1  0.18716534  0.86894131  0.85986312  1
  O  O171  1  0.68788294  0.86820972  0.85899978  1
  O  O172  1  0.24225842  0.63079335  0.85606401  1
  O  O173  1  0.74864482  0.62872939  0.85831024  1
  O  O174  1  0.00909464  0.82874825  0.40795691  1
  O  O175  1  0.52048116  0.83976845  0.41095608  1
  O  O176  1  0.40370433  0.97121619  0.41017891  1
  O  O177  1  0.90015009  0.97227225  0.41332962  1
  O  O178  1  0.08217683  0.18123622  0.40805414  1
  O  O179  1  0.58575829  0.19301014  0.41210014  1
  O  O180  1  0.01506299  0.19830473  0.91260310  1
  O  O181  1  0.51897557  0.20184758  0.91508808  1
  O  O182  1  0.08214837  0.97248554  0.91371274  1
  O  O183  1  0.58552639  0.97321984  0.91610874  1
  O  O184  1  0.39978170  0.83655457  0.91429083  1
  O  O185  1  0.90102155  0.82958837  0.91533117  1
  O  O186  1  0.49555492  0.17112233  0.58614267  1
  O  O187  1  0.98246234  0.16196744  0.58945959  1
  O  O188  1  0.09124682  0.02698446  0.58636396  1
  O  O189  1  0.59858741  0.02499023  0.58713234  1
  O  O190  1  0.41932791  0.81768290  0.58658988  1
  O  O191  1  0.91397477  0.79975916  0.58584333  1
  O  O192  1  0.49635667  0.81735667  0.09147727  1
  O  O193  1  0.98923453  0.80842584  0.08725211  1
  O  O194  1  0.41394277  0.01912564  0.08893639  1
  O  O195  1  0.91427741  0.02784620  0.08640091  1
  O  O196  1  0.09592806  0.16798282  0.09121002  1
  O  O197  1  0.59983686  0.17069016  0.08820839  1
  O  O198  1  0.34020782  0.16406235  0.74831021  1
  O  O199  1  0.83611824  0.17045796  0.74333697  1
  O  O200  1  0.23336666  0.31738440  0.74820842  1
  O  O201  1  0.74614198  0.31898365  0.74206849  1
  O  O202  1  0.41720945  0.51463461  0.74956064  1
  O  O203  1  0.91021332  0.51150027  0.74221464  1
  O  O204  1  0.33879373  0.50171138  0.24034509  1
  O  O205  1  0.83763451  0.49922837  0.23980310  1
  O  O206  1  0.40806738  0.30928517  0.24125131  1
  O  O207  1  0.90729623  0.30928992  0.24038285  1
  O  O208  1  0.23411094  0.15322480  0.24697283  1
  O  O209  1  0.73587597  0.15505242  0.24674640  1
  O  O210  1  0.31484012  0.49813163  0.91736838  1
  O  O211  1  0.81706825  0.48764069  0.92289197  1
  O  O212  1  0.43364714  0.36938487  0.91807294  1
  O  O213  1  0.92704476  0.36478887  0.92330286  1
  O  O214  1  0.25124473  0.13908065  0.92010426  1
  O  O215  1  0.75717477  0.14592779  0.92357203  1
  O  O216  1  0.31866670  0.13930548  0.41423431  1
  O  O217  1  0.81563038  0.14308246  0.42252609  1
  O  O218  1  0.25253252  0.35853623  0.41597247  1
  O  O219  1  0.75625333  0.36150820  0.42530716  1
  O  O220  1  0.43475213  0.50213083  0.41847999  1
  O  O221  1  0.92375881  0.48424795  0.42017386  1
  O  O222  1  0.18103131  0.51210417  0.07965219  1
  O  O223  1  0.68411606  0.51175692  0.07693792  1
  O  O224  1  0.07477472  0.63791040  0.07502342  1
  O  O225  1  0.57893126  0.63978217  0.07782478  1
  O  O226  1  0.24276404  0.85026637  0.07941912  1
  O  O227  1  0.74498225  0.85740599  0.07739477  1
  O  O228  1  0.17441463  0.84972405  0.58112396  1
  O  O229  1  0.68446652  0.85533227  0.57641650  1
  O  O230  1  0.24780559  0.64616332  0.58219014  1
  O  O231  1  0.74530266  0.63564139  0.57577901  1
  O  O232  1  0.06615842  0.49704093  0.58068942  1
  O  O233  1  0.58090598  0.51967725  0.57642415  1
  O  O234  1  0.15691181  0.84517048  0.25246431  1
  O  O235  1  0.65875629  0.84672134  0.25237919  1
  O  O236  1  0.25318274  0.68988418  0.25713102  1
  O  O237  1  0.75293599  0.69026950  0.25841556  1
  O  O238  1  0.08653322  0.49963409  0.25757153  1
  O  O239  1  0.58827033  0.49924267  0.25962064  1
  O  O240  1  0.15464048  0.46759223  0.75391818  1
  O  O241  1  0.66074040  0.49539958  0.75804821  1
  O  O242  1  0.08809999  0.67615671  0.75885864  1
  O  O243  1  0.59059061  0.68741574  0.75874876  1
  O  O244  1  0.25290738  0.80774137  0.75921835  1
  O  O245  1  0.75502016  0.82573186  0.75839582  1
