# generated using pymatgen
data_Na8Sc2Si5Ge2SO24
_symmetry_space_group_name_H-M   'P 1'
_cell_length_a   9.03201192
_cell_length_b   9.01665761
_cell_length_c   22.07004648
_cell_angle_alpha   90.52606138
_cell_angle_beta   88.96808924
_cell_angle_gamma   120.33162951
_symmetry_Int_Tables_number   1
_chemical_formula_structural   Na8Sc2Si5Ge2SO24
_chemical_formula_sum   'Na24 Sc6 Si15 Ge6 S3 O72'
_cell_volume   1551.07396029
_cell_formula_units_Z   3
loop_
 _symmetry_equiv_pos_site_id
 _symmetry_equiv_pos_as_xyz
  1  'x, y, z'
loop_
 _atom_site_type_symbol
 _atom_site_label
 _atom_site_symmetry_multiplicity
 _atom_site_fract_x
 _atom_site_fract_y
 _atom_site_fract_z
 _atom_site_occupancy
  Na  Na0  1  0.64392120  0.00392900  0.25160246  1
  Na  Na1  1  0.35537010  0.36005549  0.24876147  1
  Na  Na2  1  0.99957114  0.64075617  0.24986746  1
  Na  Na3  1  0.63558794  0.63518036  0.74749211  1
  Na  Na4  1  0.99509626  0.36143968  0.74911690  1
  Na  Na5  1  0.36783991  0.00654278  0.74916905  1
  Na  Na6  1  0.29676462  0.33691685  0.58656010  1
  Na  Na7  1  0.04077523  0.70409736  0.58366168  1
  Na  Na8  1  0.66470724  0.95742407  0.58382860  1
  Na  Na9  1  0.28761890  0.96408219  0.08093326  1
  Na  Na10  1  0.66925309  0.69305192  0.08715911  1
  Na  Na11  1  0.04467860  0.33713827  0.08707583  1
  Na  Na12  1  0.97406055  0.66732201  0.91607577  1
  Na  Na13  1  0.70444620  0.04313747  0.90908438  1
  Na  Na14  1  0.32330853  0.28534054  0.91804340  1
  Na  Na15  1  0.96079519  0.29612587  0.41324750  1
  Na  Na16  1  0.32957599  0.02592606  0.41683272  1
  Na  Na17  1  0.70808037  0.67504681  0.41916619  1
  Na  Na18  1  0.99216618  0.99107228  0.50157962  1
  Na  Na19  1  0.01788183  0.00660251  0.99988463  1
  Na  Na20  1  0.66773128  0.32642560  0.83027595  1
  Na  Na21  1  0.67025458  0.33152303  0.33346697  1
  Na  Na22  1  0.32672934  0.65720206  0.16794687  1
  Na  Na23  1  0.33509816  0.66649881  0.66493240  1
  Sc  Sc24  1  0.99449158  0.99540624  0.34781753  1
  Sc  Sc25  1  0.00743762  0.00528663  0.84733823  1
  Sc  Sc26  1  0.00678434  0.00024987  0.15309962  1
  Sc  Sc27  1  0.66562046  0.33255625  0.97933114  1
  Sc  Sc28  1  0.31554136  0.65503500  0.02031447  1
  Sc  Sc29  1  0.33570975  0.67622286  0.52334670  1
  Si  Si30  1  0.30440358  0.00576972  0.24945650  1
  Si  Si31  1  0.69435987  0.70184561  0.25117974  1
  Si  Si32  1  0.99951797  0.30431285  0.25035761  1
  Si  Si33  1  0.29658027  0.29687151  0.74764014  1
  Si  Si34  1  0.99357627  0.70577137  0.74724333  1
  Si  Si35  1  0.70521160  0.99970683  0.74897497  1
  Si  Si36  1  0.95236930  0.32484800  0.58696852  1
  Si  Si37  1  0.38173882  0.05651654  0.58545537  1
  Si  Si38  1  0.67277118  0.61812128  0.58493058  1
  Si  Si39  1  0.95264054  0.62367312  0.08464289  1
  Si  Si40  1  0.37793218  0.33378210  0.08513672  1
  Si  Si41  1  0.04388123  0.37459549  0.91366946  1
  Si  Si42  1  0.33214233  0.95376778  0.91489693  1
  Si  Si43  1  0.62368486  0.96212364  0.41749397  1
  Si  Si44  1  0.03825750  0.66315673  0.41870930  1
  Ge  Ge45  1  0.99948129  0.99989754  0.64784580  1
  Ge  Ge46  1  0.66678181  0.33422926  0.68562067  1
  Ge  Ge47  1  0.66882815  0.35161721  0.18971894  1
  Ge  Ge48  1  0.68436844  0.32930231  0.48740751  1
  Ge  Ge49  1  0.32751395  0.68320042  0.31187035  1
  Ge  Ge50  1  0.31556404  0.67141247  0.80673483  1
  S  S51  1  0.66815131  0.04277294  0.08405518  1
  S  S52  1  0.62228286  0.66725577  0.91557604  1
  S  S53  1  0.33548234  0.37692666  0.41635329  1
  O  O54  1  0.22826705  0.05114194  0.30918087  1
  O  O55  1  0.81997236  0.77950638  0.30870074  1
  O  O56  1  0.95764285  0.18127215  0.30903843  1
  O  O57  1  0.22373867  0.17945862  0.80785755  1
  O  O58  1  0.95321143  0.77772996  0.80861279  1
  O  O59  1  0.82101192  0.03986369  0.80856417  1
  O  O60  1  0.79478262  0.95672936  0.68998386  1
  O  O61  1  0.16389131  0.20748632  0.68999616  1
  O  O62  1  0.03878017  0.83855991  0.68930810  1
  O  O63  1  0.77003162  0.82186142  0.19143263  1
  O  O64  1  0.04251540  0.22499983  0.19081799  1
  O  O65  1  0.18016416  0.95740814  0.19164103  1
  O  O66  1  0.86222750  0.36591458  0.64410338  1
  O  O67  1  0.50558963  0.14102590  0.64381593  1
  O  O68  1  0.63656660  0.49597626  0.64387740  1
  O  O69  1  0.85984548  0.49430976  0.14422127  1
  O  O70  1  0.63852444  0.12093919  0.13886176  1
  O  O71  1  0.50252159  0.36165001  0.14431620  1
  O  O72  1  0.45851427  0.29759079  0.02414576  1
  O  O73  1  0.84159564  0.53710350  0.02429282  1
  O  O74  1  0.69391344  0.14578587  0.02892507  1
  O  O75  1  0.47029366  0.17895606  0.52374470  1
  O  O76  1  0.70894321  0.53029192  0.52298608  1
  O  O77  1  0.83479572  0.28441341  0.52478213  1
  O  O78  1  0.54413293  0.69078149  0.97145571  1
  O  O79  1  0.15903602  0.45342180  0.97422945  1
  O  O80  1  0.30965087  0.84376904  0.97594230  1
  O  O81  1  0.54335497  0.84008436  0.47592652  1
  O  O82  1  0.30923418  0.45433988  0.47134845  1
  O  O83  1  0.15507196  0.69286982  0.47685122  1
  O  O84  1  0.12790042  0.62686498  0.35714167  1
  O  O85  1  0.49677677  0.87178052  0.35734144  1
  O  O86  1  0.36114616  0.48300430  0.36137576  1
  O  O87  1  0.14096340  0.50436491  0.85418349  1
  O  O88  1  0.36662217  0.86063595  0.85409728  1
  O  O89  1  0.51772123  0.64023568  0.86135671  1
  O  O90  1  0.02002650  0.83332030  0.41233655  1
  O  O91  1  0.81667160  0.99087938  0.41137882  1
  O  O92  1  0.18019592  0.20313573  0.41244337  1
  O  O93  1  0.01697438  0.18169837  0.91145744  1
  O  O94  1  0.15866491  0.96728310  0.91210217  1
  O  O95  1  0.79541106  0.82179088  0.91195483  1
  O  O96  1  0.96660299  0.14884544  0.59160137  1
  O  O97  1  0.18872001  0.03733289  0.59012295  1
  O  O98  1  0.84846280  0.81135288  0.58972095  1
  O  O99  1  0.96876324  0.81205297  0.08851858  1
  O  O100  1  0.82351143  0.02752100  0.08775973  1
  O  O101  1  0.18440377  0.16627417  0.08870986  1
  O  O102  1  0.68264288  0.16985504  0.74127977  1
  O  O103  1  0.48865918  0.31711254  0.74064780  1
  O  O104  1  0.82482206  0.51112506  0.74081193  1
  O  O105  1  0.67685164  0.51001299  0.24535066  1
  O  O106  1  0.82518724  0.32090490  0.24239382  1
  O  O107  1  0.49916255  0.17375145  0.23928647  1
  O  O108  1  0.63998187  0.51153739  0.91925644  1
  O  O109  1  0.85735679  0.36294111  0.91626585  1
  O  O110  1  0.50454079  0.14505609  0.91529052  1
  O  O111  1  0.63415326  0.15395038  0.42403013  1
  O  O112  1  0.49148843  0.36066469  0.41926066  1
  O  O113  1  0.84299498  0.48347661  0.42353076  1
  O  O114  1  0.37050992  0.51174319  0.08378603  1
  O  O115  1  0.14402997  0.64411873  0.08503111  1
  O  O116  1  0.51483718  0.86868518  0.07922810  1
  O  O117  1  0.35914244  0.86522622  0.58194371  1
  O  O118  1  0.50337314  0.63732002  0.58044919  1
  O  O119  1  0.14234461  0.49280193  0.58126470  1
  O  O120  1  0.32071660  0.83129911  0.25599245  1
  O  O121  1  0.50127852  0.67786986  0.26236461  1
  O  O122  1  0.17586673  0.49604238  0.25878267  1
  O  O123  1  0.31633424  0.49088959  0.75586998  1
  O  O124  1  0.17043497  0.68970927  0.75120077  1
  O  O125  1  0.51151033  0.82122024  0.75516773  1
