# generated using pymatgen
data_MgMnSbO4
_symmetry_space_group_name_H-M   'P 1'
_cell_length_a   5.77943597
_cell_length_b   5.77943721
_cell_length_c   5.77943658
_cell_angle_alpha   135.62701946
_cell_angle_beta   137.96839693
_cell_angle_gamma   62.76905987
_symmetry_Int_Tables_number   1
_chemical_formula_structural   MgMnSbO4
_chemical_formula_sum   'Mg1 Mn1 Sb1 O4'
_cell_volume   89.27221383
_cell_formula_units_Z   1
loop_
 _symmetry_equiv_pos_site_id
 _symmetry_equiv_pos_as_xyz
  1  'x, y, z'
loop_
 _atom_site_type_symbol
 _atom_site_label
 _atom_site_symmetry_multiplicity
 _atom_site_fract_x
 _atom_site_fract_y
 _atom_site_fract_z
 _atom_site_occupancy
  Mg  Mg0  1  0.51429210  0.51429210  1.00000000  1
  Mn  Mn1  1  0.96975731  0.96975731  0.00000000  1
  Sb  Sb2  1  0.75285310  0.25285310  0.50000000  1
  O  O3  1  0.53646590  0.03646590  0.50000000  1
  O  O4  1  0.28917533  0.28917533  1.00000000  1
  O  O5  1  0.98071317  0.48071317  0.50000000  1
  O  O6  1  0.74245709  0.74245709  0.00000000  1
