# generated using pymatgen
data_Na6Ta2Al2Si5SO24
_symmetry_space_group_name_H-M   'P 1'
_cell_length_a   8.91245353
_cell_length_b   8.89807530
_cell_length_c   22.20543041
_cell_angle_alpha   90.37599355
_cell_angle_beta   89.45909394
_cell_angle_gamma   120.08423538
_symmetry_Int_Tables_number   1
_chemical_formula_structural   Na6Ta2Al2Si5SO24
_chemical_formula_sum   'Na18 Ta6 Al6 Si15 S3 O72'
_cell_volume   1523.67940287
_cell_formula_units_Z   3
loop_
 _symmetry_equiv_pos_site_id
 _symmetry_equiv_pos_as_xyz
  1  'x, y, z'
loop_
 _atom_site_type_symbol
 _atom_site_label
 _atom_site_symmetry_multiplicity
 _atom_site_fract_x
 _atom_site_fract_y
 _atom_site_fract_z
 _atom_site_occupancy
  Na  Na0  1  0.63814490  0.00939786  0.24808594  1
  Na  Na1  1  0.36643094  0.35838104  0.25117188  1
  Na  Na2  1  0.99387399  0.63093619  0.24760808  1
  Na  Na3  1  0.99650075  0.36115669  0.74989186  1
  Na  Na4  1  0.30052038  0.34005060  0.58045282  1
  Na  Na5  1  0.66321282  0.96432080  0.58072756  1
  Na  Na6  1  0.66507030  0.70049637  0.07768036  1
  Na  Na7  1  0.02450211  0.33558903  0.08097937  1
  Na  Na8  1  0.95905022  0.66402664  0.91436451  1
  Na  Na9  1  0.70877444  0.03509706  0.91849547  1
  Na  Na10  1  0.33092293  0.30360600  0.91472093  1
  Na  Na11  1  0.69758058  0.67149029  0.41661898  1
  Na  Na12  1  0.00644097  0.00805211  0.49485532  1
  Na  Na13  1  0.99458034  0.99622185  0.99689773  1
  Na  Na14  1  0.66502632  0.33858217  0.83303757  1
  Na  Na15  1  0.66071463  0.32183345  0.33161502  1
  Na  Na16  1  0.33016074  0.68154439  0.16169059  1
  Na  Na17  1  0.33097859  0.67422053  0.66219924  1
  Ta  Ta18  1  0.99808248  0.99388448  0.64596179  1
  Ta  Ta19  1  0.99478686  0.99304968  0.14696465  1
  Ta  Ta20  1  0.66468952  0.33398469  0.68804334  1
  Ta  Ta21  1  0.65651799  0.32133264  0.47924339  1
  Ta  Ta22  1  0.34247415  0.67048914  0.31362124  1
  Ta  Ta23  1  0.33499999  0.65539188  0.81017726  1
  Al  Al24  1  0.00324532  0.01944905  0.35151502  1
  Al  Al25  1  0.98579391  0.00048755  0.84953280  1
  Al  Al26  1  0.68068377  0.32810075  0.18785759  1
  Al  Al27  1  0.69659919  0.35105938  0.98194020  1
  Al  Al28  1  0.33469207  0.67420214  0.01871792  1
  Al  Al29  1  0.34322670  0.66233394  0.52220622  1
  Si  Si30  1  0.29017886  0.00745808  0.25246485  1
  Si  Si31  1  0.71631921  0.70570532  0.25338069  1
  Si  Si32  1  0.99568990  0.28750651  0.25104155  1
  Si  Si33  1  0.28433145  0.27413362  0.75355172  1
  Si  Si34  1  0.00036484  0.71767189  0.75475551  1
  Si  Si35  1  0.71051536  0.99887722  0.75233543  1
  Si  Si36  1  0.96602707  0.34539487  0.58197328  1
  Si  Si37  1  0.37095912  0.02964078  0.58311257  1
  Si  Si38  1  0.66659966  0.62398800  0.58123829  1
  Si  Si39  1  0.96084776  0.61899422  0.08287825  1
  Si  Si40  1  0.65373368  0.04488097  0.08176899  1
  Si  Si41  1  0.62593523  0.66440800  0.92105641  1
  Si  Si42  1  0.04404866  0.37336979  0.92033332  1
  Si  Si43  1  0.63149655  0.95620929  0.41925018  1
  Si  Si44  1  0.32095713  0.36696960  0.41940490  1
  S  S45  1  0.38221382  0.33212377  0.08264971  1
  S  S46  1  0.33392427  0.95586629  0.91870703  1
  S  S47  1  0.04814927  0.67040561  0.41843227  1
  O  O48  1  0.19230777  0.03591012  0.30816028  1
  O  O49  1  0.83806650  0.79652383  0.31043001  1
  O  O50  1  0.95776072  0.15927899  0.30612211  1
  O  O51  1  0.19377932  0.16443203  0.81322591  1
  O  O52  1  0.97310768  0.80638700  0.81380247  1
  O  O53  1  0.83148060  0.03915324  0.81055498  1
  O  O54  1  0.79622248  0.96814240  0.69096513  1
  O  O55  1  0.16579960  0.20107623  0.69235723  1
  O  O56  1  0.03063197  0.83471188  0.69372384  1
  O  O57  1  0.79601048  0.83395359  0.19247373  1
  O  O58  1  0.04133202  0.20855956  0.18949471  1
  O  O59  1  0.16227906  0.96550415  0.19229772  1
  O  O60  1  0.86978130  0.36453845  0.64286599  1
  O  O61  1  0.50172976  0.13089927  0.63988381  1
  O  O62  1  0.63359820  0.49600217  0.63897007  1
  O  O63  1  0.86770912  0.50130488  0.14262704  1
  O  O64  1  0.63727128  0.13470183  0.14351286  1
  O  O65  1  0.48528037  0.35897837  0.13748998  1
  O  O66  1  0.46010110  0.30522732  0.02771563  1
  O  O67  1  0.83424983  0.54271245  0.02423251  1
  O  O68  1  0.69527797  0.17047961  0.02277584  1
  O  O69  1  0.46337667  0.16762312  0.52602614  1
  O  O70  1  0.70110843  0.53615111  0.52170932  1
  O  O71  1  0.82753191  0.29975417  0.52649893  1
  O  O72  1  0.53068418  0.70079892  0.97761569  1
  O  O73  1  0.17263393  0.47159096  0.97679390  1
  O  O74  1  0.30327691  0.84305107  0.97158742  1
  O  O75  1  0.53139286  0.83130464  0.47597780  1
  O  O76  1  0.30593853  0.46937116  0.47724683  1
  O  O77  1  0.15571592  0.69069704  0.47081197  1
  O  O78  1  0.12562669  0.64046677  0.36146752  1
  O  O79  1  0.50440637  0.86806738  0.35832530  1
  O  O80  1  0.36179255  0.49854316  0.35892015  1
  O  O81  1  0.13192732  0.50115892  0.86013166  1
  O  O82  1  0.36620572  0.87789743  0.86380543  1
  O  O83  1  0.49672660  0.63401255  0.86192609  1
  O  O84  1  0.02490183  0.82048397  0.41203989  1
  O  O85  1  0.81584220  0.96446383  0.40879070  1
  O  O86  1  0.15708128  0.17713054  0.40923647  1
  O  O87  1  0.02672602  0.18147009  0.91155049  1
  O  O88  1  0.17785515  0.97307944  0.91358189  1
  O  O89  1  0.81851343  0.83719999  0.91124296  1
  O  O90  1  0.97628627  0.16501794  0.58901259  1
  O  O91  1  0.18924192  0.03088788  0.58913428  1
  O  O92  1  0.83688015  0.81748360  0.58790473  1
  O  O93  1  0.97646809  0.81489870  0.08934202  1
  O  O94  1  0.83828117  0.02821459  0.08854203  1
  O  O95  1  0.20149364  0.17642174  0.08705973  1
  O  O96  1  0.69562519  0.17388647  0.74411291  1
  O  O97  1  0.47977453  0.30748456  0.74511156  1
  O  O98  1  0.83358444  0.52013598  0.74488909  1
  O  O99  1  0.68389048  0.51241969  0.23991098  1
  O  O100  1  0.82842177  0.31277185  0.24355489  1
  O  O101  1  0.48262138  0.17469167  0.24133006  1
  O  O102  1  0.63525423  0.48329475  0.92618195  1
  O  O103  1  0.84969853  0.35430936  0.92345951  1
  O  O104  1  0.48956417  0.13161075  0.92428972  1
  O  O105  1  0.64808071  0.14975822  0.42174085  1
  O  O106  1  0.51058044  0.36743298  0.42156714  1
  O  O107  1  0.87102606  0.51004227  0.42108207  1
  O  O108  1  0.35982815  0.48785263  0.07845659  1
  O  O109  1  0.15161217  0.63636587  0.07391827  1
  O  O110  1  0.49468126  0.84327265  0.07503038  1
  O  O111  1  0.36057997  0.84696948  0.57315074  1
  O  O112  1  0.49563447  0.64292978  0.57751047  1
  O  O113  1  0.15711468  0.50967262  0.57466224  1
  O  O114  1  0.30586409  0.82871390  0.25700822  1
  O  O115  1  0.52186598  0.69204178  0.25610403  1
  O  O116  1  0.17009949  0.48294148  0.25736203  1
  O  O117  1  0.30164344  0.47082038  0.75697995  1
  O  O118  1  0.16923197  0.68784542  0.75879370  1
  O  O119  1  0.51675980  0.82994517  0.75861932  1
