# generated using pymatgen
data_Cd7P10
_symmetry_space_group_name_H-M   'P 1'
_cell_length_a   4.64728252
_cell_length_b   11.79109882
_cell_length_c   14.04326505
_cell_angle_alpha   88.13140466
_cell_angle_beta   80.47585635
_cell_angle_gamma   78.63447686
_symmetry_Int_Tables_number   1
_chemical_formula_structural   Cd7P10
_chemical_formula_sum   'Cd14 P20'
_cell_volume   744.03320772
_cell_formula_units_Z   2
loop_
 _symmetry_equiv_pos_site_id
 _symmetry_equiv_pos_as_xyz
  1  'x, y, z'
loop_
 _atom_site_type_symbol
 _atom_site_label
 _atom_site_symmetry_multiplicity
 _atom_site_fract_x
 _atom_site_fract_y
 _atom_site_fract_z
 _atom_site_occupancy
  Cd  Cd0  1  0.41985960  0.50547493  0.09713462  1
  Cd  Cd1  1  0.02246815  0.49452507  0.90286538  1
  Cd  Cd2  1  0.67533453  0.99452507  0.59713462  1
  Cd  Cd3  1  0.26699522  0.00547493  0.40286538  1
  Cd  Cd4  1  0.81076167  0.76135726  0.16407381  1
  Cd  Cd5  1  0.73619274  0.23864274  0.83592619  1
  Cd  Cd6  1  0.32211993  0.73864274  0.66407381  1
  Cd  Cd7  1  0.72483548  0.26135726  0.33592619  1
  Cd  Cd8  1  0.05866565  0.76524301  0.42429297  1
  Cd  Cd9  1  0.24820262  0.23475699  0.57570703  1
  Cd  Cd10  1  0.57390865  0.73475699  0.92429297  1
  Cd  Cd11  1  0.23295961  0.26524301  0.07570703  1
  Cd  Cd12  1  0.74336224  0.50000000  0.50000000  1
  Cd  Cd13  1  0.99336224  -0.00000000  0.00000000  1
  P  P14  1  0.33548294  0.91668974  0.12759823  1
  P  P15  1  0.37977091  0.08331026  0.87240177  1
  P  P16  1  0.00217368  0.58331026  0.62759823  1
  P  P17  1  0.21308218  0.41668974  0.37240177  1
  P  P18  1  0.01796138  0.91133195  0.26004640  1
  P  P19  1  0.18934173  0.08866805  0.73995360  1
  P  P20  1  0.67929533  0.58866805  0.76004640  1
  P  P21  1  0.02800878  0.41133195  0.23995360  1
  P  P22  1  0.11028557  0.66504734  0.00328547  1
  P  P23  1  0.77861838  0.33495266  0.99671453  1
  P  P24  1  0.52533291  0.83495266  0.50328547  1
  P  P25  1  0.86357205  0.16504734  0.49671453  1
  P  P26  1  0.68096239  0.56714342  0.23216380  1
  P  P27  1  0.48026862  0.43285658  0.76783620  1
  P  P28  1  0.52470101  0.07253997  0.12905141  1
  P  P29  1  0.72629339  0.92746003  0.87094859  1
  P  P30  1  0.34724098  0.42746003  0.62905141  1
  P  P31  1  0.40375242  0.57253997  0.37094859  1
  P  P32  1  0.66312520  0.06714342  0.26783620  1
  P  P33  1  0.99810382  0.93285658  0.73216380  1
