# generated using pymatgen
data_MgCr2(CoO3)4
_symmetry_space_group_name_H-M   'P 1'
_cell_length_a   5.01263351
_cell_length_b   5.01506042
_cell_length_c   9.99889718
_cell_angle_alpha   93.43546770
_cell_angle_beta   94.10171896
_cell_angle_gamma   120.03931355
_symmetry_Int_Tables_number   1
_chemical_formula_structural   MgCr2(CoO3)4
_chemical_formula_sum   'Mg1 Cr2 Co4 O12'
_cell_volume   215.70152684
_cell_formula_units_Z   1
loop_
 _symmetry_equiv_pos_site_id
 _symmetry_equiv_pos_as_xyz
  1  'x, y, z'
loop_
 _atom_site_type_symbol
 _atom_site_label
 _atom_site_symmetry_multiplicity
 _atom_site_fract_x
 _atom_site_fract_y
 _atom_site_fract_z
 _atom_site_occupancy
  Mg  Mg0  1  0.74637123  0.42359922  0.25022928  1
  Cr  Cr1  1  0.01689483  0.01804253  0.00734958  1
  Cr  Cr2  1  0.47894324  0.49298081  0.50376128  1
  Co  Co3  1  0.14792204  0.82644563  0.50021842  1
  Co  Co4  1  0.34747878  0.68124541  0.00831988  1
  Co  Co5  1  0.67991418  0.33800458  0.97696334  1
  Co  Co6  1  0.81367546  0.15727384  0.50067115  1
  O  O7  1  0.02495582  0.68348705  0.10323707  1
  O  O8  1  0.01343880  0.34116747  0.90308750  1
  O  O9  1  0.09873937  0.46467775  0.39608579  1
  O  O10  1  0.50348519  0.86448327  0.59428691  1
  O  O11  1  0.15483848  0.16658324  0.59428641  1
  O  O12  1  0.39015301  0.38886852  0.11074622  1
  O  O13  1  0.63067302  0.65591652  0.90629111  1
  O  O14  1  0.31621122  0.97760988  0.90506125  1
  O  O15  1  0.79803746  0.79406562  0.39606418  1
  O  O16  1  0.46958526  0.13755037  0.39625288  1
  O  O17  1  0.85626521  0.51637923  0.59567230  1
  O  O18  1  0.69297339  0.05773007  0.10141545  1
