# generated using pymatgen
data_NaScTa(PO4)3
_symmetry_space_group_name_H-M   'P 1'
_cell_length_a   8.78505407
_cell_length_b   8.78505378
_cell_length_c   22.86617482
_cell_angle_alpha   90.00000000
_cell_angle_beta   90.00000000
_cell_angle_gamma   120.00000104
_symmetry_Int_Tables_number   1
_chemical_formula_structural   NaScTa(PO4)3
_chemical_formula_sum   'Na6 Sc6 Ta6 P18 O72'
_cell_volume   1528.31547329
_cell_formula_units_Z   6
loop_
 _symmetry_equiv_pos_site_id
 _symmetry_equiv_pos_as_xyz
  1  'x, y, z'
loop_
 _atom_site_type_symbol
 _atom_site_label
 _atom_site_symmetry_multiplicity
 _atom_site_fract_x
 _atom_site_fract_y
 _atom_site_fract_z
 _atom_site_occupancy
  Na  Na0  1  -0.00000000  0.00000000  0.49691401  1
  Na  Na1  1  -0.00000000  0.00000000  0.99691401  1
  Na  Na2  1  0.66666700  0.33333300  0.83024701  1
  Na  Na3  1  0.66666700  0.33333300  0.33024701  1
  Na  Na4  1  0.33333300  0.66666700  0.16358101  1
  Na  Na5  1  0.33333300  0.66666700  0.66358101  1
  Sc  Sc6  1  -0.00000000  0.00000000  0.35299423  1
  Sc  Sc7  1  -0.00000000  0.00000000  0.85299423  1
  Sc  Sc8  1  0.66666700  0.33333300  0.68632723  1
  Sc  Sc9  1  0.66666700  0.33333300  0.18632723  1
  Sc  Sc10  1  0.33333300  0.66666700  0.01966123  1
  Sc  Sc11  1  0.33333300  0.66666700  0.51966123  1
  Ta  Ta12  1  -0.00000000  0.00000000  0.64617944  1
  Ta  Ta13  1  -0.00000000  0.00000000  0.14617944  1
  Ta  Ta14  1  0.66666700  0.33333300  0.97951244  1
  Ta  Ta15  1  0.66666700  0.33333300  0.47951244  1
  Ta  Ta16  1  0.33333300  0.66666700  0.31284644  1
  Ta  Ta17  1  0.33333300  0.66666700  0.81284644  1
  P  P18  1  0.28986342  0.00097514  0.25080777  1
  P  P19  1  0.71111172  0.71013658  0.25080777  1
  P  P20  1  0.99902486  0.28888828  0.25080777  1
  P  P21  1  0.28986342  0.28888828  0.75080777  1
  P  P22  1  0.99902486  0.71013658  0.75080777  1
  P  P23  1  0.71111172  0.00097514  0.75080777  1
  P  P24  1  0.95653042  0.33430814  0.58414077  1
  P  P25  1  0.37777872  0.04346958  0.58414077  1
  P  P26  1  0.66569186  0.62222128  0.58414077  1
  P  P27  1  0.95653042  0.62222128  0.08414077  1
  P  P28  1  0.66569186  0.04346958  0.08414077  1
  P  P29  1  0.37777872  0.33430814  0.08414077  1
  P  P30  1  0.62319642  0.66764214  0.91747477  1
  P  P31  1  0.04444472  0.37680358  0.91747477  1
  P  P32  1  0.33235786  0.95555528  0.91747477  1
  P  P33  1  0.62319642  0.95555528  0.41747477  1
  P  P34  1  0.33235786  0.37680358  0.41747477  1
  P  P35  1  0.04444472  0.66764214  0.41747477  1
  O  O36  1  0.20541852  0.02638489  0.30458753  1
  O  O37  1  0.82096637  0.79458148  0.30458753  1
  O  O38  1  0.97361511  0.17903363  0.30458753  1
  O  O39  1  0.20541852  0.17903363  0.80458753  1
  O  O40  1  0.97361511  0.79458148  0.80458753  1
  O  O41  1  0.82096637  0.02638489  0.80458753  1
  O  O42  1  0.79913612  0.96899895  0.69521576  1
  O  O43  1  0.16986283  0.20086388  0.69521576  1
  O  O44  1  0.03100105  0.83013717  0.69521576  1
  O  O45  1  0.79913612  0.83013717  0.19521576  1
  O  O46  1  0.03100105  0.20086388  0.19521576  1
  O  O47  1  0.16986283  0.96899895  0.19521576  1
  O  O48  1  0.87208552  0.35971789  0.63792053  1
  O  O49  1  0.48763337  0.12791448  0.63792053  1
  O  O50  1  0.64028211  0.51236663  0.63792053  1
  O  O51  1  0.87208552  0.51236663  0.13792053  1
  O  O52  1  0.64028211  0.12791448  0.13792053  1
  O  O53  1  0.48763337  0.35971789  0.13792053  1
  O  O54  1  0.46580312  0.30233195  0.02854876  1
  O  O55  1  0.83652983  0.53419688  0.02854876  1
  O  O56  1  0.69766805  0.16347017  0.02854876  1
  O  O57  1  0.46580312  0.16347017  0.52854876  1
  O  O58  1  0.69766805  0.53419688  0.52854876  1
  O  O59  1  0.83652983  0.30233195  0.52854876  1
  O  O60  1  0.53875152  0.69305189  0.97125453  1
  O  O61  1  0.15429937  0.46124848  0.97125453  1
  O  O62  1  0.30694811  0.84570063  0.97125453  1
  O  O63  1  0.53875152  0.84570063  0.47125453  1
  O  O64  1  0.30694811  0.46124848  0.47125453  1
  O  O65  1  0.15429937  0.69305189  0.47125453  1
  O  O66  1  0.13246912  0.63566595  0.36188276  1
  O  O67  1  0.50319583  0.86753088  0.36188276  1
  O  O68  1  0.36433405  0.49680417  0.36188276  1
  O  O69  1  0.13246912  0.49680417  0.86188276  1
  O  O70  1  0.36433405  0.86753088  0.86188276  1
  O  O71  1  0.50319583  0.63566595  0.86188276  1
  O  O72  1  0.01876156  0.82405094  0.40947090  1
  O  O73  1  0.80528938  0.98123844  0.40947090  1
  O  O74  1  0.17594906  0.19471062  0.40947090  1
  O  O75  1  0.01876156  0.19471062  0.90947090  1
  O  O76  1  0.17594906  0.98123844  0.90947090  1
  O  O77  1  0.80528938  0.82405094  0.90947090  1
  O  O78  1  0.97061598  0.16292990  0.59122215  1
  O  O79  1  0.19231392  0.02938402  0.59122215  1
  O  O80  1  0.83707010  0.80768608  0.59122215  1
  O  O81  1  0.97061598  0.80768608  0.09122215  1
  O  O82  1  0.83707010  0.02938402  0.09122215  1
  O  O83  1  0.19231392  0.16292990  0.09122215  1
  O  O84  1  0.68542856  0.15738394  0.74280390  1
  O  O85  1  0.47195638  0.31457144  0.74280390  1
  O  O86  1  0.84261606  0.52804362  0.74280390  1
  O  O87  1  0.68542856  0.52804362  0.24280390  1
  O  O88  1  0.84261606  0.31457144  0.24280390  1
  O  O89  1  0.47195638  0.15738394  0.24280390  1
  O  O90  1  0.63728298  0.49626290  0.92455515  1
  O  O91  1  0.85898092  0.36271702  0.92455515  1
  O  O92  1  0.50373710  0.14101908  0.92455515  1
  O  O93  1  0.63728298  0.14101908  0.42455515  1
  O  O94  1  0.50373710  0.36271702  0.42455515  1
  O  O95  1  0.85898092  0.49626290  0.42455515  1
  O  O96  1  0.35209456  0.49071794  0.07613790  1
  O  O97  1  0.13862238  0.64790544  0.07613790  1
  O  O98  1  0.50928206  0.86137762  0.07613790  1
  O  O99  1  0.35209456  0.86137762  0.57613790  1
  O  O100  1  0.50928206  0.64790544  0.57613790  1
  O  O101  1  0.13862238  0.49071794  0.57613790  1
  O  O102  1  0.30394898  0.82959690  0.25788915  1
  O  O103  1  0.52564692  0.69605102  0.25788915  1
  O  O104  1  0.17040310  0.47435308  0.25788915  1
  O  O105  1  0.30394898  0.47435308  0.75788915  1
  O  O106  1  0.17040310  0.69605102  0.75788915  1
  O  O107  1  0.52564692  0.82959690  0.75788915  1
