# generated using pymatgen
data_Na4LaMg(PO4)3
_symmetry_space_group_name_H-M   'P 1'
_cell_length_a   9.50740734
_cell_length_b   9.50740698
_cell_length_c   22.35239272
_cell_angle_alpha   90.00000000
_cell_angle_beta   90.00000000
_cell_angle_gamma   120.00000124
_symmetry_Int_Tables_number   1
_chemical_formula_structural   Na4LaMg(PO4)3
_chemical_formula_sum   'Na24 La6 Mg6 P18 O72'
_cell_volume   1749.76140151
_cell_formula_units_Z   6
loop_
 _symmetry_equiv_pos_site_id
 _symmetry_equiv_pos_as_xyz
  1  'x, y, z'
loop_
 _atom_site_type_symbol
 _atom_site_label
 _atom_site_symmetry_multiplicity
 _atom_site_fract_x
 _atom_site_fract_y
 _atom_site_fract_z
 _atom_site_occupancy
  Na  Na0  1  0.63811401  0.01566036  0.24771823  1
  Na  Na1  1  0.37754635  0.36188599  0.24771823  1
  Na  Na2  1  0.98433964  0.62245365  0.24771823  1
  Na  Na3  1  0.63811401  0.62245365  0.74771823  1
  Na  Na4  1  0.98433964  0.36188599  0.74771823  1
  Na  Na5  1  0.37754635  0.01566036  0.74771823  1
  Na  Na6  1  0.30478101  0.34899336  0.58105123  1
  Na  Na7  1  0.04421335  0.69521899  0.58105123  1
  Na  Na8  1  0.65100664  0.95578665  0.58105123  1
  Na  Na9  1  0.30478101  0.95578665  0.08105123  1
  Na  Na10  1  0.65100664  0.69521899  0.08105123  1
  Na  Na11  1  0.04421335  0.34899336  0.08105123  1
  Na  Na12  1  0.97144701  0.68232736  0.91438523  1
  Na  Na13  1  0.71087935  0.02855299  0.91438523  1
  Na  Na14  1  0.31767264  0.28912065  0.91438523  1
  Na  Na15  1  0.97144701  0.28912065  0.41438523  1
  Na  Na16  1  0.31767264  0.02855299  0.41438523  1
  Na  Na17  1  0.71087935  0.68232736  0.41438523  1
  Na  Na18  1  -0.00000000  0.00000000  0.49219317  1
  Na  Na19  1  -0.00000000  0.00000000  0.99219317  1
  Na  Na20  1  0.66666700  0.33333300  0.82552617  1
  Na  Na21  1  0.66666700  0.33333300  0.32552617  1
  Na  Na22  1  0.33333300  0.66666700  0.15886017  1
  Na  Na23  1  0.33333300  0.66666700  0.65886017  1
  La  La24  1  -0.00000000  0.00000000  0.65684346  1
  La  La25  1  -0.00000000  0.00000000  0.15684346  1
  La  La26  1  0.66666700  0.33333300  0.99017646  1
  La  La27  1  0.66666700  0.33333300  0.49017646  1
  La  La28  1  0.33333300  0.66666700  0.32351046  1
  La  La29  1  0.33333300  0.66666700  0.82351046  1
  Mg  Mg30  1  -0.00000000  0.00000000  0.34813475  1
  Mg  Mg31  1  -0.00000000  0.00000000  0.84813475  1
  Mg  Mg32  1  0.66666700  0.33333300  0.68146775  1
  Mg  Mg33  1  0.66666700  0.33333300  0.18146775  1
  Mg  Mg34  1  0.33333300  0.66666700  0.01480175  1
  Mg  Mg35  1  0.33333300  0.66666700  0.51480175  1
  P  P36  1  0.31656904  0.01521741  0.25167732  1
  P  P37  1  0.69864836  0.68343096  0.25167732  1
  P  P38  1  0.98478259  0.30135164  0.25167732  1
  P  P39  1  0.31656904  0.30135164  0.75167732  1
  P  P40  1  0.98478259  0.68343096  0.75167732  1
  P  P41  1  0.69864836  0.01521741  0.75167732  1
  P  P42  1  0.98323604  0.34855041  0.58501032  1
  P  P43  1  0.36531536  0.01676396  0.58501032  1
  P  P44  1  0.65144959  0.63468464  0.58501032  1
  P  P45  1  0.98323604  0.63468464  0.08501032  1
  P  P46  1  0.65144959  0.01676396  0.08501032  1
  P  P47  1  0.36531536  0.34855041  0.08501032  1
  P  P48  1  0.64990204  0.68188441  0.91834432  1
  P  P49  1  0.03198136  0.35009796  0.91834432  1
  P  P50  1  0.31811559  0.96801864  0.91834432  1
  P  P51  1  0.64990204  0.96801864  0.41834432  1
  P  P52  1  0.31811559  0.35009796  0.41834432  1
  P  P53  1  0.03198136  0.68188441  0.41834432  1
  O  O54  1  0.21394709  0.02250821  0.30465525  1
  O  O55  1  0.80856112  0.78605291  0.30465525  1
  O  O56  1  0.97749179  0.19143888  0.30465525  1
  O  O57  1  0.21394709  0.19143888  0.80465525  1
  O  O58  1  0.97749179  0.78605291  0.80465525  1
  O  O59  1  0.80856111  0.02250821  0.80465525  1
  O  O60  1  0.76723998  0.99059375  0.69215236  1
  O  O61  1  0.22335378  0.23276002  0.69215236  1
  O  O62  1  0.00940625  0.77664622  0.69215236  1
  O  O63  1  0.76723998  0.77664622  0.19215236  1
  O  O64  1  0.00940625  0.23276002  0.19215236  1
  O  O65  1  0.22335378  0.99059375  0.19215236  1
  O  O66  1  0.88061409  0.35584121  0.63798825  1
  O  O67  1  0.47522812  0.11938591  0.63798825  1
  O  O68  1  0.64415879  0.52477188  0.63798825  1
  O  O69  1  0.88061409  0.52477188  0.13798825  1
  O  O70  1  0.64415879  0.11938591  0.13798825  1
  O  O71  1  0.47522811  0.35584121  0.13798825  1
  O  O72  1  0.43390698  0.32392675  0.02548536  1
  O  O73  1  0.89002078  0.56609302  0.02548536  1
  O  O74  1  0.67607325  0.10997922  0.02548536  1
  O  O75  1  0.43390698  0.10997922  0.52548536  1
  O  O76  1  0.67607325  0.56609302  0.52548536  1
  O  O77  1  0.89002078  0.32392675  0.52548536  1
  O  O78  1  0.54728009  0.68917521  0.97132225  1
  O  O79  1  0.14189412  0.45271991  0.97132225  1
  O  O80  1  0.31082479  0.85810588  0.97132225  1
  O  O81  1  0.54728009  0.85810588  0.47132225  1
  O  O82  1  0.31082479  0.45271991  0.47132225  1
  O  O83  1  0.14189411  0.68917521  0.47132225  1
  O  O84  1  0.10057298  0.65726075  0.35881936  1
  O  O85  1  0.55668678  0.89942702  0.35881936  1
  O  O86  1  0.34273925  0.44331322  0.35881936  1
  O  O87  1  0.10057298  0.44331322  0.85881936  1
  O  O88  1  0.34273925  0.89942702  0.85881936  1
  O  O89  1  0.55668678  0.65726075  0.85881936  1
  O  O90  1  0.02535056  0.84176465  0.41597107  1
  O  O91  1  0.81641409  0.97464944  0.41597107  1
  O  O92  1  0.15823535  0.18358591  0.41597107  1
  O  O93  1  0.02535056  0.18358591  0.91597107  1
  O  O94  1  0.15823535  0.97464944  0.91597107  1
  O  O95  1  0.81641409  0.84176465  0.91597107  1
  O  O96  1  0.01346201  0.20147535  0.58876864  1
  O  O97  1  0.18801334  0.98653799  0.58876864  1
  O  O98  1  0.79852465  0.81198666  0.58876864  1
  O  O99  1  0.01346201  0.81198666  0.08876864  1
  O  O100  1  0.79852465  0.98653799  0.08876864  1
  O  O101  1  0.18801334  0.20147535  0.08876864  1
  O  O102  1  0.69201756  0.17509765  0.74930407  1
  O  O103  1  0.48308109  0.30798244  0.74930407  1
  O  O104  1  0.82490235  0.51691891  0.74930407  1
  O  O105  1  0.69201756  0.51691891  0.24930407  1
  O  O106  1  0.82490235  0.30798244  0.24930407  1
  O  O107  1  0.48308109  0.17509765  0.24930407  1
  O  O108  1  0.68012901  0.53480835  0.92210164  1
  O  O109  1  0.85468034  0.31987099  0.92210164  1
  O  O110  1  0.46519165  0.14531966  0.92210164  1
  O  O111  1  0.68012901  0.14531966  0.42210164  1
  O  O112  1  0.46519165  0.31987099  0.42210164  1
  O  O113  1  0.85468034  0.53480835  0.42210164  1
  O  O114  1  0.35868356  0.50843165  0.08263807  1
  O  O115  1  0.14974709  0.64131644  0.08263807  1
  O  O116  1  0.49156835  0.85025291  0.08263807  1
  O  O117  1  0.35868356  0.85025291  0.58263807  1
  O  O118  1  0.49156835  0.64131644  0.58263807  1
  O  O119  1  0.14974709  0.50843165  0.58263807  1
  O  O120  1  0.34679501  0.86814235  0.25543564  1
  O  O121  1  0.52134634  0.65320499  0.25543564  1
  O  O122  1  0.13185765  0.47865366  0.25543564  1
  O  O123  1  0.34679501  0.47865366  0.75543564  1
  O  O124  1  0.13185765  0.65320499  0.75543564  1
  O  O125  1  0.52134634  0.86814235  0.75543564  1
