# generated using pymatgen
data_Ca2BHN2
_symmetry_space_group_name_H-M   'P 1'
_cell_length_a   3.66164337
_cell_length_b   9.18425691
_cell_length_c   9.97060001
_cell_angle_alpha   90.00000000
_cell_angle_beta   90.00000000
_cell_angle_gamma   90.00000000
_symmetry_Int_Tables_number   1
_chemical_formula_structural   Ca2BHN2
_chemical_formula_sum   'Ca8 B4 H4 N8'
_cell_volume   335.30602805
_cell_formula_units_Z   4
loop_
 _symmetry_equiv_pos_site_id
 _symmetry_equiv_pos_as_xyz
  1  'x, y, z'
loop_
 _atom_site_type_symbol
 _atom_site_label
 _atom_site_symmetry_multiplicity
 _atom_site_fract_x
 _atom_site_fract_y
 _atom_site_fract_z
 _atom_site_occupancy
  Ca  Ca0  1  0.25000000  0.67653721  0.52407289  1
  Ca  Ca1  1  0.75000000  0.32346279  0.47592711  1
  Ca  Ca2  1  0.25000000  0.17653721  0.97592711  1
  Ca  Ca3  1  0.75000000  0.82346279  0.02407289  1
  Ca  Ca4  1  0.25000000  0.52623173  0.15574515  1
  Ca  Ca5  1  0.75000000  0.47376827  0.84425485  1
  Ca  Ca6  1  0.25000000  0.02623173  0.34425485  1
  Ca  Ca7  1  0.75000000  0.97376827  0.65574515  1
  B  B8  1  0.25000000  0.73435894  0.82359471  1
  B  B9  1  0.75000000  0.26564106  0.17640529  1
  B  B10  1  0.25000000  0.23435894  0.67640529  1
  B  B11  1  0.75000000  0.76564106  0.32359471  1
  H  H12  1  0.25000000  0.95913805  0.10371354  1
  H  H13  1  0.75000000  0.04086195  0.89628646  1
  H  H14  1  0.25000000  0.45913805  0.39628646  1
  H  H15  1  0.75000000  0.54086195  0.60371354  1
  N  N16  1  0.75000000  0.67902531  0.21747444  1
  N  N17  1  0.25000000  0.32097469  0.78252556  1
  N  N18  1  0.75000000  0.17902531  0.28252556  1
  N  N19  1  0.25000000  0.82097469  0.71747444  1
  N  N20  1  0.75000000  0.84770417  0.43559704  1
  N  N21  1  0.25000000  0.15229583  0.56440296  1
  N  N22  1  0.75000000  0.34770417  0.06440296  1
  N  N23  1  0.25000000  0.65229583  0.93559704  1
