# generated using pymatgen
data_NbGa3P2(SO6)4
_symmetry_space_group_name_H-M   'P 1'
_cell_length_a   8.53644364
_cell_length_b   8.54461510
_cell_length_c   22.11758360
_cell_angle_alpha   89.60773279
_cell_angle_beta   90.25825224
_cell_angle_gamma   119.81934664
_symmetry_Int_Tables_number   1
_chemical_formula_structural   NbGa3P2(SO6)4
_chemical_formula_sum   'Nb3 Ga9 P6 S12 O72'
_cell_volume   1399.63556384
_cell_formula_units_Z   3
loop_
 _symmetry_equiv_pos_site_id
 _symmetry_equiv_pos_as_xyz
  1  'x, y, z'
loop_
 _atom_site_type_symbol
 _atom_site_label
 _atom_site_symmetry_multiplicity
 _atom_site_fract_x
 _atom_site_fract_y
 _atom_site_fract_z
 _atom_site_occupancy
  Nb  Nb0  1  0.66683356  0.33224178  0.97325157  1
  Nb  Nb1  1  0.31977701  0.65836058  0.31114473  1
  Nb  Nb2  1  0.33911528  0.67225081  0.80841353  1
  Ga  Ga3  1  0.99607569  0.99946571  0.35514982  1
  Ga  Ga4  1  0.99326114  0.00319331  0.85596513  1
  Ga  Ga5  1  0.99224048  0.99728697  0.64528305  1
  Ga  Ga6  1  0.00134786  0.00709293  0.14576467  1
  Ga  Ga7  1  0.66654137  0.32699021  0.68610575  1
  Ga  Ga8  1  0.67385547  0.33408183  0.18714546  1
  Ga  Ga9  1  0.67356202  0.33892034  0.48068007  1
  Ga  Ga10  1  0.33194076  0.66542525  0.01718115  1
  Ga  Ga11  1  0.32864365  0.67125475  0.52198209  1
  P  P12  1  0.98834595  0.27370790  0.24902968  1
  P  P13  1  0.72512312  0.01242398  0.74799936  1
  P  P14  1  0.62473049  0.67863283  0.91819303  1
  P  P15  1  0.05610415  0.37736436  0.91745055  1
  P  P16  1  0.31933325  0.94645235  0.91735412  1
  P  P17  1  0.03683752  0.66934386  0.42034314  1
  S  S18  1  0.29025877  0.00863932  0.24874527  1
  S  S19  1  0.71523034  0.70976176  0.24897380  1
  S  S20  1  0.28948384  0.28133498  0.74839048  1
  S  S21  1  0.99074047  0.71062672  0.74838564  1
  S  S22  1  0.95824465  0.33352557  0.58334457  1
  S  S23  1  0.37563927  0.04469128  0.58300877  1
  S  S24  1  0.66525840  0.62259903  0.58330908  1
  S  S25  1  0.96110455  0.62815162  0.08492847  1
  S  S26  1  0.66364453  0.03759258  0.08503882  1
  S  S27  1  0.37589464  0.33458908  0.08534033  1
  S  S28  1  0.62423043  0.95809212  0.41854790  1
  S  S29  1  0.33317684  0.37279759  0.41940505  1
  O  O30  1  0.21167129  0.03555270  0.30365882  1
  O  O31  1  0.82525715  0.78659787  0.30362458  1
  O  O32  1  0.96451115  0.16618294  0.30678476  1
  O  O33  1  0.21303642  0.17436349  0.80356637  1
  O  O34  1  0.96547430  0.78910104  0.80351053  1
  O  O35  1  0.83218530  0.03722637  0.80565616  1
  O  O36  1  0.79493442  0.96316496  0.69231412  1
  O  O37  1  0.17593816  0.20825392  0.69434866  1
  O  O38  1  0.03546101  0.82603079  0.69425963  1
  O  O39  1  0.79014910  0.82392917  0.19460189  1
  O  O40  1  0.03762979  0.20459785  0.19300462  1
  O  O41  1  0.17454220  0.96359808  0.19466045  1
  O  O42  1  0.87948720  0.37015595  0.63729296  1
  O  O43  1  0.49020045  0.12329077  0.63736165  1
  O  O44  1  0.63132168  0.50801818  0.63797050  1
  O  O45  1  0.87828202  0.51189564  0.13874909  1
  O  O46  1  0.63120514  0.12049569  0.13852515  1
  O  O47  1  0.49094277  0.36527307  0.13930459  1
  O  O48  1  0.46131542  0.30317391  0.03091099  1
  O  O49  1  0.84298060  0.54297857  0.03064071  1
  O  O50  1  0.69786984  0.15709642  0.03068444  1
  O  O51  1  0.45562559  0.15858620  0.52820229  1
  O  O52  1  0.70005103  0.54370415  0.52883228  1
  O  O53  1  0.84284496  0.29634359  0.52888288  1
  O  O54  1  0.54180017  0.70458928  0.97470603  1
  O  O55  1  0.16202876  0.45835058  0.97488052  1
  O  O56  1  0.29466270  0.83846159  0.97445090  1
  O  O57  1  0.54442435  0.84087777  0.47195846  1
  O  O58  1  0.30031428  0.45688019  0.47175654  1
  O  O59  1  0.16504416  0.70452286  0.47305564  1
  O  O60  1  0.13218696  0.63634090  0.36217075  1
  O  O61  1  0.50904994  0.87252602  0.36327552  1
  O  O62  1  0.36669522  0.49098709  0.36338816  1
  O  O63  1  0.13171859  0.49948911  0.86101294  1
  O  O64  1  0.36663262  0.86904266  0.86115238  1
  O  O65  1  0.50141160  0.63192866  0.86148785  1
  O  O66  1  0.02537123  0.83667869  0.40525786  1
  O  O67  1  0.80209088  0.97442277  0.40933008  1
  O  O68  1  0.17231192  0.19770816  0.40879181  1
  O  O69  1  0.02646910  0.19113537  0.90839272  1
  O  O70  1  0.16401817  0.97667049  0.90493491  1
  O  O71  1  0.81154678  0.83204253  0.90777929  1
  O  O72  1  0.97729552  0.17211000  0.59109348  1
  O  O73  1  0.19541107  0.02577957  0.59155674  1
  O  O74  1  0.82846355  0.80139198  0.59058113  1
  O  O75  1  0.97346585  0.80558236  0.09222857  1
  O  O76  1  0.82908088  0.02470707  0.09105653  1
  O  O77  1  0.19883457  0.16852928  0.09099910  1
  O  O78  1  0.69117188  0.16994991  0.74016321  1
  O  O79  1  0.47247801  0.31041695  0.74087213  1
  O  O80  1  0.83503330  0.53013498  0.74058928  1
  O  O81  1  0.68944654  0.52816030  0.24102002  1
  O  O82  1  0.83154803  0.30847864  0.24091081  1
  O  O83  1  0.47037201  0.16481143  0.24067647  1
  O  O84  1  0.63809156  0.50268449  0.92652582  1
  O  O85  1  0.86462446  0.36119054  0.92666624  1
  O  O86  1  0.49521768  0.13530043  0.92642089  1
  O  O87  1  0.63679974  0.13498102  0.42479608  1
  O  O88  1  0.49679572  0.35839343  0.42490664  1
  O  O89  1  0.85539812  0.49727012  0.42566488  1
  O  O90  1  0.35831472  0.49514090  0.07693776  1
  O  O91  1  0.13825311  0.64366158  0.07655561  1
  O  O92  1  0.50356367  0.86112754  0.07638928  1
  O  O93  1  0.36072442  0.86546056  0.57598418  1
  O  O94  1  0.50287718  0.64063726  0.57467873  1
  O  O95  1  0.13804722  0.49482893  0.57546065  1
  O  O96  1  0.31165921  0.84418975  0.25732550  1
  O  O97  1  0.53366346  0.69359342  0.25824692  1
  O  O98  1  0.16252267  0.46768149  0.25944775  1
  O  O99  1  0.30575192  0.46454042  0.75652989  1
  O  O100  1  0.15624753  0.69081287  0.75640509  1
  O  O101  1  0.53157650  0.83929535  0.75832511  1
