# generated using pymatgen
data_Ho2MgCr2O8
_symmetry_space_group_name_H-M   'P 1'
_cell_length_a   6.18355141
_cell_length_b   6.18139144
_cell_length_c   6.04372515
_cell_angle_alpha   105.73191477
_cell_angle_beta   105.74754454
_cell_angle_gamma   118.01091647
_symmetry_Int_Tables_number   1
_chemical_formula_structural   Ho2MgCr2O8
_chemical_formula_sum   'Ho2 Mg1 Cr2 O8'
_cell_volume   173.35649659
_cell_formula_units_Z   1
loop_
 _symmetry_equiv_pos_site_id
 _symmetry_equiv_pos_as_xyz
  1  'x, y, z'
loop_
 _atom_site_type_symbol
 _atom_site_label
 _atom_site_symmetry_multiplicity
 _atom_site_fract_x
 _atom_site_fract_y
 _atom_site_fract_z
 _atom_site_occupancy
  Ho  Ho0  1  0.12559400  0.87559500  0.25119000  1
  Ho  Ho1  1  0.84580900  0.09580900  0.69161700  1
  Mg  Mg2  1  0.13405800  0.38405800  0.26811500  1
  Cr  Cr3  1  0.39986200  0.64986200  0.79972400  1
  Cr  Cr4  1  0.62308300  0.37308200  0.24616500  1
  O  O5  1  0.81548200  0.74072200  0.42611500  1
  O  O6  1  0.36457000  0.77318800  0.55123600  1
  O  O7  1  0.76553000  0.84965400  0.96527600  1
  O  O8  1  0.81070100  0.36365200  0.06438300  1
  O  O9  1  0.61063100  0.18539300  0.42611400  1
  O  O10  1  0.18666800  0.27804900  0.55123700  1
  O  O11  1  0.25368200  0.20073200  0.06438300  1
  O  O12  1  0.19974700  0.61562200  0.96527500  1
