# generated using pymatgen
data_MgGe4(BiO6)2
_symmetry_space_group_name_H-M   'P 1'
_cell_length_a   5.70409691
_cell_length_b   7.35624548
_cell_length_c   7.35624741
_cell_angle_alpha   85.40572931
_cell_angle_beta   76.23612181
_cell_angle_gamma   76.23611157
_symmetry_Int_Tables_number   1
_chemical_formula_structural   MgGe4(BiO6)2
_chemical_formula_sum   'Mg1 Ge4 Bi2 O12'
_cell_volume   291.11032221
_cell_formula_units_Z   1
loop_
 _symmetry_equiv_pos_site_id
 _symmetry_equiv_pos_as_xyz
  1  'x, y, z'
loop_
 _atom_site_type_symbol
 _atom_site_label
 _atom_site_symmetry_multiplicity
 _atom_site_fract_x
 _atom_site_fract_y
 _atom_site_fract_z
 _atom_site_occupancy
  Mg  Mg0  1  0.25000000  0.65681100  0.34318900  1
  Ge  Ge1  1  0.72373000  0.38970400  0.21977800  1
  Ge  Ge2  1  0.77627000  0.78022200  0.61029600  1
  Ge  Ge3  1  0.28148500  0.61945000  0.78774100  1
  Ge  Ge4  1  0.21851500  0.21225900  0.38055000  1
  Bi  Bi5  1  0.75000000  0.89565800  0.10434200  1
  Bi  Bi6  1  0.25000000  0.12746300  0.87253700  1
  O  O7  1  0.43004300  0.36587400  0.37400000  1
  O  O8  1  0.06995700  0.62600000  0.63412600  1
  O  O9  1  0.53567300  0.66415800  0.60388300  1
  O  O10  1  0.96432700  0.39611700  0.33584200  1
  O  O11  1  0.16213400  0.10652600  0.59936800  1
  O  O12  1  0.33786600  0.40063300  0.89347400  1
  O  O13  1  0.90527300  0.83649900  0.37403100  1
  O  O14  1  0.59472700  0.62597000  0.16350100  1
  O  O15  1  0.83358400  0.20952600  0.05880300  1
  O  O16  1  0.66641600  0.94119700  0.79047400  1
  O  O17  1  0.16600100  0.79557900  0.95520000  1
  O  O18  1  0.33399900  0.04480000  0.20442100  1
