# generated using pymatgen
data_MgScNi2SbO6
_symmetry_space_group_name_H-M   'P 1'
_cell_length_a   5.72162621
_cell_length_b   6.00936426
_cell_length_c   6.52609409
_cell_angle_alpha   54.39151397
_cell_angle_beta   55.72137763
_cell_angle_gamma   54.01531409
_symmetry_Int_Tables_number   1
_chemical_formula_structural   MgScNi2SbO6
_chemical_formula_sum   'Mg1 Sc1 Ni2 Sb1 O6'
_cell_volume   139.03129629
_cell_formula_units_Z   1
loop_
 _symmetry_equiv_pos_site_id
 _symmetry_equiv_pos_as_xyz
  1  'x, y, z'
loop_
 _atom_site_type_symbol
 _atom_site_label
 _atom_site_symmetry_multiplicity
 _atom_site_fract_x
 _atom_site_fract_y
 _atom_site_fract_z
 _atom_site_occupancy
  Mg  Mg0  1  0.34936276  0.54575367  0.17107866  1
  Sc  Sc1  1  0.78827553  0.84715265  0.55861853  1
  Ni  Ni2  1  0.97681887  0.02010370  0.87943326  1
  Ni  Ni3  1  0.57928205  0.53119175  0.48420051  1
  Sb  Sb4  1  0.19473074  0.25161602  0.05260451  1
  O  O5  1  0.26081452  0.82843886  0.30112223  1
  O  O6  1  0.88358953  0.72528328  0.26912247  1
  O  O7  1  0.72140579  0.28771952  0.27291319  1
  O  O8  1  0.67237214  0.09124279  0.77849868  1
  O  O9  1  0.08435031  0.36786401  0.75026267  1
  O  O10  1  0.41309876  0.74023175  0.77115528  1
