# generated using pymatgen
data_Na6Y5Nb3Si6(SO8)6
_symmetry_space_group_name_H-M   'P 1'
_cell_length_a   18.40498157
_cell_length_b   9.19568630
_cell_length_c   23.55657401
_cell_angle_alpha   90.41422107
_cell_angle_beta   89.89947158
_cell_angle_gamma   120.06822045
_symmetry_Int_Tables_number   1
_chemical_formula_structural   Na6Y5Nb3Si6(SO8)6
_chemical_formula_sum   'Na18 Y15 Nb9 Si18 S18 O144'
_cell_volume   3450.25324971
_cell_formula_units_Z   3
loop_
 _symmetry_equiv_pos_site_id
 _symmetry_equiv_pos_as_xyz
  1  'x, y, z'
loop_
 _atom_site_type_symbol
 _atom_site_label
 _atom_site_symmetry_multiplicity
 _atom_site_fract_x
 _atom_site_fract_y
 _atom_site_fract_z
 _atom_site_occupancy
  Na  Na0  1  0.48710220  0.68848087  0.90949915  1
  Na  Na1  1  0.16099659  0.31970149  0.91084563  1
  Na  Na2  1  0.48856604  0.29598185  0.41337704  1
  Na  Na3  1  0.97814841  0.29078335  0.40696894  1
  Na  Na4  1  0.16281122  0.01999651  0.41035005  1
  Na  Na5  1  0.66355403  0.02941957  0.41756893  1
  Na  Na6  1  0.98103825  0.96685901  0.49267003  1
  Na  Na7  1  0.49335597  0.98666779  0.49365259  1
  Na  Na8  1  0.99192531  0.00199504  0.00107036  1
  Na  Na9  1  0.49892319  0.99131541  0.99044961  1
  Na  Na10  1  0.33211610  0.32755687  0.82140279  1
  Na  Na11  1  0.83142368  0.34543801  0.83274175  1
  Na  Na12  1  0.33787904  0.32786878  0.33088873  1
  Na  Na13  1  0.84004053  0.33909946  0.33521995  1
  Na  Na14  1  0.15240281  0.65862454  0.16543920  1
  Na  Na15  1  0.66690414  0.64661634  0.16951984  1
  Na  Na16  1  0.16868056  0.66983681  0.67541336  1
  Na  Na17  1  0.66346532  0.65835896  0.66565972  1
  Y  Y18  1  0.99499317  0.99084431  0.34941636  1
  Y  Y19  1  0.49328983  0.99528035  0.35155953  1
  Y  Y20  1  0.99829255  0.99642788  0.85178012  1
  Y  Y21  1  0.49992106  0.00239436  0.85035859  1
  Y  Y22  1  0.33490195  0.33383213  0.68879606  1
  Y  Y23  1  0.83324275  0.33867366  0.68697976  1
  Y  Y24  1  0.33535880  0.33046408  0.18860521  1
  Y  Y25  1  0.83949307  0.34068986  0.18409087  1
  Y  Y26  1  0.33180645  0.33662015  0.97980990  1
  Y  Y27  1  0.33830527  0.33909607  0.47913279  1
  Y  Y28  1  0.83364501  0.33967430  0.47703138  1
  Y  Y29  1  0.16359062  0.66284999  0.01797161  1
  Y  Y30  1  0.66877623  0.66999034  0.02174337  1
  Y  Y31  1  0.16944093  0.67224525  0.51937387  1
  Y  Y32  1  0.66772421  0.66786688  0.51660724  1
  Nb  Nb33  1  0.00613581  0.99779788  0.65440679  1
  Nb  Nb34  1  0.50015708  0.00408625  0.65923233  1
  Nb  Nb35  1  0.00487723  0.99729629  0.15249838  1
  Nb  Nb36  1  0.50958862  0.02603832  0.14878224  1
  Nb  Nb37  1  0.83484532  0.34020474  0.98003681  1
  Nb  Nb38  1  0.15947028  0.67631367  0.30985586  1
  Nb  Nb39  1  0.66414543  0.65408525  0.31956637  1
  Nb  Nb40  1  0.16418475  0.64744791  0.81011517  1
  Nb  Nb41  1  0.66450004  0.67676869  0.80985704  1
  Si  Si42  1  0.14765102  0.00088679  0.25372101  1
  Si  Si43  1  0.00257119  0.29664457  0.25325816  1
  Si  Si44  1  0.50850979  0.31231901  0.25296095  1
  Si  Si45  1  0.14650628  0.29386227  0.75408661  1
  Si  Si46  1  0.64825573  0.30228763  0.75399993  1
  Si  Si47  1  0.00387093  0.70129962  0.75403355  1
  Si  Si48  1  0.50208288  0.71081078  0.75333318  1
  Si  Si49  1  0.34745360  0.99022345  0.75412747  1
  Si  Si50  1  0.98010991  0.63672176  0.08364911  1
  Si  Si51  1  0.69042482  0.33403594  0.08394661  1
  Si  Si52  1  0.31244895  0.66886460  0.91702095  1
  Si  Si53  1  0.01739925  0.37619205  0.91639487  1
  Si  Si54  1  0.67087321  0.96559514  0.91912281  1
  Si  Si55  1  0.30907004  0.95498833  0.41523678  1
  Si  Si56  1  0.81340067  0.95797340  0.41580974  1
  Si  Si57  1  0.66698630  0.37061540  0.41691898  1
  Si  Si58  1  0.02107466  0.66772113  0.41729759  1
  Si  Si59  1  0.52005295  0.66435914  0.41659711  1
  S  S60  1  0.64385010  0.99145912  0.24838882  1
  S  S61  1  0.35124177  0.71365222  0.24590469  1
  S  S62  1  0.84922779  0.70995358  0.24687941  1
  S  S63  1  0.85166386  0.99004841  0.74843230  1
  S  S64  1  0.48305509  0.32138334  0.58461933  1
  S  S65  1  0.98235145  0.31968463  0.58469404  1
  S  S66  1  0.17874175  0.03601966  0.58451624  1
  S  S67  1  0.67836710  0.03448821  0.58508074  1
  S  S68  1  0.33901345  0.64159123  0.58582259  1
  S  S69  1  0.83846976  0.64392826  0.58664818  1
  S  S70  1  0.48115503  0.63987419  0.08480096  1
  S  S71  1  0.33968063  0.03723599  0.08570434  1
  S  S72  1  0.83979012  0.04923469  0.08192236  1
  S  S73  1  0.18083762  0.32371312  0.08552874  1
  S  S74  1  0.80958878  0.65641198  0.91628100  1
  S  S75  1  0.52415015  0.38747270  0.91475223  1
  S  S76  1  0.16750799  0.95831251  0.91493632  1
  S  S77  1  0.16777422  0.37939633  0.41458601  1
  O  O78  1  0.10898102  0.01831105  0.31183813  1
  O  O79  1  0.60519235  0.01036778  0.30035372  1
  O  O80  1  0.39957683  0.78006151  0.29851548  1
  O  O81  1  0.89792104  0.78285152  0.29898528  1
  O  O82  1  0.49457752  0.20336889  0.30817138  1
  O  O83  1  0.99371481  0.19930607  0.31118492  1
  O  O84  1  0.10577398  0.19271505  0.81083240  1
  O  O85  1  0.60790847  0.19437078  0.80861821  1
  O  O86  1  0.49151604  0.77923438  0.81267076  1
  O  O87  1  0.98402361  0.78709065  0.80551722  1
  O  O88  1  0.40514729  0.02707293  0.80799332  1
  O  O89  1  0.89958288  0.01747452  0.80051852  1
  O  O90  1  0.40402861  0.96932474  0.69704348  1
  O  O91  1  0.89544504  0.96631040  0.69803896  1
  O  O92  1  0.07974490  0.18323474  0.69785398  1
  O  O93  1  0.58165536  0.19946389  0.69713036  1
  O  O94  1  0.01175121  0.83459563  0.69591168  1
  O  O95  1  0.51674983  0.84281420  0.69894558  1
  O  O96  1  0.39895807  0.82415338  0.19665253  1
  O  O97  1  0.89741592  0.81793866  0.19655213  1
  O  O98  1  0.00955462  0.17961598  0.19751529  1
  O  O99  1  0.51601056  0.19471142  0.19594579  1
  O  O100  1  0.08134497  0.97102397  0.19734056  1
  O  O101  1  0.58662566  0.97624017  0.19768949  1
  O  O102  1  0.43684903  0.33894590  0.63238549  1
  O  O103  1  0.93843690  0.34114186  0.63335403  1
  O  O104  1  0.23164291  0.12649942  0.63293263  1
  O  O105  1  0.73326401  0.12642437  0.63346570  1
  O  O106  1  0.32985596  0.53650994  0.63491419  1
  O  O107  1  0.83053904  0.53927076  0.63557098  1
  O  O108  1  0.43673081  0.52951364  0.13259520  1
  O  O109  1  0.93811035  0.52688530  0.13844025  1
  O  O110  1  0.33048544  0.12415696  0.13523232  1
  O  O111  1  0.82580820  0.11956897  0.13378695  1
  O  O112  1  0.23493144  0.34102462  0.13347778  1
  O  O113  1  0.73780129  0.34470999  0.14085036  1
  O  O114  1  0.21634765  0.29818689  0.03174503  1
  O  O115  1  0.73804074  0.30632504  0.02717306  1
  O  O116  1  0.43358533  0.56458265  0.03090084  1
  O  O117  1  0.91590305  0.52710197  0.02747496  1
  O  O118  1  0.35353093  0.13763691  0.03375479  1
  O  O119  1  0.84892572  0.15407302  0.03095902  1
  O  O120  1  0.21216309  0.12767640  0.53088093  1
  O  O121  1  0.71596791  0.12697870  0.53148426  1
  O  O122  1  0.34700832  0.56110115  0.53285082  1
  O  O123  1  0.85096731  0.57175620  0.53385684  1
  O  O124  1  0.43638777  0.30329605  0.53050221  1
  O  O125  1  0.93551502  0.29928239  0.53125017  1
  O  O126  1  0.26828686  0.68233713  0.97362245  1
  O  O127  1  0.77005371  0.67359443  0.96785056  1
  O  O128  1  0.07785044  0.45680680  0.97018070  1
  O  O129  1  0.57182704  0.46548071  0.96638738  1
  O  O130  1  0.15911012  0.86650822  0.96742915  1
  O  O131  1  0.65563420  0.83918948  0.96987030  1
  O  O132  1  0.26845402  0.84971259  0.47191579  1
  O  O133  1  0.77054044  0.84985735  0.47141043  1
  O  O134  1  0.15712697  0.45485318  0.46717123  1
  O  O135  1  0.64817066  0.45238494  0.47093723  1
  O  O136  1  0.07862430  0.68721199  0.47091973  1
  O  O137  1  0.57458553  0.69203179  0.47252124  1
  O  O138  1  0.07278657  0.64904730  0.35822595  1
  O  O139  1  0.57320754  0.64077798  0.35995015  1
  O  O140  1  0.24801067  0.84391817  0.35865318  1
  O  O141  1  0.75224414  0.85011197  0.35807980  1
  O  O142  1  0.17682621  0.48148527  0.36417414  1
  O  O143  1  0.67577558  0.49419544  0.35981059  1
  O  O144  1  0.06809740  0.49695358  0.85947115  1
  O  O145  1  0.56940191  0.49409426  0.86344986  1
  O  O146  1  0.17512240  0.87425504  0.86395183  1
  O  O147  1  0.68110549  0.85571506  0.86069905  1
  O  O148  1  0.24672383  0.64259631  0.86139224  1
  O  O149  1  0.75917033  0.63858045  0.86460607  1
  O  O150  1  0.01631008  0.83761426  0.41346903  1
  O  O151  1  0.51549380  0.83177425  0.40719444  1
  O  O152  1  0.40542940  0.99867010  0.41145462  1
  O  O153  1  0.90997049  0.99919602  0.41312443  1
  O  O154  1  0.09208836  0.20847733  0.41100984  1
  O  O155  1  0.58620403  0.18484605  0.40896957  1
  O  O156  1  0.00514713  0.18877675  0.91047668  1
  O  O157  1  0.51056796  0.21760361  0.91062791  1
  O  O158  1  0.09435744  0.98670641  0.91257016  1
  O  O159  1  0.58853550  0.98223380  0.91326742  1
  O  O160  1  0.40843590  0.82106837  0.91460164  1
  O  O161  1  0.89478140  0.80332305  0.91292127  1
  O  O162  1  0.48894744  0.16463194  0.59092780  1
  O  O163  1  0.98794583  0.16212142  0.59311145  1
  O  O164  1  0.09190560  0.02068992  0.59292306  1
  O  O165  1  0.59387959  0.02132502  0.59220628  1
  O  O166  1  0.41684559  0.81167024  0.59145737  1
  O  O167  1  0.91578602  0.81658824  0.59437194  1
  O  O168  1  0.48735543  0.80752581  0.09293642  1
  O  O169  1  0.98275016  0.82507563  0.09386497  1
  O  O170  1  0.41820483  0.02224767  0.09434191  1
  O  O171  1  0.91742769  0.03612881  0.08665918  1
  O  O172  1  0.09544980  0.16626093  0.09272731  1
  O  O173  1  0.59138380  0.15090027  0.09494857  1
  O  O174  1  0.33256670  0.14263403  0.73955476  1
  O  O175  1  0.83756563  0.13062097  0.73934283  1
  O  O176  1  0.23757042  0.32381386  0.74185850  1
  O  O177  1  0.73944893  0.32903600  0.74084122  1
  O  O178  1  0.43012681  0.52372929  0.74084665  1
  O  O179  1  0.92775833  0.51690396  0.74073871  1
  O  O180  1  0.33884235  0.54344930  0.23773027  1
  O  O181  1  0.83654771  0.54043197  0.24155783  1
  O  O182  1  0.43007376  0.33834866  0.24134876  1
  O  O183  1  0.92395733  0.32477609  0.24577545  1
  O  O184  1  0.23849303  0.15720272  0.24202627  1
  O  O185  1  0.72671788  0.13941033  0.24134585  1
  O  O186  1  0.31432690  0.48681076  0.91823462  1
  O  O187  1  0.81601436  0.49853768  0.92044611  1
  O  O188  1  0.44196614  0.38505788  0.91720537  1
  O  O189  1  0.92486009  0.36561243  0.92723682  1
  O  O190  1  0.24447871  0.13097303  0.91916732  1
  O  O191  1  0.75848700  0.14997063  0.92770113  1
  O  O192  1  0.30727312  0.13356742  0.41732764  1
  O  O193  1  0.81321945  0.13668547  0.41671037  1
  O  O194  1  0.24255216  0.35738186  0.41934325  1
  O  O195  1  0.75103528  0.35685195  0.41709899  1
  O  O196  1  0.43140902  0.48516064  0.41655061  1
  O  O197  1  0.93389177  0.48932674  0.41680609  1
  O  O198  1  0.16978808  0.47068663  0.08284790  1
  O  O199  1  0.66710574  0.47909979  0.07658839  1
  O  O200  1  0.07541773  0.67783442  0.07726155  1
  O  O201  1  0.56603422  0.66160663  0.08149853  1
  O  O202  1  0.26690853  0.86820835  0.08184814  1
  O  O203  1  0.76678390  0.87772703  0.07542519  1
  O  O204  1  0.16536093  0.86424176  0.58282674  1
  O  O205  1  0.66793249  0.86385907  0.58407179  1
  O  O206  1  0.26388672  0.66122199  0.58317356  1
  O  O207  1  0.76389607  0.66372483  0.58470344  1
  O  O208  1  0.06849341  0.46626863  0.58204082  1
  O  O209  1  0.56805723  0.47077316  0.58355577  1
  O  O210  1  0.15240116  0.82308744  0.25509073  1
  O  O211  1  0.64754940  0.83454044  0.24857321  1
  O  O212  1  0.26830957  0.70321804  0.25014692  1
  O  O213  1  0.76796801  0.70691788  0.24921757  1
  O  O214  1  0.09386133  0.48220305  0.25772987  1
  O  O215  1  0.59760778  0.49503554  0.25454775  1
  O  O216  1  0.14677050  0.47430484  0.75530134  1
  O  O217  1  0.65548020  0.49186610  0.76188720  1
  O  O218  1  0.09327981  0.70475209  0.75818669  1
  O  O219  1  0.59376171  0.70342544  0.75859380  1
  O  O220  1  0.25726183  0.81180985  0.75900611  1
  O  O221  1  0.76778562  0.82968818  0.75322317  1
