# generated using pymatgen
data_Na3Zr2Ti2SiP5O24
_symmetry_space_group_name_H-M   'P 1'
_cell_length_a   8.86272951
_cell_length_b   8.82692297
_cell_length_c   22.87132239
_cell_angle_alpha   90.00006637
_cell_angle_beta   89.96238253
_cell_angle_gamma   119.80846006
_symmetry_Int_Tables_number   1
_chemical_formula_structural   Na3Zr2Ti2SiP5O24
_chemical_formula_sum   'Na9 Zr6 Ti6 Si3 P15 O72'
_cell_volume   1552.50714632
_cell_formula_units_Z   3
loop_
 _symmetry_equiv_pos_site_id
 _symmetry_equiv_pos_as_xyz
  1  'x, y, z'
loop_
 _atom_site_type_symbol
 _atom_site_label
 _atom_site_symmetry_multiplicity
 _atom_site_fract_x
 _atom_site_fract_y
 _atom_site_fract_z
 _atom_site_occupancy
  Na  Na0  1  0.36718608  0.00251978  0.74955516  1
  Na  Na1  1  0.66867540  0.96840139  0.58454395  1
  Na  Na2  1  0.66721298  0.69825947  0.08304840  1
  Na  Na3  1  0.00700686  0.00008277  0.50106171  1
  Na  Na4  1  0.00741708  0.00501737  0.99713671  1
  Na  Na5  1  0.67258238  0.33957193  0.83440377  1
  Na  Na6  1  0.66667204  0.33326648  0.33337368  1
  Na  Na7  1  0.32566471  0.66625164  0.16741420  1
  Na  Na8  1  0.32801731  0.65627334  0.66670416  1
  Zr  Zr9  1  0.99980272  0.99939729  0.35258526  1
  Zr  Zr10  1  0.00719455  0.00351224  0.14604279  1
  Zr  Zr11  1  0.32368902  0.66643813  0.01883323  1
  Zr  Zr12  1  0.32702637  0.66428747  0.52090418  1
  Zr  Zr13  1  0.33340054  0.66724757  0.31431647  1
  Zr  Zr14  1  0.33622585  0.66395995  0.81395871  1
  Ti  Ti15  1  0.99244404  0.00006411  0.85176705  1
  Ti  Ti16  1  0.00465938  0.99887045  0.64804920  1
  Ti  Ti17  1  0.67041935  0.32964270  0.68555881  1
  Ti  Ti18  1  0.67378690  0.33653452  0.18604656  1
  Ti  Ti19  1  0.66958573  0.33702426  0.98076254  1
  Ti  Ti20  1  0.65778157  0.32995758  0.48193007  1
  Si  Si21  1  0.71876210  0.00505463  0.74785142  1
  Si  Si22  1  0.37505154  0.05187645  0.58490998  1
  Si  Si23  1  0.95152089  0.61448616  0.08334778  1
  P  P24  1  0.30025294  0.00707842  0.24915455  1
  P  P25  1  0.70702865  0.70190468  0.24828538  1
  P  P26  1  0.99461019  0.29307507  0.24914769  1
  P  P27  1  0.28488684  0.28263841  0.74917443  1
  P  P28  1  0.99159202  0.71130622  0.74982366  1
  P  P29  1  0.94898599  0.33028664  0.58394152  1
  P  P30  1  0.67200172  0.61804654  0.58450015  1
  P  P31  1  0.66651141  0.05323610  0.08324218  1
  P  P32  1  0.38703741  0.33211368  0.08293447  1
  P  P33  1  0.63267025  0.66660645  0.91764902  1
  P  P34  1  0.03374967  0.36710921  0.91632622  1
  P  P35  1  0.33319807  0.96810295  0.91553258  1
  P  P36  1  0.62621168  0.96515832  0.41851229  1
  P  P37  1  0.33872439  0.37377452  0.41769768  1
  P  P38  1  0.03281983  0.65917187  0.41772052  1
  O  O39  1  0.21273601  0.03328317  0.30370906  1
  O  O40  1  0.82109363  0.78796182  0.30270854  1
  O  O41  1  0.96648390  0.17982268  0.30394711  1
  O  O42  1  0.20137976  0.16616051  0.80388180  1
  O  O43  1  0.97114267  0.80218810  0.80461563  1
  O  O44  1  0.83936461  0.02897362  0.80583441  1
  O  O45  1  0.80977282  0.97565333  0.69003554  1
  O  O46  1  0.17002630  0.19405870  0.69460167  1
  O  O47  1  0.03006801  0.83253685  0.69528964  1
  O  O48  1  0.78856595  0.81578006  0.19299204  1
  O  O49  1  0.02662812  0.20921532  0.19486417  1
  O  O50  1  0.18136630  0.97248366  0.19524353  1
  O  O51  1  0.86290258  0.35943645  0.63896491  1
  O  O52  1  0.50335257  0.14174122  0.64206239  1
  O  O53  1  0.64383905  0.50326337  0.63871982  1
  O  O54  1  0.85233775  0.49417625  0.14061285  1
  O  O55  1  0.63903344  0.13662994  0.13841635  1
  O  O56  1  0.49957116  0.36180617  0.13779064  1
  O  O57  1  0.47117460  0.30597065  0.02753724  1
  O  O58  1  0.82441787  0.52054164  0.02671593  1
  O  O59  1  0.69070755  0.16387058  0.02830461  1
  O  O60  1  0.47614603  0.17238935  0.52738991  1
  O  O61  1  0.69658634  0.53221076  0.52889611  1
  O  O62  1  0.83375509  0.30051329  0.52964399  1
  O  O63  1  0.55260962  0.69904962  0.97328693  1
  O  O64  1  0.15148363  0.45188326  0.97063710  1
  O  O65  1  0.30194675  0.84754828  0.96939455  1
  O  O66  1  0.54434102  0.85059762  0.47365289  1
  O  O67  1  0.30666003  0.45784924  0.47189744  1
  O  O68  1  0.15235494  0.69398974  0.47149143  1
  O  O69  1  0.12030030  0.63312828  0.36302327  1
  O  O70  1  0.51230854  0.87898069  0.36399935  1
  O  O71  1  0.36717130  0.48678753  0.36276273  1
  O  O72  1  0.11838868  0.48450563  0.86223549  1
  O  O73  1  0.36438462  0.88246853  0.86051491  1
  O  O74  1  0.51406541  0.63557962  0.86368477  1
  O  O75  1  0.01854994  0.82604365  0.41099715  1
  O  O76  1  0.80699128  0.98111670  0.41111884  1
  O  O77  1  0.17515855  0.19200015  0.41096949  1
  O  O78  1  0.01988536  0.18603933  0.90789304  1
  O  O79  1  0.16783007  0.98205729  0.90737503  1
  O  O80  1  0.81385075  0.83039510  0.90775377  1
  O  O81  1  0.96369999  0.16310667  0.59110870  1
  O  O82  1  0.18239611  0.02839785  0.59265328  1
  O  O83  1  0.83149377  0.80566444  0.59074165  1
  O  O84  1  0.96038022  0.80381074  0.08774926  1
  O  O85  1  0.82760018  0.02776161  0.08860272  1
  O  O86  1  0.20230645  0.17326116  0.08781877  1
  O  O87  1  0.69114517  0.17629565  0.74155843  1
  O  O88  1  0.46711354  0.29996699  0.74184401  1
  O  O89  1  0.83158432  0.53043105  0.74165244  1
  O  O90  1  0.68772999  0.51914165  0.24115620  1
  O  O91  1  0.82955651  0.30880538  0.24173733  1
  O  O92  1  0.47966640  0.16920948  0.24087182  1
  O  O93  1  0.64741707  0.50001452  0.92468663  1
  O  O94  1  0.85288722  0.34959469  0.92567521  1
  O  O95  1  0.49828137  0.14616392  0.92514153  1
  O  O96  1  0.64530480  0.14785727  0.42599262  1
  O  O97  1  0.50399550  0.35783119  0.42528623  1
  O  O98  1  0.85330071  0.49692283  0.42621846  1
  O  O99  1  0.37346255  0.50112228  0.07711354  1
  O  O100  1  0.14405268  0.63681709  0.07965402  1
  O  O101  1  0.50810499  0.86439415  0.07757084  1
  O  O102  1  0.36814178  0.86317621  0.57885652  1
  O  O103  1  0.51035685  0.64359491  0.57817670  1
  O  O104  1  0.13209069  0.49192095  0.57925487  1
  O  O105  1  0.31481411  0.84036172  0.25569578  1
  O  O106  1  0.52600709  0.68550054  0.25554793  1
  O  O107  1  0.15844014  0.47481054  0.25573319  1
  O  O108  1  0.30330292  0.46541429  0.75468472  1
  O  O109  1  0.16094041  0.69885858  0.75571833  1
  O  O110  1  0.52026105  0.83816309  0.75495008  1
