# generated using pymatgen
data_Na7Al2Ga2SiP5O24
_symmetry_space_group_name_H-M   'P 1'
_cell_length_a   8.71452439
_cell_length_b   8.71399533
_cell_length_c   21.73225072
_cell_angle_alpha   90.22001140
_cell_angle_beta   89.60095680
_cell_angle_gamma   120.00630962
_symmetry_Int_Tables_number   1
_chemical_formula_structural   Na7Al2Ga2SiP5O24
_chemical_formula_sum   'Na21 Al6 Ga6 Si3 P15 O72'
_cell_volume   1429.08534451
_cell_formula_units_Z   3
loop_
 _symmetry_equiv_pos_site_id
 _symmetry_equiv_pos_as_xyz
  1  'x, y, z'
loop_
 _atom_site_type_symbol
 _atom_site_label
 _atom_site_symmetry_multiplicity
 _atom_site_fract_x
 _atom_site_fract_y
 _atom_site_fract_z
 _atom_site_occupancy
  Na  Na0  1  0.36466850  0.36567437  0.25019485  1
  Na  Na1  1  0.99840131  0.63347051  0.24891998  1
  Na  Na2  1  0.63393503  0.63695175  0.74946836  1
  Na  Na3  1  0.99752059  0.36327191  0.75057244  1
  Na  Na4  1  0.37000371  0.00054135  0.74901133  1
  Na  Na5  1  0.30081613  0.33035902  0.58288742  1
  Na  Na6  1  0.03547060  0.70212923  0.58321245  1
  Na  Na7  1  0.66400468  0.96647683  0.58488423  1
  Na  Na8  1  0.29787422  0.96454408  0.08329049  1
  Na  Na9  1  0.66958346  0.70006566  0.08300863  1
  Na  Na10  1  0.03328749  0.33616436  0.08372249  1
  Na  Na11  1  0.96732074  0.66546129  0.91785382  1
  Na  Na12  1  0.69923849  0.03129405  0.91549984  1
  Na  Na13  1  0.96870851  0.30102432  0.41639068  1
  Na  Na14  1  0.33495232  0.03316760  0.41774480  1
  Na  Na15  1  0.99667736  0.99432297  0.49971752  1
  Na  Na16  1  0.00546529  0.00332446  0.99936209  1
  Na  Na17  1  0.66100585  0.33071041  0.83382184  1
  Na  Na18  1  0.66667471  0.33332852  0.33333545  1
  Na  Na19  1  0.33665359  0.67209229  0.16713009  1
  Na  Na20  1  0.33632145  0.67075980  0.66665070  1
  Al  Al21  1  0.00217767  0.00673846  0.85073088  1
  Al  Al22  1  0.00027460  0.99879828  0.64875949  1
  Al  Al23  1  0.66372639  0.32436183  0.68474441  1
  Al  Al24  1  0.67036708  0.33100442  0.18433573  1
  Al  Al25  1  0.66446753  0.33713761  0.98235832  1
  Al  Al26  1  0.66199030  0.33555683  0.48254312  1
  Ga  Ga27  1  0.99346047  0.99424399  0.35039273  1
  Ga  Ga28  1  0.99796802  0.99479977  0.14932982  1
  Ga  Ga29  1  0.32832341  0.66515156  0.01708266  1
  Ga  Ga30  1  0.33595685  0.67227018  0.51735371  1
  Ga  Ga31  1  0.33985435  0.67242200  0.31628583  1
  Ga  Ga32  1  0.33922314  0.67027198  0.81620011  1
  Si  Si33  1  0.71354032  0.00241469  0.74978172  1
  Si  Si34  1  0.37541983  0.04503551  0.58335604  1
  Si  Si35  1  0.95385384  0.62046915  0.08324791  1
  P  P36  1  0.29702539  0.00257643  0.24999278  1
  P  P37  1  0.70679232  0.70860450  0.24980096  1
  P  P38  1  0.99414021  0.28761807  0.24990234  1
  P  P39  1  0.28722935  0.28586557  0.74979585  1
  P  P40  1  0.99745947  0.71164145  0.75000510  1
  P  P41  1  0.95265121  0.33199164  0.58307669  1
  P  P42  1  0.66870831  0.61921355  0.58390728  1
  P  P43  1  0.66661909  0.04877874  0.08296872  1
  P  P44  1  0.38202991  0.33339140  0.08373549  1
  P  P45  1  0.62370849  0.66213302  0.91694923  1
  P  P46  1  0.04325448  0.37203951  0.91632211  1
  P  P47  1  0.33321009  0.96512693  0.91669949  1
  P  P48  1  0.62661590  0.95820167  0.41687124  1
  P  P49  1  0.33913556  0.37908581  0.41677918  1
  P  P50  1  0.03621207  0.66394748  0.41670012  1
  O  O51  1  0.21483450  0.04031540  0.30750390  1
  O  O52  1  0.82955949  0.78858637  0.30536642  1
  O  O53  1  0.96672155  0.17719207  0.30812336  1
  O  O54  1  0.20399414  0.16521263  0.80573730  1
  O  O55  1  0.96568517  0.79526528  0.80773147  1
  O  O56  1  0.83652392  0.03721298  0.81012639  1
  O  O57  1  0.80155822  0.96355071  0.68961155  1
  O  O58  1  0.17108037  0.20516210  0.69204819  1
  O  O59  1  0.03533951  0.82992943  0.69270741  1
  O  O60  1  0.78601158  0.82175021  0.19139926  1
  O  O61  1  0.03688297  0.20930308  0.19243694  1
  O  O62  1  0.17657046  0.96328337  0.19293803  1
  O  O63  1  0.87230380  0.37085011  0.64060222  1
  O  O64  1  0.50143249  0.13178877  0.64309888  1
  O  O65  1  0.63474197  0.50359704  0.64188425  1
  O  O66  1  0.86710376  0.49666906  0.14360885  1
  O  O67  1  0.62939993  0.13121356  0.13933694  1
  O  O68  1  0.49556406  0.36603294  0.14171226  1
  O  O69  1  0.46466448  0.29615634  0.02738012  1
  O  O70  1  0.83019219  0.53366672  0.02305148  1
  O  O71  1  0.69940713  0.16258387  0.02486117  1
  O  O72  1  0.46372060  0.16932647  0.52306301  1
  O  O73  1  0.70448906  0.53574338  0.52747954  1
  O  O74  1  0.83724770  0.29965462  0.52579836  1
  O  O75  1  0.54450295  0.70514255  0.97414840  1
  O  O76  1  0.15604373  0.45388646  0.97424249  1
  O  O77  1  0.29402268  0.84387651  0.97372225  1
  O  O78  1  0.54741850  0.84493861  0.47524843  1
  O  O79  1  0.29639662  0.45743373  0.47424248  1
  O  O80  1  0.15672556  0.70318761  0.47373681  1
  O  O81  1  0.11844072  0.62634176  0.35916197  1
  O  O82  1  0.50385323  0.87821320  0.36128289  1
  O  O83  1  0.36659432  0.48949821  0.35853943  1
  O  O84  1  0.12234751  0.49400793  0.85928526  1
  O  O85  1  0.37246474  0.88263683  0.85952004  1
  O  O86  1  0.51076376  0.63089386  0.85909707  1
  O  O87  1  0.02613603  0.83546268  0.40994305  1
  O  O88  1  0.81440850  0.98285351  0.41028054  1
  O  O89  1  0.16947177  0.19113613  0.41103440  1
  O  O90  1  0.02071218  0.18547348  0.90940077  1
  O  O91  1  0.16258743  0.97529673  0.90801817  1
  O  O92  1  0.81135453  0.83113182  0.90990031  1
  O  O93  1  0.97294948  0.16551555  0.59002819  1
  O  O94  1  0.17697895  0.02219081  0.59173269  1
  O  O95  1  0.83361471  0.80750568  0.58992478  1
  O  O96  1  0.97758363  0.82007976  0.08899803  1
  O  O97  1  0.83430477  0.02984839  0.08893990  1
  O  O98  1  0.19261857  0.16949967  0.08948777  1
  O  O99  1  0.69253353  0.17936517  0.74325018  1
  O  O100  1  0.47660696  0.31220480  0.74281376  1
  O  O101  1  0.83024924  0.52567778  0.74236555  1
  O  O102  1  0.68695328  0.52074929  0.24285737  1
  O  O103  1  0.83083940  0.31111055  0.24321539  1
  O  O104  1  0.47886576  0.17201643  0.24151809  1
  O  O105  1  0.64620426  0.49816099  0.92378782  1
  O  O106  1  0.85538550  0.35310758  0.92339891  1
  O  O107  1  0.50396944  0.14595907  0.92528373  1
  O  O108  1  0.64647289  0.14605311  0.42391692  1
  O  O109  1  0.50252327  0.35569839  0.42343522  1
  O  O110  1  0.85446315  0.49446636  0.42524693  1
  O  O111  1  0.36296942  0.50097304  0.07759088  1
  O  O112  1  0.15342769  0.64389947  0.07752983  1
  O  O113  1  0.50280787  0.85944557  0.07724970  1
  O  O114  1  0.35396107  0.84623124  0.57738215  1
  O  O115  1  0.50082323  0.63797789  0.57779784  1
  O  O116  1  0.14140227  0.49677644  0.57726864  1
  O  O117  1  0.30718971  0.83116466  0.25673429  1
  O  O118  1  0.51898826  0.68393043  0.25637100  1
  O  O119  1  0.16387732  0.47555753  0.25564301  1
  O  O120  1  0.30515894  0.47209369  0.75612100  1
  O  O121  1  0.16224624  0.68794617  0.75591113  1
  O  O122  1  0.51411166  0.82527560  0.75576467  1
