# generated using pymatgen
data_Ba4P3
_symmetry_space_group_name_H-M   'P 1'
_cell_length_a   11.38521709
_cell_length_b   12.68679497
_cell_length_c   13.43590690
_cell_angle_alpha   90.00000000
_cell_angle_beta   90.00000000
_cell_angle_gamma   90.00000000
_symmetry_Int_Tables_number   1
_chemical_formula_structural   Ba4P3
_chemical_formula_sum   'Ba32 P24'
_cell_volume   1940.70812119
_cell_formula_units_Z   8
loop_
 _symmetry_equiv_pos_site_id
 _symmetry_equiv_pos_as_xyz
  1  'x, y, z'
loop_
 _atom_site_type_symbol
 _atom_site_label
 _atom_site_symmetry_multiplicity
 _atom_site_fract_x
 _atom_site_fract_y
 _atom_site_fract_z
 _atom_site_occupancy
  Ba  Ba0  1  0.50000000  0.12108492  0.87327278  1
  Ba  Ba1  1  0.50000000  0.87891508  0.12672722  1
  Ba  Ba2  1  0.50000000  0.62108492  0.62672722  1
  Ba  Ba3  1  0.50000000  0.37891508  0.37327278  1
  Ba  Ba4  1  0.81900799  0.00000000  -0.00000000  1
  Ba  Ba5  1  0.18099201  0.50000000  0.50000000  1
  Ba  Ba6  1  0.18099201  -0.00000000  -0.00000000  1
  Ba  Ba7  1  0.81900799  0.50000000  0.50000000  1
  Ba  Ba8  1  0.68132398  0.17042320  0.56764284  1
  Ba  Ba9  1  0.68132398  0.82957680  0.43235716  1
  Ba  Ba10  1  0.31867602  0.67042320  0.93235716  1
  Ba  Ba11  1  0.31867602  0.32957680  0.06764284  1
  Ba  Ba12  1  0.31867602  0.82957680  0.43235716  1
  Ba  Ba13  1  0.31867602  0.17042320  0.56764284  1
  Ba  Ba14  1  0.68132398  0.32957680  0.06764284  1
  Ba  Ba15  1  0.68132398  0.67042320  0.93235716  1
  Ba  Ba16  1  -0.00000000  0.72517885  0.08243460  1
  Ba  Ba17  1  -0.00000000  0.27482115  0.91756640  1
  Ba  Ba18  1  -0.00000000  0.22517885  0.41756640  1
  Ba  Ba19  1  -0.00000000  0.77482115  0.58243360  1
  Ba  Ba20  1  0.71659890  0.90209493  0.73643988  1
  Ba  Ba21  1  0.71659890  0.09790507  0.26356012  1
  Ba  Ba22  1  0.28340110  0.40209493  0.76356012  1
  Ba  Ba23  1  0.28340110  0.59790507  0.23643988  1
  Ba  Ba24  1  0.28340110  0.09790507  0.26356012  1
  Ba  Ba25  1  0.28340110  0.90209493  0.73643988  1
  Ba  Ba26  1  0.71659890  0.59790507  0.23643988  1
  Ba  Ba27  1  0.71659890  0.40209493  0.76356012  1
  Ba  Ba28  1  -0.00000000  0.89337566  0.29441755  1
  Ba  Ba29  1  -0.00000000  0.10662434  0.70558245  1
  Ba  Ba30  1  -0.00000000  0.39337566  0.20558245  1
  Ba  Ba31  1  -0.00000000  0.60662434  0.79441755  1
  P  P32  1  -0.00000000  0.63938242  0.36371961  1
  P  P33  1  -0.00000000  0.36061758  0.63628039  1
  P  P34  1  -0.00000000  0.13938242  0.13628039  1
  P  P35  1  -0.00000000  0.86061758  0.86371961  1
  P  P36  1  0.50000000  0.03335540  0.42236048  1
  P  P37  1  0.50000000  0.96664460  0.57763952  1
  P  P38  1  0.50000000  0.53335540  0.07763952  1
  P  P39  1  0.50000000  0.46664460  0.92236048  1
  P  P40  1  0.23620696  0.33705660  0.32081383  1
  P  P41  1  0.23620696  0.66294340  0.67918617  1
  P  P42  1  0.76379304  0.83705660  0.17918617  1
  P  P43  1  0.76379304  0.16294340  0.82081383  1
  P  P44  1  0.76379304  0.66294340  0.67918617  1
  P  P45  1  0.76379304  0.33705660  0.32081383  1
  P  P46  1  0.23620696  0.16294340  0.82081383  1
  P  P47  1  0.23620696  0.83705660  0.17918617  1
  P  P48  1  0.50000000  0.63818568  0.38692450  1
  P  P49  1  0.50000000  0.36181432  0.61307550  1
  P  P50  1  0.50000000  0.13818568  0.11307550  1
  P  P51  1  0.50000000  0.86181432  0.88692450  1
  P  P52  1  0.89947532  -0.00000000  0.50000000  1
  P  P53  1  0.10052468  0.50000000  -0.00000000  1
  P  P54  1  0.10052468  0.00000000  0.50000000  1
  P  P55  1  0.89947532  0.50000000  -0.00000000  1
