# generated using pymatgen
data_Na5Ca2Hf2P5SO24
_symmetry_space_group_name_H-M   'P 1'
_cell_length_a   9.16994207
_cell_length_b   9.17093614
_cell_length_c   22.90725316
_cell_angle_alpha   90.05430512
_cell_angle_beta   89.89609683
_cell_angle_gamma   119.89748784
_symmetry_Int_Tables_number   1
_chemical_formula_structural   Na5Ca2Hf2P5SO24
_chemical_formula_sum   'Na15 Ca6 Hf6 P15 S3 O72'
_cell_volume   1670.05542934
_cell_formula_units_Z   3
loop_
 _symmetry_equiv_pos_site_id
 _symmetry_equiv_pos_as_xyz
  1  'x, y, z'
loop_
 _atom_site_type_symbol
 _atom_site_label
 _atom_site_symmetry_multiplicity
 _atom_site_fract_x
 _atom_site_fract_y
 _atom_site_fract_z
 _atom_site_occupancy
  Na  Na0  1  0.64484925  0.00445249  0.25286037  1
  Na  Na1  1  0.37353972  0.37839288  0.24316710  1
  Na  Na2  1  0.98854535  0.61803120  0.25190625  1
  Na  Na3  1  0.64623665  0.63274222  0.74473898  1
  Na  Na4  1  0.98340059  0.34836278  0.74558094  1
  Na  Na5  1  0.36742260  0.01855545  0.74548943  1
  Na  Na6  1  0.30749739  0.96340974  0.07146512  1
  Na  Na7  1  0.03153367  0.34936437  0.07390945  1
  Na  Na8  1  0.70717788  0.67895758  0.41875711  1
  Na  Na9  1  0.00380459  0.00210503  0.50138620  1
  Na  Na10  1  0.00252815  0.00066391  0.98665341  1
  Na  Na11  1  0.66654853  0.32677593  0.83440234  1
  Na  Na12  1  0.68993360  0.32741564  0.33753192  1
  Na  Na13  1  0.34973402  0.65941185  0.15933445  1
  Na  Na14  1  0.33584741  0.66459735  0.66310587  1
  Ca  Ca15  1  0.99960767  0.00412901  0.35762692  1
  Ca  Ca16  1  0.00540167  0.00583089  0.85250189  1
  Ca  Ca17  1  0.66818905  0.33403683  0.67409826  1
  Ca  Ca18  1  0.66928885  0.33948398  0.17912220  1
  Ca  Ca19  1  0.33753153  0.66478289  0.01456737  1
  Ca  Ca20  1  0.32814525  0.66974919  0.32075716  1
  Hf  Hf21  1  0.99853658  0.99889638  0.64664587  1
  Hf  Hf22  1  0.98750481  0.99480732  0.14376328  1
  Hf  Hf23  1  0.66785452  0.33225535  0.98180910  1
  Hf  Hf24  1  0.67310660  0.32831701  0.49037631  1
  Hf  Hf25  1  0.32961978  0.67340976  0.51800887  1
  Hf  Hf26  1  0.32530600  0.66835496  0.81929010  1
  P  P27  1  0.70549355  0.70651974  0.25175082  1
  P  P28  1  0.00288174  0.29400070  0.24736209  1
  P  P29  1  0.29315033  0.30090819  0.74900927  1
  P  P30  1  0.00502654  0.70791542  0.74993237  1
  P  P31  1  0.69941450  0.99165182  0.75000133  1
  P  P32  1  0.97669241  0.33266668  0.58602761  1
  P  P33  1  0.35912339  0.03011053  0.58546497  1
  P  P34  1  0.66671098  0.64088170  0.58318554  1
  P  P35  1  0.96306387  0.63535056  0.08464411  1
  P  P36  1  0.66979381  0.03895143  0.08554422  1
  P  P37  1  0.36193308  0.32380558  0.08627625  1
  P  P38  1  0.02545986  0.37042984  0.92014848  1
  P  P39  1  0.34376121  0.97376385  0.92051875  1
  P  P40  1  0.62680826  0.97112158  0.41779813  1
  P  P41  1  0.02328809  0.65504297  0.41831577  1
  S  S42  1  0.28881753  0.99832550  0.24720528  1
  S  S43  1  0.62713478  0.65425900  0.91527375  1
  S  S44  1  0.34716564  0.37394678  0.42032928  1
  O  O45  1  0.20602112  0.01340686  0.29917051  1
  O  O46  1  0.79965658  0.78330749  0.30846727  1
  O  O47  1  0.99190872  0.19126312  0.30056845  1
  O  O48  1  0.22132760  0.19273657  0.80265442  1
  O  O49  1  0.97060743  0.78140284  0.80347245  1
  O  O50  1  0.80714903  0.02440034  0.80338195  1
  O  O51  1  0.79126256  0.96547715  0.69552732  1
  O  O52  1  0.17379645  0.20793982  0.69524476  1
  O  O53  1  0.03353677  0.82550060  0.69560431  1
  O  O54  1  0.81534936  0.82030566  0.19832348  1
  O  O55  1  0.00976808  0.19584524  0.19069487  1
  O  O56  1  0.19041604  0.99041080  0.19320264  1
  O  O57  1  0.92139748  0.36884955  0.64397773  1
  O  O58  1  0.44920224  0.08354995  0.64357382  1
  O  O59  1  0.63124637  0.54701854  0.64066404  1
  O  O60  1  0.89887322  0.54390540  0.14252401  1
  O  O61  1  0.64918219  0.10768501  0.14341209  1
  O  O62  1  0.44583339  0.34231491  0.14511168  1
  O  O63  1  0.46757740  0.30565465  0.03529091  1
  O  O64  1  0.84235004  0.53239456  0.03317700  1
  O  O65  1  0.69520045  0.16587560  0.03446428  1
  O  O66  1  0.46607906  0.15699543  0.53623145  1
  O  O67  1  0.68957001  0.53912399  0.53216849  1
  O  O68  1  0.84714470  0.31067423  0.53704086  1
  O  O69  1  0.54851389  0.67197961  0.96787758  1
  O  O70  1  0.11867752  0.44684245  0.97644474  1
  O  O71  1  0.33294652  0.88203666  0.97661439  1
  O  O72  1  0.50718256  0.84197711  0.46418836  1
  O  O73  1  0.33523783  0.47712402  0.46794379  1
  O  O74  1  0.14479787  0.65847458  0.46617377  1
  O  O75  1  0.08096225  0.63202814  0.35773808  1
  O  O76  1  0.54653105  0.91614362  0.35709629  1
  O  O77  1  0.37203262  0.46205147  0.36376315  1
  O  O78  1  0.13036380  0.48888609  0.86578253  1
  O  O79  1  0.36075187  0.87135840  0.86590698  1
  O  O80  1  0.52045973  0.63814938  0.86184670  1
  O  O81  1  0.00474384  0.81180528  0.42399990  1
  O  O82  1  0.79519778  0.97416164  0.42358746  1
  O  O83  1  0.19919282  0.20627997  0.42174975  1
  O  O84  1  0.99440951  0.19327260  0.91325007  1
  O  O85  1  0.19256140  0.99707356  0.91418591  1
  O  O86  1  0.79626588  0.79607065  0.90987911  1
  O  O87  1  0.98521858  0.16763416  0.58765409  1
  O  O88  1  0.18387702  0.01789430  0.58740284  1
  O  O89  1  0.83122277  0.81592570  0.58696557  1
  O  O90  1  0.97592785  0.81311406  0.08631945  1
  O  O91  1  0.84059208  0.03495296  0.08565571  1
  O  O92  1  0.18805379  0.15028329  0.08604807  1
  O  O93  1  0.66737046  0.14000126  0.74156224  1
  O  O94  1  0.47374408  0.33458927  0.74026171  1
  O  O95  1  0.86014627  0.52728495  0.74114715  1
  O  O96  1  0.67972625  0.52719606  0.24738099  1
  O  O97  1  0.84405724  0.31296771  0.24681400  1
  O  O98  1  0.46094720  0.14608035  0.24500604  1
  O  O99  1  0.63098655  0.49192839  0.91817740  1
  O  O100  1  0.85284648  0.37019744  0.92128907  1
  O  O101  1  0.51180071  0.14988455  0.92161270  1
  O  O102  1  0.64781608  0.14803941  0.43116596  1
  O  O103  1  0.50488145  0.36428028  0.42926601  1
  O  O104  1  0.84280265  0.49723594  0.42931349  1
  O  O105  1  0.32317830  0.46614500  0.07880344  1
  O  O106  1  0.14190172  0.66403366  0.07716519  1
  O  O107  1  0.51908702  0.86509400  0.07720461  1
  O  O108  1  0.33161750  0.85135823  0.57049766  1
  O  O109  1  0.51597388  0.66848608  0.56850882  1
  O  O110  1  0.15301553  0.48212662  0.57014274  1
  O  O111  1  0.29837689  0.84066605  0.24698382  1
  O  O112  1  0.53409135  0.70167852  0.24765149  1
  O  O113  1  0.16551231  0.46906680  0.24547730  1
  O  O114  1  0.29724012  0.47593242  0.75558734  1
  O  O115  1  0.17672364  0.70334428  0.75668245  1
  O  O116  1  0.52353488  0.82191382  0.75596399  1
