# generated using pymatgen
data_Na10La4Hf4Si7S5O48
_symmetry_space_group_name_H-M   'P 1'
_cell_length_a   18.88965967
_cell_length_b   9.42581759
_cell_length_c   23.17703080
_cell_angle_alpha   90.00192977
_cell_angle_beta   89.05572985
_cell_angle_gamma   119.68810350
_symmetry_Int_Tables_number   1
_chemical_formula_structural   Na10La4Hf4Si7S5O48
_chemical_formula_sum   'Na30 La12 Hf12 Si21 S15 O144'
_cell_volume   3584.34633951
_cell_formula_units_Z   3
loop_
 _symmetry_equiv_pos_site_id
 _symmetry_equiv_pos_as_xyz
  1  'x, y, z'
loop_
 _atom_site_type_symbol
 _atom_site_label
 _atom_site_symmetry_multiplicity
 _atom_site_fract_x
 _atom_site_fract_y
 _atom_site_fract_z
 _atom_site_occupancy
  Na  Na0  1  0.18467391  0.37414696  0.23776431  1
  Na  Na1  1  0.68499122  0.37583588  0.23787921  1
  Na  Na2  1  0.99018532  0.63581862  0.25603345  1
  Na  Na3  1  0.49221531  0.63657295  0.25585506  1
  Na  Na4  1  0.49107634  0.34115988  0.76272552  1
  Na  Na5  1  0.18508614  0.99818557  0.74146561  1
  Na  Na6  1  0.68067235  0.99709595  0.74077253  1
  Na  Na7  1  0.66428189  0.34655481  0.57742435  1
  Na  Na8  1  0.01480956  0.70559254  0.57508959  1
  Na  Na9  1  0.82395988  0.96256366  0.59243873  1
  Na  Na10  1  0.49872343  0.68002173  0.91064305  1
  Na  Na11  1  0.99901445  0.67960144  0.90947711  1
  Na  Na12  1  0.84755704  0.03558941  0.90532729  1
  Na  Na13  1  0.15375413  0.29715580  0.92463627  1
  Na  Na14  1  0.49607540  0.31569111  0.40919083  1
  Na  Na15  1  0.99240028  0.30975806  0.40991195  1
  Na  Na16  1  0.34359798  0.65696267  0.40336443  1
  Na  Na17  1  0.84683625  0.66272384  0.40810295  1
  Na  Na18  1  0.02937800  0.01463999  0.49901741  1
  Na  Na19  1  0.52461458  0.98837671  0.49693188  1
  Na  Na20  1  0.01770465  0.02499325  0.00322106  1
  Na  Na21  1  0.52521451  0.05809754  0.99777728  1
  Na  Na22  1  0.34603914  0.32520152  0.83545053  1
  Na  Na23  1  0.85355202  0.34153622  0.82712654  1
  Na  Na24  1  0.34302472  0.33812143  0.33002229  1
  Na  Na25  1  0.84076681  0.33521987  0.33384031  1
  Na  Na26  1  0.17884651  0.64868903  0.16492385  1
  Na  Na27  1  0.67827836  0.64929391  0.16558815  1
  Na  Na28  1  0.17828430  0.69068619  0.67337519  1
  Na  Na29  1  0.67883818  0.69119656  0.66898808  1
  La  La30  1  0.00196826  0.99765422  0.34827831  1
  La  La31  1  0.50241627  0.00011000  0.34676913  1
  La  La32  1  0.99775369  0.00237362  0.84289318  1
  La  La33  1  0.49408665  0.00032640  0.85390026  1
  La  La34  1  0.33444825  0.33263183  0.68214356  1
  La  La35  1  0.83833535  0.34171643  0.68622064  1
  La  La36  1  0.33518028  0.33914299  0.17904137  1
  La  La37  1  0.83513286  0.33794376  0.17980286  1
  La  La38  1  0.16077942  0.65418133  0.01954001  1
  La  La39  1  0.66007121  0.64723389  0.02105980  1
  La  La40  1  0.16672195  0.67820237  0.51756369  1
  La  La41  1  0.65873098  0.67310833  0.51707273  1
  Hf  Hf42  1  0.99487997  0.97987807  0.65126898  1
  Hf  Hf43  1  0.49600967  0.97658147  0.65051914  1
  Hf  Hf44  1  0.99767183  0.01543799  0.14978275  1
  Hf  Hf45  1  0.49736137  0.01346754  0.14956913  1
  Hf  Hf46  1  0.32552366  0.31313924  0.98004768  1
  Hf  Hf47  1  0.82301504  0.32034185  0.98017903  1
  Hf  Hf48  1  0.32387614  0.32694273  0.47997642  1
  Hf  Hf49  1  0.82616625  0.34603578  0.48112848  1
  Hf  Hf50  1  0.16326168  0.64625112  0.31416137  1
  Hf  Hf51  1  0.66243980  0.64777869  0.31495422  1
  Hf  Hf52  1  0.16154598  0.68079455  0.81390669  1
  Hf  Hf53  1  0.66320695  0.68021385  0.81451185  1
  Si  Si54  1  0.34741877  0.70900346  0.25174951  1
  Si  Si55  1  0.84784747  0.71000971  0.25173883  1
  Si  Si56  1  0.00312458  0.30751033  0.25412002  1
  Si  Si57  1  0.50323153  0.30799350  0.25384828  1
  Si  Si58  1  0.00550832  0.69998215  0.75454686  1
  Si  Si59  1  0.50327942  0.69815197  0.75470022  1
  Si  Si60  1  0.34820333  0.98601003  0.74799277  1
  Si  Si61  1  0.84226915  0.98175245  0.75237934  1
  Si  Si62  1  0.17829348  0.04066056  0.58893632  1
  Si  Si63  1  0.68219747  0.04789277  0.58872951  1
  Si  Si64  1  0.83632722  0.64094336  0.58149503  1
  Si  Si65  1  0.17806343  0.31639646  0.08774596  1
  Si  Si66  1  0.67805048  0.31448708  0.09025486  1
  Si  Si67  1  0.01440696  0.37335763  0.91635549  1
  Si  Si68  1  0.51065882  0.37391593  0.91544274  1
  Si  Si69  1  0.16878165  0.97065911  0.91587992  1
  Si  Si70  1  0.67074880  0.96827475  0.91843169  1
  Si  Si71  1  0.16937382  0.37005075  0.41775772  1
  Si  Si72  1  0.66903822  0.36839394  0.42055118  1
  Si  Si73  1  0.01153022  0.65102790  0.41848749  1
  Si  Si74  1  0.50830639  0.65110719  0.41437414  1
  S  S75  1  0.14529650  0.98020131  0.24547549  1
  S  S76  1  0.64563512  0.97990055  0.24537351  1
  S  S77  1  0.14541747  0.31304323  0.74843269  1
  S  S78  1  0.64027520  0.30087865  0.74533636  1
  S  S79  1  0.47888826  0.30397968  0.58084497  1
  S  S80  1  0.97825033  0.31148872  0.57789583  1
  S  S81  1  0.34527185  0.64556723  0.57938447  1
  S  S82  1  0.47920682  0.65561132  0.08253702  1
  S  S83  1  0.97882078  0.65456037  0.08176856  1
  S  S84  1  0.34352558  0.04166185  0.08158656  1
  S  S85  1  0.84377471  0.04191099  0.07999591  1
  S  S86  1  0.30904727  0.63988730  0.91679519  1
  S  S87  1  0.81165499  0.64686210  0.91630754  1
  S  S88  1  0.31246893  0.97896840  0.41462532  1
  S  S89  1  0.81072205  0.97522924  0.41582990  1
  O  O90  1  0.11633697  0.01347386  0.30058157  1
  O  O91  1  0.61699890  0.01304301  0.30068741  1
  O  O92  1  0.39526787  0.76663833  0.31224027  1
  O  O93  1  0.89736071  0.76683543  0.31172705  1
  O  O94  1  0.49278952  0.22089462  0.31557426  1
  O  O95  1  0.99402368  0.21956876  0.31538173  1
  O  O96  1  0.11738731  0.23363273  0.80604680  1
  O  O97  1  0.60426615  0.20434955  0.79794376  1
  O  O98  1  0.49389982  0.77126260  0.81473844  1
  O  O99  1  0.00209558  0.77671557  0.81596126  1
  O  O100  1  0.40968140  0.04447914  0.80111077  1
  O  O101  1  0.88556571  0.00178557  0.81389263  1
  O  O102  1  0.40110405  0.97151814  0.69122183  1
  O  O103  1  0.90082220  0.98074163  0.69650058  1
  O  O104  1  0.08866659  0.20772274  0.70264972  1
  O  O105  1  0.58876127  0.20808498  0.69392255  1
  O  O106  1  0.01201882  0.82775402  0.70027666  1
  O  O107  1  0.51191790  0.82613164  0.69972863  1
  O  O108  1  0.40638444  0.83329042  0.19876883  1
  O  O109  1  0.90615667  0.83471402  0.19832513  1
  O  O110  1  0.01337420  0.19752594  0.20064235  1
  O  O111  1  0.51280813  0.19572633  0.20096943  1
  O  O112  1  0.08947075  0.96873518  0.19799742  1
  O  O113  1  0.58943915  0.96817176  0.19827292  1
  O  O114  1  0.44362175  0.32408837  0.63529191  1
  O  O115  1  0.94151143  0.33669577  0.63022293  1
  O  O116  1  0.22313717  0.11158224  0.64911785  1
  O  O117  1  0.72689762  0.11714799  0.64913739  1
  O  O118  1  0.33416244  0.55322376  0.63251184  1
  O  O119  1  0.81708891  0.51472724  0.63317166  1
  O  O120  1  0.44547737  0.56802649  0.13845603  1
  O  O121  1  0.94421222  0.56782505  0.13737475  1
  O  O122  1  0.33245348  0.10793801  0.13591099  1
  O  O123  1  0.83338318  0.11293310  0.13337653  1
  O  O124  1  0.22040110  0.32315140  0.14904238  1
  O  O125  1  0.71905404  0.31931360  0.15171709  1
  O  O126  1  0.23616495  0.30637192  0.03254365  1
  O  O127  1  0.73960307  0.30903235  0.03637594  1
  O  O128  1  0.42910968  0.55494040  0.03351269  1
  O  O129  1  0.92935308  0.55531033  0.03220436  1
  O  O130  1  0.35009347  0.15139689  0.03182601  1
  O  O131  1  0.85062889  0.14741480  0.02875488  1
  O  O132  1  0.23877886  0.16431299  0.53383231  1
  O  O133  1  0.73856984  0.17979531  0.53440880  1
  O  O134  1  0.34986363  0.55089115  0.52783025  1
  O  O135  1  0.85018655  0.55014132  0.52222588  1
  O  O136  1  0.43099117  0.30760308  0.53033002  1
  O  O137  1  0.92843054  0.30126701  0.52618234  1
  O  O138  1  0.27611955  0.66707514  0.97025278  1
  O  O139  1  0.77850289  0.67484103  0.96966454  1
  O  O140  1  0.07600181  0.43810128  0.96992818  1
  O  O141  1  0.56483367  0.46233846  0.97049797  1
  O  O142  1  0.15126903  0.84813653  0.96877161  1
  O  O143  1  0.66832788  0.85993501  0.97202097  1
  O  O144  1  0.28055930  0.88777178  0.46866816  1
  O  O145  1  0.77979098  0.88936405  0.47150308  1
  O  O146  1  0.16421904  0.47028759  0.47151267  1
  O  O147  1  0.66364514  0.45018662  0.48007468  1
  O  O148  1  0.05741586  0.67263773  0.47909555  1
  O  O149  1  0.56096186  0.67831569  0.47080050  1
  O  O150  1  0.06843269  0.64009093  0.36285685  1
  O  O151  1  0.56093591  0.63710700  0.35669183  1
  O  O152  1  0.26083258  0.89033709  0.36489788  1
  O  O153  1  0.75746209  0.87775120  0.36738011  1
  O  O154  1  0.18378421  0.49104847  0.35929953  1
  O  O155  1  0.67873877  0.49703717  0.36541485  1
  O  O156  1  0.06708418  0.50235925  0.86150320  1
  O  O157  1  0.56172999  0.49117691  0.85671057  1
  O  O158  1  0.17834132  0.87805695  0.85652170  1
  O  O159  1  0.68365133  0.87450233  0.85943801  1
  O  O160  1  0.25923631  0.63133214  0.86598325  1
  O  O161  1  0.76097424  0.63077773  0.86575996  1
  O  O162  1  0.98950574  0.79756620  0.41405291  1
  O  O163  1  0.48379595  0.79444435  0.41212989  1
  O  O164  1  0.39707288  0.01107875  0.40814480  1
  O  O165  1  0.89438747  0.99925392  0.40890000  1
  O  O166  1  0.08885101  0.19186532  0.41576981  1
  O  O167  1  0.58830005  0.19039687  0.41529385  1
  O  O168  1  0.99155515  0.18243466  0.90990968  1
  O  O169  1  0.49126656  0.18712477  0.91502792  1
  O  O170  1  0.09434756  0.01311779  0.91345354  1
  O  O171  1  0.59000240  0.98512111  0.91625595  1
  O  O172  1  0.39524783  0.76399264  0.91137754  1
  O  O173  1  0.89699927  0.78351765  0.90979910  1
  O  O174  1  0.48082149  0.14761779  0.58170709  1
  O  O175  1  0.97785839  0.15249476  0.58250054  1
  O  O176  1  0.08793792  0.03202638  0.58998788  1
  O  O177  1  0.59217699  0.04236399  0.58984386  1
  O  O178  1  0.42508147  0.80426910  0.58197090  1
  O  O179  1  0.92429947  0.81527053  0.59104749  1
  O  O180  1  0.47855643  0.81347644  0.08455240  1
  O  O181  1  0.97932706  0.81391276  0.08309310  1
  O  O182  1  0.42268827  0.03929048  0.08421110  1
  O  O183  1  0.92331697  0.03954844  0.08366732  1
  O  O184  1  0.08730204  0.14520443  0.08979876  1
  O  O185  1  0.58740353  0.14417791  0.09022078  1
  O  O186  1  0.32749433  0.13627671  0.74270668  1
  O  O187  1  0.82027449  0.12875282  0.74868326  1
  O  O188  1  0.22763845  0.33357128  0.74000553  1
  O  O189  1  0.72352068  0.33014180  0.74037769  1
  O  O190  1  0.43294952  0.50764337  0.74758493  1
  O  O191  1  0.93044935  0.51727171  0.75118224  1
  O  O192  1  0.32935322  0.51904636  0.24499699  1
  O  O193  1  0.83059479  0.52116873  0.24427232  1
  O  O194  1  0.43204250  0.35575761  0.24663622  1
  O  O195  1  0.93189051  0.35495102  0.24726645  1
  O  O196  1  0.22951767  0.11249463  0.23713339  1
  O  O197  1  0.72993136  0.11153462  0.23708496  1
  O  O198  1  0.30475044  0.47366206  0.92068085  1
  O  O199  1  0.81721135  0.49192477  0.92210136  1
  O  O200  1  0.42381967  0.38449305  0.92320960  1
  O  O201  1  0.92765729  0.37921138  0.92711256  1
  O  O202  1  0.25488338  0.15015314  0.92424477  1
  O  O203  1  0.75800957  0.15031867  0.92366963  1
  O  O204  1  0.31665758  0.14322615  0.41959082  1
  O  O205  1  0.81671406  0.13943830  0.41760544  1
  O  O206  1  0.25630384  0.36284068  0.42361349  1
  O  O207  1  0.75699414  0.36495271  0.41969982  1
  O  O208  1  0.42160527  0.46893439  0.42162182  1
  O  O209  1  0.92450109  0.46968393  0.42058034  1
  O  O210  1  0.16781543  0.47780638  0.08531817  1
  O  O211  1  0.66770152  0.47523328  0.08827461  1
  O  O212  1  0.06290284  0.68395529  0.07882831  1
  O  O213  1  0.56378290  0.68765388  0.07936438  1
  O  O214  1  0.27594963  0.87557833  0.07426093  1
  O  O215  1  0.77677019  0.87483574  0.07443794  1
  O  O216  1  0.15801896  0.84956255  0.58502261  1
  O  O217  1  0.67631831  0.87079588  0.58225087  1
  O  O218  1  0.27823787  0.68048541  0.57392732  1
  O  O219  1  0.76279111  0.68277651  0.57864977  1
  O  O220  1  0.06206570  0.44997540  0.57382204  1
  O  O221  1  0.56459716  0.44073608  0.57858576  1
  O  O222  1  0.14167087  0.81777519  0.24926198  1
  O  O223  1  0.64235131  0.81769817  0.24887922  1
  O  O224  1  0.25757000  0.70222475  0.25630122  1
  O  O225  1  0.75750898  0.70072983  0.25746408  1
  O  O226  1  0.09315092  0.48493641  0.25447280  1
  O  O227  1  0.59383741  0.48394956  0.25446695  1
  O  O228  1  0.14976214  0.47500776  0.74870105  1
  O  O229  1  0.63886289  0.45835962  0.74776637  1
  O  O230  1  0.09581941  0.70536391  0.75114498  1
  O  O231  1  0.59382283  0.70317114  0.75400798  1
  O  O232  1  0.25998819  0.81452195  0.75746630  1
  O  O233  1  0.75454750  0.80348725  0.75414983  1
