# generated using pymatgen
data_Na2Ca3Ti(SO4)6
_symmetry_space_group_name_H-M   'P 1'
_cell_length_a   9.04631176
_cell_length_b   9.04631146
_cell_length_c   23.70489885
_cell_angle_alpha   90.00000000
_cell_angle_beta   90.00000000
_cell_angle_gamma   120.00000111
_symmetry_Int_Tables_number   1
_chemical_formula_structural   Na2Ca3Ti(SO4)6
_chemical_formula_sum   'Na6 Ca9 Ti3 S18 O72'
_cell_volume   1680.00981909
_cell_formula_units_Z   3
loop_
 _symmetry_equiv_pos_site_id
 _symmetry_equiv_pos_as_xyz
  1  'x, y, z'
loop_
 _atom_site_type_symbol
 _atom_site_label
 _atom_site_symmetry_multiplicity
 _atom_site_fract_x
 _atom_site_fract_y
 _atom_site_fract_z
 _atom_site_occupancy
  Na  Na0  1  -0.00000000  0.00000000  0.50625408  1
  Na  Na1  1  -0.00000000  0.00000000  0.99910612  1
  Na  Na2  1  0.66666700  0.33333300  0.83093549  1
  Na  Na3  1  0.66666700  0.33333300  0.33704022  1
  Na  Na4  1  0.33333300  0.66666700  0.17540733  1
  Na  Na5  1  0.33333300  0.66666700  0.65143760  1
  Ca  Ca6  1  -0.00000000  0.00000000  0.64412819  1
  Ca  Ca7  1  -0.00000000  0.00000000  0.14779282  1
  Ca  Ca8  1  0.66666700  0.33333300  0.68224291  1
  Ca  Ca9  1  0.66666700  0.33333300  0.18726432  1
  Ca  Ca10  1  0.66666700  0.33333300  0.98176631  1
  Ca  Ca11  1  0.66666700  0.33333300  0.48328373  1
  Ca  Ca12  1  0.33333300  0.66666700  0.51195607  1
  Ca  Ca13  1  0.33333300  0.66666700  0.31800545  1
  Ca  Ca14  1  0.33333300  0.66666700  0.81526315  1
  Ti  Ti15  1  -0.00000000  0.00000000  0.35063675  1
  Ti  Ti16  1  -0.00000000  0.00000000  0.84815202  1
  Ti  Ti17  1  0.33333300  0.66666700  0.01569443  1
  S  S18  1  0.28943269  0.00373191  0.25272906  1
  S  S19  1  0.71429922  0.71056731  0.25272906  1
  S  S20  1  0.99626809  0.28570078  0.25272906  1
  S  S21  1  0.28945002  0.28218646  0.75522849  1
  S  S22  1  0.99273643  0.71054998  0.75522849  1
  S  S23  1  0.71781354  0.00726357  0.75522849  1
  S  S24  1  0.97289433  0.33910151  0.58312133  1
  S  S25  1  0.36620818  0.02710567  0.58312133  1
  S  S26  1  0.66089849  0.63379182  0.58312133  1
  S  S27  1  0.98222416  0.63487209  0.07799146  1
  S  S28  1  0.65264893  0.01777584  0.07799146  1
  S  S29  1  0.36512791  0.34735107  0.07799146  1
  S  S30  1  0.63451305  0.68256266  0.91731295  1
  S  S31  1  0.04804861  0.36548695  0.91731295  1
  S  S32  1  0.31743734  0.95195139  0.91731295  1
  S  S33  1  0.65093824  0.97340339  0.41156090  1
  S  S34  1  0.32246415  0.34906176  0.41156090  1
  S  S35  1  0.02659661  0.67753585  0.41156090  1
  O  O36  1  0.18525275  0.00601093  0.30265713  1
  O  O37  1  0.82075818  0.81474725  0.30265713  1
  O  O38  1  0.99398907  0.17924182  0.30265713  1
  O  O39  1  0.18119737  0.17253354  0.80763472  1
  O  O40  1  0.99133617  0.81880263  0.80763472  1
  O  O41  1  0.82746646  0.00866383  0.80763472  1
  O  O42  1  0.80279936  0.99839391  0.70489828  1
  O  O43  1  0.19559455  0.19720064  0.70489828  1
  O  O44  1  0.00160609  0.80440545  0.70489828  1
  O  O45  1  0.79396271  0.79789070  0.19995294  1
  O  O46  1  0.00392799  0.20603729  0.19995294  1
  O  O47  1  0.20210930  0.99607201  0.19995294  1
  O  O48  1  0.88690929  0.34445028  0.63594942  1
  O  O49  1  0.45754199  0.11309071  0.63594942  1
  O  O50  1  0.65554972  0.54245801  0.63594942  1
  O  O51  1  0.91783863  0.53694447  0.13049784  1
  O  O52  1  0.61910684  0.08216137  0.13049784  1
  O  O53  1  0.46305553  0.38089316  0.13049784  1
  O  O54  1  0.44880087  0.32315973  0.02927413  1
  O  O55  1  0.87435986  0.55119913  0.02927413  1
  O  O56  1  0.67684027  0.12564014  0.02927413  1
  O  O57  1  0.45764953  0.12388899  0.53260448  1
  O  O58  1  0.66624046  0.54235047  0.53260448  1
  O  O59  1  0.87611101  0.33375954  0.53260448  1
  O  O60  1  0.53784845  0.69830754  0.96760125  1
  O  O61  1  0.16045809  0.46215155  0.96760125  1
  O  O62  1  0.30169246  0.83954191  0.96760125  1
  O  O63  1  0.58455750  0.87355578  0.46363447  1
  O  O64  1  0.28899728  0.41544250  0.46363447  1
  O  O65  1  0.12644422  0.71100272  0.46363447  1
  O  O66  1  0.11030615  0.65495742  0.36238656  1
  O  O67  1  0.54465027  0.88969385  0.36238656  1
  O  O68  1  0.34504258  0.45534973  0.36238656  1
  O  O69  1  0.12162040  0.46154711  0.86581031  1
  O  O70  1  0.33992571  0.87837960  0.86581031  1
  O  O71  1  0.53845289  0.66007429  0.86581031  1
  O  O72  1  0.01109291  0.83723552  0.40141603  1
  O  O73  1  0.82614262  0.98890709  0.40141603  1
  O  O74  1  0.16276448  0.17385738  0.40141603  1
  O  O75  1  0.03920386  0.19411596  0.91417119  1
  O  O76  1  0.15491210  0.96079614  0.91417119  1
  O  O77  1  0.80588404  0.84508790  0.91417119  1
  O  O78  1  0.99093710  0.18451676  0.58274003  1
  O  O79  1  0.19357966  0.00906290  0.58274003  1
  O  O80  1  0.81548324  0.80642034  0.58274003  1
  O  O81  1  0.01573249  0.81177398  0.08255915  1
  O  O82  1  0.79604149  0.98426751  0.08255915  1
  O  O83  1  0.18822602  0.20395851  0.08255915  1
  O  O84  1  0.71146615  0.16600837  0.76067273  1
  O  O85  1  0.45454322  0.28853385  0.76067273  1
  O  O86  1  0.83399163  0.54545678  0.76067273  1
  O  O87  1  0.70483605  0.54187721  0.25521890  1
  O  O88  1  0.83704216  0.29516395  0.25521890  1
  O  O89  1  0.45812279  0.16295783  0.25521890  1
  O  O90  1  0.66221164  0.53725355  0.92522830  1
  O  O91  1  0.87504292  0.33778836  0.92522830  1
  O  O92  1  0.46274645  0.12495708  0.92522830  1
  O  O93  1  0.68177243  0.14890837  0.41644965  1
  O  O94  1  0.46713694  0.31822757  0.41644965  1
  O  O95  1  0.85109163  0.53286306  0.41644965  1
  O  O96  1  0.35225294  0.50897687  0.06645455  1
  O  O97  1  0.15672293  0.64774706  0.06645455  1
  O  O98  1  0.49102313  0.84327707  0.06645455  1
  O  O99  1  0.34845339  0.85462482  0.58191180  1
  O  O100  1  0.50617043  0.65154661  0.58191180  1
  O  O101  1  0.14537518  0.49382957  0.58191180  1
  O  O102  1  0.31045816  0.85232344  0.25614101  1
  O  O103  1  0.54186428  0.68954184  0.25614101  1
  O  O104  1  0.14767656  0.45813572  0.25614101  1
  O  O105  1  0.30569956  0.45032178  0.76073528  1
  O  O106  1  0.14462122  0.69430044  0.76073528  1
  O  O107  1  0.54967822  0.85537878  0.76073528  1
