# generated using pymatgen
data_Bi2TeO5
_symmetry_space_group_name_H-M   'P 1'
_cell_length_a   8.71491571
_cell_length_b   8.71491571
_cell_length_c   11.58876211
_cell_angle_alpha   90.00000000
_cell_angle_beta   90.00000000
_cell_angle_gamma   143.05573060
_symmetry_Int_Tables_number   1
_chemical_formula_structural   Bi2TeO5
_chemical_formula_sum   'Bi8 Te4 O20'
_cell_volume   529.01173032
_cell_formula_units_Z   4
loop_
 _symmetry_equiv_pos_site_id
 _symmetry_equiv_pos_as_xyz
  1  'x, y, z'
loop_
 _atom_site_type_symbol
 _atom_site_label
 _atom_site_symmetry_multiplicity
 _atom_site_fract_x
 _atom_site_fract_y
 _atom_site_fract_z
 _atom_site_occupancy
  Bi  Bi0  1  0.74142655  0.24142655  0.61818915  1
  Bi  Bi1  1  0.24142655  0.74142655  0.38181085  1
  Bi  Bi2  1  0.25749661  0.75749661  0.87399754  1
  Bi  Bi3  1  0.75749661  0.25749661  0.12600246  1
  Bi  Bi4  1  0.93834158  0.10779471  0.39154634  1
  Bi  Bi5  1  0.10779471  0.93834158  0.60845366  1
  Bi  Bi6  1  0.43834158  0.60779471  0.60845366  1
  Bi  Bi7  1  0.60779471  0.43834158  0.39154634  1
  Te  Te8  1  0.44594480  0.60872191  0.13260182  1
  Te  Te9  1  0.60872191  0.44594480  0.86739818  1
  Te  Te10  1  0.94594480  0.10872191  0.86739818  1
  Te  Te11  1  0.10872191  0.94594480  0.13260182  1
  O  O12  1  0.56169708  0.87933426  0.20665075  1
  O  O13  1  0.87933426  0.56169708  0.79334925  1
  O  O14  1  0.06169708  0.37933426  0.79334925  1
  O  O15  1  0.37933426  0.06169708  0.20665075  1
  O  O16  1  0.13697316  0.45890955  0.48399759  1
  O  O17  1  0.45890955  0.13697316  0.51600241  1
  O  O18  1  0.63697316  0.95890955  0.51600241  1
  O  O19  1  0.95890955  0.63697316  0.48399759  1
  O  O20  1  0.38980591  0.88980591  0.70672739  1
  O  O21  1  0.88980591  0.38980591  0.29327261  1
  O  O22  1  0.13774813  0.43342705  0.06839103  1
  O  O23  1  0.43342705  0.13774813  0.93160897  1
  O  O24  1  0.91000090  0.81966899  0.26382196  1
  O  O25  1  0.81966899  0.91000090  0.73617804  1
  O  O26  1  0.41000090  0.31966899  0.73617804  1
  O  O27  1  0.31966899  0.41000090  0.26382196  1
  O  O28  1  0.72980980  0.72980980  0.50000000  1
  O  O29  1  0.22980980  0.22980980  0.50000000  1
  O  O30  1  0.93342705  0.63774813  0.06839103  1
  O  O31  1  0.63774813  0.93342705  0.93160897  1
