# generated using pymatgen
data_CaNb2O4
_symmetry_space_group_name_H-M   'P 1'
_cell_length_a   5.09333203
_cell_length_b   5.88430427
_cell_length_c   11.95514481
_cell_angle_alpha   90.00000000
_cell_angle_beta   90.00000000
_cell_angle_gamma   90.00000000
_symmetry_Int_Tables_number   1
_chemical_formula_structural   CaNb2O4
_chemical_formula_sum   'Ca4 Nb8 O16'
_cell_volume   358.30424282
_cell_formula_units_Z   4
loop_
 _symmetry_equiv_pos_site_id
 _symmetry_equiv_pos_as_xyz
  1  'x, y, z'
loop_
 _atom_site_type_symbol
 _atom_site_label
 _atom_site_symmetry_multiplicity
 _atom_site_fract_x
 _atom_site_fract_y
 _atom_site_fract_z
 _atom_site_occupancy
  Ca  Ca0  1  0.69073327  0.25000000  0.49624933  1
  Ca  Ca1  1  0.69073327  0.75000000  0.00375067  1
  Ca  Ca2  1  0.30926673  0.75000000  0.50375067  1
  Ca  Ca3  1  0.30926673  0.25000000  0.99624933  1
  Nb  Nb4  1  0.84417891  -0.00000000  0.25000000  1
  Nb  Nb5  1  0.15582109  0.50000000  0.75000000  1
  Nb  Nb6  1  0.15582109  -0.00000000  0.75000000  1
  Nb  Nb7  1  0.84417891  0.50000000  0.25000000  1
  Nb  Nb8  1  0.65934370  0.75000000  0.74626433  1
  Nb  Nb9  1  0.65934370  0.25000000  0.75373567  1
  Nb  Nb10  1  0.34065630  0.25000000  0.25373567  1
  Nb  Nb11  1  0.34065630  0.75000000  0.24626433  1
  O  O12  1  0.98577852  0.75000000  0.85720730  1
  O  O13  1  0.98577852  0.25000000  0.64279270  1
  O  O14  1  0.01422148  0.25000000  0.14279270  1
  O  O15  1  0.01422148  0.75000000  0.35720730  1
  O  O16  1  0.99374667  0.75000000  0.63934937  1
  O  O17  1  0.99374667  0.25000000  0.86065063  1
  O  O18  1  0.00625333  0.25000000  0.36065063  1
  O  O19  1  0.00625333  0.75000000  0.13934937  1
  O  O20  1  0.50771397  0.99552295  0.36294151  1
  O  O21  1  0.50771397  0.00447705  0.13705849  1
  O  O22  1  0.49228603  0.49552295  0.63705849  1
  O  O23  1  0.49228603  0.50447705  0.86294151  1
  O  O24  1  0.50771397  0.49552295  0.13705849  1
  O  O25  1  0.50771397  0.50447705  0.36294151  1
  O  O26  1  0.49228603  0.99552295  0.86294151  1
  O  O27  1  0.49228603  0.00447705  0.63705849  1
