# generated using pymatgen
data_Na14Ca4Ga4Si5S7O48
_symmetry_space_group_name_H-M   'P 1'
_cell_length_a   18.46008857
_cell_length_b   9.12571551
_cell_length_c   22.43778136
_cell_angle_alpha   89.81201316
_cell_angle_beta   89.65703350
_cell_angle_gamma   119.47440791
_symmetry_Int_Tables_number   1
_chemical_formula_structural   Na14Ca4Ga4Si5S7O48
_chemical_formula_sum   'Na42 Ca12 Ga12 Si15 S21 O144'
_cell_volume   3290.54776707
_cell_formula_units_Z   3
loop_
 _symmetry_equiv_pos_site_id
 _symmetry_equiv_pos_as_xyz
  1  'x, y, z'
loop_
 _atom_site_type_symbol
 _atom_site_label
 _atom_site_symmetry_multiplicity
 _atom_site_fract_x
 _atom_site_fract_y
 _atom_site_fract_z
 _atom_site_occupancy
  Na  Na0  1  0.80862814  0.00029075  0.24489895  1
  Na  Na1  1  0.18581322  0.35911187  0.25327556  1
  Na  Na2  1  0.67841235  0.35033286  0.25121553  1
  Na  Na3  1  0.00909847  0.64867329  0.24544414  1
  Na  Na4  1  0.50235265  0.64364150  0.23509936  1
  Na  Na5  1  0.32001087  0.61925115  0.74842113  1
  Na  Na6  1  0.00252706  0.36086207  0.73556777  1
  Na  Na7  1  0.50600121  0.37390356  0.74425229  1
  Na  Na8  1  0.18333686  0.01261159  0.75049475  1
  Na  Na9  1  0.67840337  0.00156037  0.75322355  1
  Na  Na10  1  0.14989961  0.32505498  0.58318041  1
  Na  Na11  1  0.65415802  0.32526886  0.58066396  1
  Na  Na12  1  0.32518000  0.97044783  0.59196809  1
  Na  Na13  1  0.83419013  0.98119985  0.58868281  1
  Na  Na14  1  0.15840619  0.98689734  0.07193915  1
  Na  Na15  1  0.64901660  0.97018801  0.07534142  1
  Na  Na16  1  0.33618677  0.68810885  0.08441481  1
  Na  Na17  1  0.82129293  0.67710453  0.08249171  1
  Na  Na18  1  0.48290183  0.67519521  0.91763082  1
  Na  Na19  1  0.98767018  0.67638608  0.91628842  1
  Na  Na20  1  0.34263703  0.03474180  0.91197128  1
  Na  Na21  1  0.84270216  0.02193443  0.91208794  1
  Na  Na22  1  0.16841336  0.27494730  0.91503968  1
  Na  Na23  1  0.66760119  0.27373529  0.91626313  1
  Na  Na24  1  0.48948597  0.30265082  0.42065129  1
  Na  Na25  1  0.98520426  0.29667376  0.43236378  1
  Na  Na26  1  0.16768847  0.06380553  0.42129783  1
  Na  Na27  1  0.66671391  0.05774316  0.42016684  1
  Na  Na28  1  0.34702305  0.66280952  0.41819682  1
  Na  Na29  1  0.84075592  0.65271755  0.41857836  1
  Na  Na30  1  0.00928824  0.01317411  0.50915320  1
  Na  Na31  1  0.51314865  0.00343219  0.50905057  1
  Na  Na32  1  0.01210664  0.02420930  0.00433292  1
  Na  Na33  1  0.51094962  0.00546917  0.00435244  1
  Na  Na34  1  0.32776082  0.33341800  0.82622536  1
  Na  Na35  1  0.81687147  0.32905854  0.82510562  1
  Na  Na36  1  0.32060486  0.30975949  0.32657387  1
  Na  Na37  1  0.81198059  0.31569442  0.33509524  1
  Na  Na38  1  0.17208200  0.67224439  0.16497196  1
  Na  Na39  1  0.65560658  0.65015606  0.16085918  1
  Na  Na40  1  0.15738169  0.66069479  0.66309831  1
  Na  Na41  1  0.66475038  0.67073246  0.66913923  1
  Ca  Ca42  1  0.01369705  0.01934618  0.34993204  1
  Ca  Ca43  1  0.50656217  0.01315448  0.34936199  1
  Ca  Ca44  1  0.00522227  0.99843470  0.84900467  1
  Ca  Ca45  1  0.51277680  0.00279625  0.84723852  1
  Ca  Ca46  1  0.33029250  0.32643448  0.67708738  1
  Ca  Ca47  1  0.82504114  0.33421421  0.17445867  1
  Ca  Ca48  1  0.33064816  0.33299556  0.99092934  1
  Ca  Ca49  1  0.82471585  0.31794107  0.98652681  1
  Ca  Ca50  1  0.32380813  0.32982122  0.48804225  1
  Ca  Ca51  1  0.83053300  0.32872581  0.49238660  1
  Ca  Ca52  1  0.66388289  0.66416088  0.31335863  1
  Ca  Ca53  1  0.16466618  0.66423915  0.81240096  1
  Ga  Ga54  1  0.01525010  0.01904277  0.64864876  1
  Ga  Ga55  1  0.53243486  0.01502566  0.66335971  1
  Ga  Ga56  1  0.01938126  0.01168720  0.15466751  1
  Ga  Ga57  1  0.51654162  0.01285479  0.14698204  1
  Ga  Ga58  1  0.82296437  0.30838619  0.67320699  1
  Ga  Ga59  1  0.32323961  0.33217673  0.17259606  1
  Ga  Ga60  1  0.16394776  0.65390336  0.01504250  1
  Ga  Ga61  1  0.64020772  0.64550627  0.02333277  1
  Ga  Ga62  1  0.14432004  0.63504032  0.52603527  1
  Ga  Ga63  1  0.66161502  0.66432309  0.51819336  1
  Ga  Ga64  1  0.17778686  0.69153873  0.31665142  1
  Ga  Ga65  1  0.66400059  0.66757510  0.80987869  1
  Si  Si66  1  0.16032366  0.00362026  0.24880607  1
  Si  Si67  1  0.65179773  0.00112149  0.25013698  1
  Si  Si68  1  0.15018335  0.30285002  0.75014200  1
  Si  Si69  1  0.66268274  0.31849165  0.74887735  1
  Si  Si70  1  0.50043474  0.69244217  0.75546179  1
  Si  Si71  1  0.97882816  0.32108700  0.58705374  1
  Si  Si72  1  0.17313377  0.00566706  0.58086982  1
  Si  Si73  1  0.67800981  0.01459405  0.58108476  1
  Si  Si74  1  0.47804658  0.63485272  0.08727337  1
  Si  Si75  1  0.17708009  0.33871699  0.08333924  1
  Si  Si76  1  0.67242399  0.34136616  0.08173427  1
  Si  Si77  1  0.16728151  0.95644305  0.92077337  1
  Si  Si78  1  0.66794286  0.94061184  0.91803543  1
  Si  Si79  1  0.16750985  0.39821120  0.41612775  1
  Si  Si80  1  0.66774973  0.37731682  0.41973293  1
  S  S81  1  0.34724912  0.69737990  0.25048607  1
  S  S82  1  0.86007415  0.71707383  0.24729504  1
  S  S83  1  0.00108927  0.29807597  0.24798047  1
  S  S84  1  0.49203003  0.28976066  0.24613215  1
  S  S85  1  0.99255442  0.69565974  0.74581905  1
  S  S86  1  0.35740965  0.99947423  0.74764592  1
  S  S87  1  0.84900224  0.00069964  0.74931894  1
  S  S88  1  0.49044823  0.33315153  0.58089260  1
  S  S89  1  0.33489206  0.65425625  0.58151670  1
  S  S90  1  0.83347361  0.63819099  0.58418553  1
  S  S91  1  0.98998316  0.64919654  0.08501403  1
  S  S92  1  0.33457623  0.03035934  0.08571018  1
  S  S93  1  0.83966272  0.02101769  0.08551741  1
  S  S94  1  0.31403076  0.67112606  0.91933772  1
  S  S95  1  0.80908834  0.66419100  0.91633934  1
  S  S96  1  0.01872392  0.37193517  0.92015629  1
  S  S97  1  0.52201549  0.37785609  0.91514745  1
  S  S98  1  0.31034585  0.95739682  0.41652354  1
  S  S99  1  0.81494937  0.96069510  0.41715661  1
  S  S100  1  0.02319996  0.66478593  0.41432985  1
  S  S101  1  0.51764244  0.66436915  0.41964608  1
  O  O102  1  0.12929530  0.05506143  0.30888733  1
  O  O103  1  0.61539432  0.02066414  0.31380403  1
  O  O104  1  0.39282703  0.77366121  0.30626143  1
  O  O105  1  0.90336963  0.79691286  0.30321508  1
  O  O106  1  0.48467191  0.21091998  0.30558047  1
  O  O107  1  0.98621957  0.20671785  0.30481243  1
  O  O108  1  0.11251679  0.21114213  0.81394365  1
  O  O109  1  0.63184827  0.20222689  0.80859577  1
  O  O110  1  0.47763959  0.75321074  0.81669670  1
  O  O111  1  0.98464336  0.75878820  0.80521961  1
  O  O112  1  0.40046965  0.01080435  0.80451520  1
  O  O113  1  0.89508610  0.01864179  0.80521481  1
  O  O114  1  0.40562598  0.99136019  0.69508224  1
  O  O115  1  0.89247024  0.98437290  0.69658359  1
  O  O116  1  0.08672866  0.19327047  0.69520581  1
  O  O117  1  0.59418861  0.23036991  0.69295522  1
  O  O118  1  0.99742972  0.81157380  0.69742897  1
  O  O119  1  0.51711235  0.83002537  0.70123598  1
  O  O120  1  0.38950989  0.79844560  0.19740927  1
  O  O121  1  0.90642200  0.82485107  0.19404921  1
  O  O122  1  0.00943098  0.19743980  0.19835079  1
  O  O123  1  0.49808637  0.18576512  0.19791250  1
  O  O124  1  0.08903924  0.94997751  0.19497057  1
  O  O125  1  0.58876530  0.98653675  0.19545817  1
  O  O126  1  0.45041092  0.35260149  0.63477622  1
  O  O127  1  0.92564394  0.34470641  0.64244359  1
  O  O128  1  0.23584860  0.08030601  0.63746297  1
  O  O129  1  0.74376469  0.10307051  0.63717299  1
  O  O130  1  0.32515938  0.54686172  0.63405698  1
  O  O131  1  0.81929885  0.51053370  0.63109356  1
  O  O132  1  0.42625268  0.50739310  0.14430409  1
  O  O133  1  0.95119432  0.55238196  0.13982865  1
  O  O134  1  0.31957182  0.12752789  0.13313271  1
  O  O135  1  0.83074643  0.10755423  0.13886116  1
  O  O136  1  0.24218784  0.38212105  0.14010877  1
  O  O137  1  0.73157140  0.39301112  0.14078193  1
  O  O138  1  0.20821537  0.28495304  0.02448131  1
  O  O139  1  0.71221000  0.29048032  0.02583746  1
  O  O140  1  0.42938362  0.57473588  0.02524150  1
  O  O141  1  0.93894439  0.56673176  0.03191236  1
  O  O142  1  0.34801282  0.11521811  0.02753299  1
  O  O143  1  0.85312783  0.12431921  0.03120876  1
  O  O144  1  0.20777131  0.12822663  0.52199840  1
  O  O145  1  0.70904504  0.12485399  0.52079063  1
  O  O146  1  0.34773017  0.57893721  0.52647827  1
  O  O147  1  0.84820600  0.58328783  0.52554376  1
  O  O148  1  0.44160609  0.31995929  0.52662560  1
  O  O149  1  0.93235171  0.28955489  0.52402748  1
  O  O150  1  0.26785574  0.67499047  0.97444910  1
  O  O151  1  0.77010058  0.67564797  0.97232449  1
  O  O152  1  0.07560795  0.45640804  0.97151196  1
  O  O153  1  0.57359750  0.45905077  0.96845430  1
  O  O154  1  0.16114267  0.83287116  0.97981780  1
  O  O155  1  0.66237391  0.83295283  0.97971388  1
  O  O156  1  0.26855451  0.86106056  0.46994824  1
  O  O157  1  0.76925313  0.86087712  0.47112975  1
  O  O158  1  0.16030100  0.49435965  0.47611062  1
  O  O159  1  0.66255883  0.49192437  0.47686169  1
  O  O160  1  0.07448780  0.68387616  0.46687857  1
  O  O161  1  0.57457378  0.69029378  0.47034735  1
  O  O162  1  0.06459193  0.65594110  0.35766261  1
  O  O163  1  0.55409488  0.65091044  0.36261295  1
  O  O164  1  0.25884175  0.88494964  0.36128042  1
  O  O165  1  0.76854416  0.88422936  0.36199639  1
  O  O166  1  0.17431310  0.50962313  0.35466656  1
  O  O167  1  0.67568013  0.46827805  0.35589529  1
  O  O168  1  0.05565018  0.45981316  0.86373240  1
  O  O169  1  0.56353414  0.47121964  0.85950032  1
  O  O170  1  0.17385527  0.87609458  0.85836045  1
  O  O171  1  0.67768461  0.84407365  0.85876333  1
  O  O172  1  0.26608098  0.65454977  0.86521780  1
  O  O173  1  0.75692400  0.64082523  0.86323870  1
  O  O174  1  0.01073776  0.81448134  0.41329941  1
  O  O175  1  0.50266052  0.81040530  0.41980150  1
  O  O176  1  0.39207962  0.96332524  0.41049538  1
  O  O177  1  0.89738014  0.96648177  0.41650820  1
  O  O178  1  0.08402227  0.21135265  0.41883245  1
  O  O179  1  0.58109458  0.19442875  0.42620968  1
  O  O180  1  0.00309142  0.19560645  0.92022348  1
  O  O181  1  0.51004479  0.20429171  0.91420832  1
  O  O182  1  0.08053259  0.96683954  0.92684583  1
  O  O183  1  0.58550165  0.96409928  0.92173696  1
  O  O184  1  0.39473713  0.83129516  0.91988464  1
  O  O185  1  0.89225513  0.82123515  0.91175461  1
  O  O186  1  0.49712938  0.17710024  0.58439164  1
  O  O187  1  0.98567930  0.14620101  0.59576430  1
  O  O188  1  0.08097978  0.99206955  0.59117285  1
  O  O189  1  0.58841171  0.01151383  0.59457745  1
  O  O190  1  0.40539212  0.82770685  0.58733767  1
  O  O191  1  0.90307041  0.80796721  0.59631340  1
  O  O192  1  0.48649957  0.82492195  0.09667966  1
  O  O193  1  0.99521002  0.82056412  0.08836808  1
  O  O194  1  0.40490424  0.00126553  0.09806711  1
  O  O195  1  0.91142208  0.98925159  0.09156686  1
  O  O196  1  0.08568895  0.16660937  0.09721763  1
  O  O197  1  0.58042193  0.17083122  0.08995283  1
  O  O198  1  0.34699019  0.15038518  0.74493266  1
  O  O199  1  0.84169951  0.15918055  0.74545030  1
  O  O200  1  0.24172608  0.31665612  0.74590558  1
  O  O201  1  0.75108601  0.32076584  0.73150158  1
  O  O202  1  0.42441409  0.50492592  0.74309154  1
  O  O203  1  0.92208343  0.52242619  0.73995396  1
  O  O204  1  0.33929682  0.52429082  0.24775102  1
  O  O205  1  0.85542719  0.54993872  0.24466860  1
  O  O206  1  0.42049907  0.32037296  0.24053614  1
  O  O207  1  0.92993356  0.32764282  0.23884740  1
  O  O208  1  0.24912868  0.17557945  0.23188294  1
  O  O209  1  0.74496474  0.16953076  0.24656619  1
  O  O210  1  0.32702984  0.52326277  0.92103356  1
  O  O211  1  0.82563101  0.51792594  0.91752023  1
  O  O212  1  0.43946669  0.36816893  0.91897884  1
  O  O213  1  0.93856464  0.37040509  0.92736121  1
  O  O214  1  0.25140890  0.14222407  0.92237119  1
  O  O215  1  0.75254553  0.12761446  0.91572501  1
  O  O216  1  0.32581093  0.13495757  0.41768553  1
  O  O217  1  0.82802090  0.13497006  0.41885657  1
  O  O218  1  0.25152880  0.37882527  0.41375254  1
  O  O219  1  0.75229277  0.36012450  0.42191709  1
  O  O220  1  0.43657223  0.50698766  0.42594547  1
  O  O221  1  0.94022384  0.51039938  0.41701961  1
  O  O222  1  0.17344204  0.51814950  0.07524186  1
  O  O223  1  0.67000349  0.51840745  0.06994114  1
  O  O224  1  0.07594029  0.67443139  0.08058067  1
  O  O225  1  0.57462298  0.66727197  0.08523054  1
  O  O226  1  0.25575375  0.86073120  0.08496585  1
  O  O227  1  0.76134521  0.85651207  0.08179370  1
  O  O228  1  0.16991796  0.82280901  0.56997063  1
  O  O229  1  0.67397496  0.82792817  0.57434042  1
  O  O230  1  0.25530929  0.66022571  0.57810863  1
  O  O231  1  0.75392097  0.64872292  0.58297580  1
  O  O232  1  0.07566180  0.48017025  0.58600214  1
  O  O233  1  0.57686293  0.48319047  0.57788874  1
  O  O234  1  0.16069411  0.81996321  0.25727163  1
  O  O235  1  0.65956994  0.83061327  0.24232017  1
  O  O236  1  0.25999076  0.67295417  0.25273206  1
  O  O237  1  0.77534120  0.69683041  0.24575868  1
  O  O238  1  0.08013141  0.46443503  0.24821577  1
  O  O239  1  0.57125785  0.45730330  0.24404131  1
  O  O240  1  0.15725298  0.48775401  0.74201281  1
  O  O241  1  0.66440734  0.50058802  0.75709214  1
  O  O242  1  0.07248135  0.68934142  0.74363487  1
  O  O243  1  0.59074307  0.69046963  0.75475296  1
  O  O244  1  0.27362547  0.84552558  0.74630057  1
  O  O245  1  0.76292681  0.85348496  0.75147203  1
