# generated using pymatgen
data_Cd7(P2Cl3)2
_symmetry_space_group_name_H-M   'P 1'
_cell_length_a   12.00336537
_cell_length_b   12.00336537
_cell_length_c   12.00336537
_cell_angle_alpha   90.00000000
_cell_angle_beta   90.00000000
_cell_angle_gamma   90.00000000
_symmetry_Int_Tables_number   1
_chemical_formula_structural   Cd7(P2Cl3)2
_chemical_formula_sum   'Cd28 P16 Cl24'
_cell_volume   1729.45424760
_cell_formula_units_Z   4
loop_
 _symmetry_equiv_pos_site_id
 _symmetry_equiv_pos_as_xyz
  1  'x, y, z'
loop_
 _atom_site_type_symbol
 _atom_site_label
 _atom_site_symmetry_multiplicity
 _atom_site_fract_x
 _atom_site_fract_y
 _atom_site_fract_z
 _atom_site_occupancy
  Cd  Cd0  1  0.00000000  0.50000000  0.50000000  1
  Cd  Cd1  1  0.50000000  0.50000000  0.00000000  1
  Cd  Cd2  1  0.50000000  -0.00000000  0.50000000  1
  Cd  Cd3  1  0.00000000  -0.00000000  0.00000000  1
  Cd  Cd4  1  0.01505260  0.27482256  0.23266930  1
  Cd  Cd5  1  0.51505260  0.22517744  0.76733070  1
  Cd  Cd6  1  0.98494740  0.77482256  0.26733070  1
  Cd  Cd7  1  0.22517744  0.76733070  0.51505260  1
  Cd  Cd8  1  0.26733070  0.98494740  0.77482256  1
  Cd  Cd9  1  0.76733070  0.51505260  0.22517744  1
  Cd  Cd10  1  0.27482256  0.23266930  0.01505260  1
  Cd  Cd11  1  0.23266930  0.01505260  0.27482256  1
  Cd  Cd12  1  0.77482256  0.26733070  0.98494740  1
  Cd  Cd13  1  0.72517744  0.73266930  0.48494740  1
  Cd  Cd14  1  0.73266930  0.48494740  0.72517744  1
  Cd  Cd15  1  0.48494740  0.72517744  0.73266930  1
  Cd  Cd16  1  0.98494740  0.72517744  0.76733070  1
  Cd  Cd17  1  0.48494740  0.77482256  0.23266930  1
  Cd  Cd18  1  0.01505260  0.22517744  0.73266930  1
  Cd  Cd19  1  0.77482256  0.23266930  0.48494740  1
  Cd  Cd20  1  0.73266930  0.01505260  0.22517744  1
  Cd  Cd21  1  0.23266930  0.48494740  0.77482256  1
  Cd  Cd22  1  0.72517744  0.76733070  0.98494740  1
  Cd  Cd23  1  0.76733070  0.98494740  0.72517744  1
  Cd  Cd24  1  0.22517744  0.73266930  0.01505260  1
  Cd  Cd25  1  0.27482256  0.26733070  0.51505260  1
  Cd  Cd26  1  0.26733070  0.51505260  0.27482256  1
  Cd  Cd27  1  0.51505260  0.27482256  0.26733070  1
  P  P28  1  0.21301300  0.28698700  0.71301300  1
  P  P29  1  0.28698700  0.71301300  0.21301300  1
  P  P30  1  0.71301300  0.21301300  0.28698700  1
  P  P31  1  0.78698700  0.78698700  0.78698700  1
  P  P32  1  0.78698700  0.71301300  0.28698700  1
  P  P33  1  0.71301300  0.28698700  0.78698700  1
  P  P34  1  0.28698700  0.78698700  0.71301300  1
  P  P35  1  0.21301300  0.21301300  0.21301300  1
  P  P36  1  0.31772558  0.18227442  0.81772558  1
  P  P37  1  0.18227442  0.81772558  0.31772558  1
  P  P38  1  0.81772558  0.31772558  0.18227442  1
  P  P39  1  0.68227442  0.68227442  0.68227442  1
  P  P40  1  0.68227442  0.81772558  0.18227442  1
  P  P41  1  0.81772558  0.18227442  0.68227442  1
  P  P42  1  0.18227442  0.68227442  0.81772558  1
  P  P43  1  0.31772558  0.31772558  0.31772558  1
  Cl  Cl44  1  0.96228948  0.02125091  0.21827399  1
  Cl  Cl45  1  0.46228948  0.47874909  0.78172601  1
  Cl  Cl46  1  0.03771052  0.52125091  0.28172601  1
  Cl  Cl47  1  0.47874909  0.78172601  0.46228948  1
  Cl  Cl48  1  0.28172601  0.03771052  0.52125091  1
  Cl  Cl49  1  0.78172601  0.46228948  0.47874909  1
  Cl  Cl50  1  0.02125091  0.21827399  0.96228948  1
  Cl  Cl51  1  0.21827399  0.96228948  0.02125091  1
  Cl  Cl52  1  0.52125091  0.28172601  0.03771052  1
  Cl  Cl53  1  0.97874909  0.71827399  0.53771052  1
  Cl  Cl54  1  0.71827399  0.53771052  0.97874909  1
  Cl  Cl55  1  0.53771052  0.97874909  0.71827399  1
  Cl  Cl56  1  0.03771052  0.97874909  0.78172601  1
  Cl  Cl57  1  0.53771052  0.52125091  0.21827399  1
  Cl  Cl58  1  0.96228948  0.47874909  0.71827399  1
  Cl  Cl59  1  0.52125091  0.21827399  0.53771052  1
  Cl  Cl60  1  0.71827399  0.96228948  0.47874909  1
  Cl  Cl61  1  0.21827399  0.53771052  0.52125091  1
  Cl  Cl62  1  0.97874909  0.78172601  0.03771052  1
  Cl  Cl63  1  0.78172601  0.03771052  0.97874909  1
  Cl  Cl64  1  0.47874909  0.71827399  0.96228948  1
  Cl  Cl65  1  0.02125091  0.28172601  0.46228948  1
  Cl  Cl66  1  0.28172601  0.46228948  0.02125091  1
  Cl  Cl67  1  0.46228948  0.02125091  0.28172601  1
