# generated using pymatgen
data_Na3LaHfSi(PO6)2
_symmetry_space_group_name_H-M   'P 1'
_cell_length_a   16.29018314
_cell_length_b   9.46182695
_cell_length_c   9.38752209
_cell_angle_alpha   90.00000000
_cell_angle_beta   125.40646200
_cell_angle_gamma   90.00000000
_symmetry_Int_Tables_number   1
_chemical_formula_structural   Na3LaHfSi(PO6)2
_chemical_formula_sum   'Na12 La4 Hf4 Si4 P8 O48'
_cell_volume   1179.35031929
_cell_formula_units_Z   4
loop_
 _symmetry_equiv_pos_site_id
 _symmetry_equiv_pos_as_xyz
  1  'x, y, z'
loop_
 _atom_site_type_symbol
 _atom_site_label
 _atom_site_symmetry_multiplicity
 _atom_site_fract_x
 _atom_site_fract_y
 _atom_site_fract_z
 _atom_site_occupancy
  Na  Na0  1  0.25582109  0.71600808  0.01096065  1
  Na  Na1  1  0.75582109  0.78399192  0.51096065  1
  Na  Na2  1  0.75582109  0.21600808  0.01096065  1
  Na  Na3  1  0.25582109  0.28399192  0.51096065  1
  Na  Na4  1  0.50907824  0.08715804  0.75773759  1
  Na  Na5  1  0.50907824  0.91284196  0.25773759  1
  Na  Na6  1  0.00907824  0.58715804  0.75773759  1
  Na  Na7  1  0.00907824  0.41284196  0.25773759  1
  Na  Na8  1  0.18424296  0.92582890  0.30454864  1
  Na  Na9  1  0.18424296  0.07417110  0.80454864  1
  Na  Na10  1  0.68424296  0.42582890  0.30454864  1
  Na  Na11  1  0.68424296  0.57417110  0.80454864  1
  La  La12  1  0.10767236  0.74489304  0.56818740  1
  La  La13  1  0.10767236  0.25510696  0.06818740  1
  La  La14  1  0.60767236  0.24489304  0.56818740  1
  La  La15  1  0.60767236  0.75510696  0.06818740  1
  Hf  Hf16  1  0.89770940  0.75904034  0.94090544  1
  Hf  Hf17  1  0.89770940  0.24095966  0.44090544  1
  Hf  Hf18  1  0.39770940  0.25904034  0.94090544  1
  Hf  Hf19  1  0.39770940  0.74095966  0.44090544  1
  Si  Si20  1  0.65026237  0.87963665  0.73951026  1
  Si  Si21  1  0.65026237  0.12036335  0.23951026  1
  Si  Si22  1  0.15026237  0.37963665  0.73951026  1
  Si  Si23  1  0.15026237  0.62036335  0.23951026  1
  P  P24  1  0.98874351  0.95639211  0.75351585  1
  P  P25  1  0.98874351  0.04360789  0.25351585  1
  P  P26  1  0.48874351  0.45639211  0.75351585  1
  P  P27  1  0.48874351  0.54360789  0.25351585  1
  P  P28  1  0.35404149  0.92561484  0.74816482  1
  P  P29  1  0.35404149  0.07438516  0.24816482  1
  P  P30  1  0.85404149  0.42561484  0.74816482  1
  P  P31  1  0.85404149  0.57438516  0.24816482  1
  O  O32  1  0.15779051  0.55127919  0.75968528  1
  O  O33  1  0.85727651  0.59214473  0.74466825  1
  O  O34  1  0.85727651  0.40785527  0.24466825  1
  O  O35  1  0.15779051  0.44872081  0.25968528  1
  O  O36  1  0.65779051  0.05127919  0.75968528  1
  O  O37  1  0.35727651  0.09214473  0.74466825  1
  O  O38  1  0.35727651  0.90785527  0.24466825  1
  O  O39  1  0.65779051  0.94872081  0.25968528  1
  O  O40  1  0.43334507  0.56394331  0.59519272  1
  O  O41  1  0.55299552  0.53664793  0.92518588  1
  O  O42  1  0.55299552  0.46335207  0.42518588  1
  O  O43  1  0.43334507  0.43605669  0.09519272  1
  O  O44  1  0.93334507  0.06394331  0.59519272  1
  O  O45  1  0.05299552  0.03664793  0.92518588  1
  O  O46  1  0.05299552  0.96335207  0.42518588  1
  O  O47  1  0.93334507  0.93605669  0.09519272  1
  O  O48  1  0.26190812  0.88401540  0.74532187  1
  O  O49  1  0.74572889  0.80299730  0.75201675  1
  O  O50  1  0.74572889  0.19700270  0.25201675  1
  O  O51  1  0.26190812  0.11598460  0.24532187  1
  O  O52  1  0.76190812  0.38401540  0.74532187  1
  O  O53  1  0.24572889  0.30299730  0.75201675  1
  O  O54  1  0.24572889  0.69700270  0.25201675  1
  O  O55  1  0.76190812  0.61598460  0.24532187  1
  O  O56  1  0.35198691  0.87158202  0.58489510  1
  O  O57  1  0.65262822  0.81243686  0.89985005  1
  O  O58  1  0.65262822  0.18756314  0.39985005  1
  O  O59  1  0.35198691  0.12841798  0.08489510  1
  O  O60  1  0.85198691  0.37158202  0.58489510  1
  O  O61  1  0.15262822  0.31243686  0.89985005  1
  O  O62  1  0.15262822  0.68756314  0.39985005  1
  O  O63  1  0.85198691  0.62841798  0.08489510  1
  O  O64  1  0.45091861  0.87393287  0.91719140  1
  O  O65  1  0.53979584  0.82424615  0.55997004  1
  O  O66  1  0.53979584  0.17575385  0.05997004  1
  O  O67  1  0.45091861  0.12606713  0.41719140  1
  O  O68  1  0.95091861  0.37393287  0.91719140  1
  O  O69  1  0.03979584  0.32424615  0.55997004  1
  O  O70  1  0.03979584  0.67575385  0.05997004  1
  O  O71  1  0.95091861  0.62606713  0.41719140  1
  O  O72  1  0.05892112  0.85660888  0.73901145  1
  O  O73  1  0.90913326  0.86502479  0.75348055  1
  O  O74  1  0.90913326  0.13497521  0.25348055  1
  O  O75  1  0.05892112  0.14339112  0.23901145  1
  O  O76  1  0.55892112  0.35660888  0.73901145  1
  O  O77  1  0.40913326  0.36502479  0.75348055  1
  O  O78  1  0.40913326  0.63497521  0.25348055  1
  O  O79  1  0.55892112  0.64339112  0.23901145  1
