# generated using pymatgen
data_CaHI
_symmetry_space_group_name_H-M   'P 1'
_cell_length_a   4.02334212
_cell_length_b   4.02334212
_cell_length_c   9.34312645
_cell_angle_alpha   90.00000000
_cell_angle_beta   90.00000000
_cell_angle_gamma   90.00000000
_symmetry_Int_Tables_number   1
_chemical_formula_structural   CaHI
_chemical_formula_sum   'Ca2 H2 I2'
_cell_volume   151.23982088
_cell_formula_units_Z   2
loop_
 _symmetry_equiv_pos_site_id
 _symmetry_equiv_pos_as_xyz
  1  'x, y, z'
loop_
 _atom_site_type_symbol
 _atom_site_label
 _atom_site_symmetry_multiplicity
 _atom_site_fract_x
 _atom_site_fract_y
 _atom_site_fract_z
 _atom_site_occupancy
  Ca  Ca0  1  -0.00000000  0.50000000  0.13019281  1
  Ca  Ca1  1  0.50000000  0.00000000  0.86980719  1
  H  H2  1  0.50000000  0.50000000  0.00000000  1
  H  H3  1  -0.00000000  0.00000000  0.00000000  1
  I  I4  1  0.00000000  0.50000000  0.69979029  1
  I  I5  1  0.50000000  -0.00000000  0.30020971  1
