# generated using pymatgen
data_Na2Zn2Si3Ge6(S3O16)3
_symmetry_space_group_name_H-M   'P 1'
_cell_length_a   16.97212230
_cell_length_b   8.49189250
_cell_length_c   22.08479704
_cell_angle_alpha   90.10891294
_cell_angle_beta   89.27193187
_cell_angle_gamma   120.09402101
_symmetry_Int_Tables_number   1
_chemical_formula_structural   Na2Zn2Si3Ge6(S3O16)3
_chemical_formula_sum   'Na6 Zn6 Si9 Ge18 S27 O144'
_cell_volume   2753.66803602
_cell_formula_units_Z   3
loop_
 _symmetry_equiv_pos_site_id
 _symmetry_equiv_pos_as_xyz
  1  'x, y, z'
loop_
 _atom_site_type_symbol
 _atom_site_label
 _atom_site_symmetry_multiplicity
 _atom_site_fract_x
 _atom_site_fract_y
 _atom_site_fract_z
 _atom_site_occupancy
  Na  Na0  1  0.00128028  0.99412467  0.49677438  1
  Na  Na1  1  0.50008472  0.00773501  0.99921859  1
  Na  Na2  1  0.33166693  0.32809454  0.83561474  1
  Na  Na3  1  0.83415836  0.33401579  0.83517523  1
  Na  Na4  1  0.32747939  0.32540947  0.33250794  1
  Na  Na5  1  0.83267931  0.33637789  0.33418117  1
  Zn  Zn6  1  0.00701419  0.98903893  0.35306932  1
  Zn  Zn7  1  0.50027707  0.01227070  0.85533380  1
  Zn  Zn8  1  0.00342525  0.01152689  0.65140436  1
  Zn  Zn9  1  0.50267012  0.99414682  0.15255340  1
  Zn  Zn10  1  0.83610572  0.33352603  0.98291008  1
  Zn  Zn11  1  0.33461969  0.33520034  0.47977296  1
  Si  Si12  1  0.14758829  0.00152785  0.25045353  1
  Si  Si13  1  0.64540755  0.99207869  0.24886161  1
  Si  Si14  1  0.14567752  0.29930644  0.74906369  1
  Si  Si15  1  0.69035813  0.04157324  0.58145401  1
  Si  Si16  1  0.18925396  0.33831616  0.08087936  1
  Si  Si17  1  0.52175979  0.38040510  0.91989649  1
  Si  Si18  1  0.16441283  0.94121193  0.91712183  1
  Si  Si19  1  0.66277549  0.38532298  0.41644780  1
  Si  Si20  1  0.02051157  0.66278225  0.41968444  1
  Ge  Ge21  1  0.51246400  0.02024023  0.35353601  1
  Ge  Ge22  1  0.01427029  0.00763926  0.85601937  1
  Ge  Ge23  1  0.50496576  0.00207629  0.64386776  1
  Ge  Ge24  1  0.01405293  0.00807488  0.14707005  1
  Ge  Ge25  1  0.32440837  0.32590639  0.68435574  1
  Ge  Ge26  1  0.83237434  0.32412628  0.67956979  1
  Ge  Ge27  1  0.32388134  0.33541916  0.18448605  1
  Ge  Ge28  1  0.82732235  0.32359009  0.18627379  1
  Ge  Ge29  1  0.32571877  0.31159445  0.97668786  1
  Ge  Ge30  1  0.82426098  0.33667881  0.47449329  1
  Ge  Ge31  1  0.16517466  0.66869130  0.02384775  1
  Ge  Ge32  1  0.66342396  0.65711875  0.02281927  1
  Ge  Ge33  1  0.16514401  0.67181790  0.51718019  1
  Ge  Ge34  1  0.66486074  0.66819409  0.51955449  1
  Ge  Ge35  1  0.15599598  0.66755365  0.31077830  1
  Ge  Ge36  1  0.66901671  0.66617974  0.31104377  1
  Ge  Ge37  1  0.16782869  0.66660535  0.81380748  1
  Ge  Ge38  1  0.66095865  0.66253944  0.81609171  1
  S  S39  1  0.35302566  0.71032120  0.25300865  1
  S  S40  1  0.85510404  0.70987404  0.24674752  1
  S  S41  1  0.99934743  0.28959915  0.24918409  1
  S  S42  1  0.49948006  0.29461189  0.25005054  1
  S  S43  1  0.64844536  0.29641563  0.74900217  1
  S  S44  1  0.99799714  0.70246108  0.74981122  1
  S  S45  1  0.50105953  0.70904039  0.74939402  1
  S  S46  1  0.35595584  0.00191406  0.74694508  1
  S  S47  1  0.85126681  0.99576664  0.75282296  1
  S  S48  1  0.47725385  0.33150745  0.58543392  1
  S  S49  1  0.97910781  0.33637471  0.58053890  1
  S  S50  1  0.18813108  0.03655673  0.58125418  1
  S  S51  1  0.33221547  0.62876571  0.58356070  1
  S  S52  1  0.83304426  0.62346537  0.58258403  1
  S  S53  1  0.47656091  0.61779526  0.08181702  1
  S  S54  1  0.97645906  0.62404577  0.08480118  1
  S  S55  1  0.33389494  0.04407916  0.08268486  1
  S  S56  1  0.83361300  0.03507055  0.08358965  1
  S  S57  1  0.68856092  0.33793927  0.08183367  1
  S  S58  1  0.30976943  0.66459778  0.91809647  1
  S  S59  1  0.81229526  0.67364726  0.91445849  1
  S  S60  1  0.02113426  0.37354385  0.91584502  1
  S  S61  1  0.66830145  0.95265385  0.91766387  1
  S  S62  1  0.31272158  0.95089749  0.41426879  1
  S  S63  1  0.81074406  0.95500826  0.41723232  1
  S  S64  1  0.16765465  0.38655326  0.41630089  1
  S  S65  1  0.52178460  0.66972270  0.41525091  1
  O  O66  1  0.11533774  0.06243323  0.30900788  1
  O  O67  1  0.60489519  0.04256796  0.31002800  1
  O  O68  1  0.41191427  0.79275096  0.30722182  1
  O  O69  1  0.90649194  0.77749475  0.30193172  1
  O  O70  1  0.47715128  0.17412573  0.30559170  1
  O  O71  1  0.97721359  0.17999178  0.30354893  1
  O  O72  1  0.10428982  0.16624762  0.80994731  1
  O  O73  1  0.61237595  0.18270680  0.80283569  1
  O  O74  1  0.48247883  0.78293117  0.80362011  1
  O  O75  1  0.97557627  0.77718197  0.80518181  1
  O  O76  1  0.41005607  0.03902730  0.80109443  1
  O  O77  1  0.90844630  0.03019981  0.80696054  1
  O  O78  1  0.39862906  0.96734208  0.69188353  1
  O  O79  1  0.88476416  0.95848760  0.69723706  1
  O  O80  1  0.08854815  0.22648273  0.68999644  1
  O  O81  1  0.59024256  0.21735532  0.69452750  1
  O  O82  1  0.01303450  0.80750226  0.69511337  1
  O  O83  1  0.51704103  0.82373961  0.69377098  1
  O  O84  1  0.38626828  0.81587426  0.19749646  1
  O  O85  1  0.89563913  0.82627680  0.19189913  1
  O  O86  1  0.01316794  0.20748776  0.19291359  1
  O  O87  1  0.51570219  0.21916626  0.19551901  1
  O  O88  1  0.08269324  0.95436973  0.19068905  1
  O  O89  1  0.58889551  0.95140170  0.18941824  1
  O  O90  1  0.43439837  0.36801072  0.64094409  1
  O  O91  1  0.94236014  0.37704192  0.63936072  1
  O  O92  1  0.24555413  0.11781109  0.63806230  1
  O  O93  1  0.75202143  0.12398370  0.64308896  1
  O  O94  1  0.31418050  0.51183626  0.63959078  1
  O  O95  1  0.81601575  0.50729222  0.63926327  1
  O  O96  1  0.43918727  0.50407188  0.13848372  1
  O  O97  1  0.93454094  0.50160097  0.13955753  1
  O  O98  1  0.31785914  0.12660473  0.13734323  1
  O  O99  1  0.81285638  0.11599111  0.13830477  1
  O  O100  1  0.25342115  0.38558892  0.14050250  1
  O  O101  1  0.74596265  0.37084301  0.13713638  1
  O  O102  1  0.23615032  0.29710283  0.02275917  1
  O  O103  1  0.72872730  0.30811743  0.02721156  1
  O  O104  1  0.42131353  0.52965009  0.02776752  1
  O  O105  1  0.92422365  0.55023553  0.03006945  1
  O  O106  1  0.35261267  0.15824934  0.02661367  1
  O  O107  1  0.85203275  0.14593601  0.02930410  1
  O  O108  1  0.23005846  0.15211930  0.52836394  1
  O  O109  1  0.73758688  0.17725247  0.52440544  1
  O  O110  1  0.35295021  0.55538749  0.53032361  1
  O  O111  1  0.85194893  0.54321190  0.52837600  1
  O  O112  1  0.42301573  0.29408271  0.53164118  1
  O  O113  1  0.92081574  0.31175623  0.52891714  1
  O  O114  1  0.26801810  0.69680904  0.97249235  1
  O  O115  1  0.77437978  0.70955827  0.97044055  1
  O  O116  1  0.07643582  0.44835629  0.97036656  1
  O  O117  1  0.59005066  0.47431469  0.97744748  1
  O  O118  1  0.14736183  0.81666813  0.97736626  1
  O  O119  1  0.65566215  0.84187790  0.97331123  1
  O  O120  1  0.27604533  0.84160749  0.47235377  1
  O  O121  1  0.76951727  0.84064946  0.47328154  1
  O  O122  1  0.15621284  0.47106146  0.47513323  1
  O  O123  1  0.64701330  0.47546242  0.47826039  1
  O  O124  1  0.08739823  0.70912150  0.47891573  1
  O  O125  1  0.57696304  0.70611614  0.47127965  1
  O  O126  1  0.06257668  0.61406479  0.35966655  1
  O  O127  1  0.56405015  0.63635824  0.36151821  1
  O  O128  1  0.25308096  0.86646631  0.36168966  1
  O  O129  1  0.75416065  0.87715740  0.36285376  1
  O  O130  1  0.18505279  0.50165546  0.36150625  1
  O  O131  1  0.68511309  0.51352349  0.35616153  1
  O  O132  1  0.06265917  0.48939702  0.86074186  1
  O  O133  1  0.56324771  0.50622297  0.85686150  1
  O  O134  1  0.18526045  0.85823064  0.85518540  1
  O  O135  1  0.68697113  0.87549507  0.86068163  1
  O  O136  1  0.25488681  0.63129732  0.86215602  1
  O  O137  1  0.75238297  0.63535119  0.85972952  1
  O  O138  1  0.00700583  0.83411384  0.41724958  1
  O  O139  1  0.51111310  0.83146767  0.40845605  1
  O  O140  1  0.40198900  0.96193541  0.40645458  1
  O  O141  1  0.90070789  0.97699162  0.41174259  1
  O  O142  1  0.08350006  0.21342327  0.41500586  1
  O  O143  1  0.57130011  0.18785260  0.40940050  1
  O  O144  1  0.01032376  0.18911290  0.90802451  1
  O  O145  1  0.51212392  0.18496252  0.91529042  1
  O  O146  1  0.07202267  0.95341722  0.91008519  1
  O  O147  1  0.58447157  0.95866756  0.91217010  1
  O  O148  1  0.40023773  0.82398065  0.91232992  1
  O  O149  1  0.90124602  0.84221924  0.90500248  1
  O  O150  1  0.48555869  0.16645738  0.59612847  1
  O  O151  1  0.98492879  0.17184601  0.58589812  1
  O  O152  1  0.09719699  0.00975295  0.58859745  1
  O  O153  1  0.59047363  0.02350922  0.59386472  1
  O  O154  1  0.41320671  0.81201565  0.59454965  1
  O  O155  1  0.91323863  0.80282292  0.58989516  1
  O  O156  1  0.48515439  0.79709189  0.08533195  1
  O  O157  1  0.98239461  0.80259781  0.09327658  1
  O  O158  1  0.41307665  0.02147727  0.08830452  1
  O  O159  1  0.91182646  0.01106727  0.09510697  1
  O  O160  1  0.08818060  0.16057671  0.09105833  1
  O  O161  1  0.59653637  0.18352164  0.08828925  1
  O  O162  1  0.34829680  0.16973601  0.73774643  1
  O  O163  1  0.84323417  0.16606816  0.74712924  1
  O  O164  1  0.24909611  0.31719659  0.74275590  1
  O  O165  1  0.74193291  0.31876237  0.73986509  1
  O  O166  1  0.42118563  0.52292188  0.73985538  1
  O  O167  1  0.91367387  0.51323899  0.74399633  1
  O  O168  1  0.34941050  0.52878565  0.24677418  1
  O  O169  1  0.84647292  0.52450480  0.23788820  1
  O  O170  1  0.41937775  0.32010694  0.24452836  1
  O  O171  1  0.92015697  0.32131870  0.23935554  1
  O  O172  1  0.25102021  0.17954884  0.23936943  1
  O  O173  1  0.74847941  0.18041427  0.24270685  1
  O  O174  1  0.31602208  0.49741381  0.92319485  1
  O  O175  1  0.82157877  0.51196907  0.91951610  1
  O  O176  1  0.42384240  0.37423272  0.92738108  1
  O  O177  1  0.93110606  0.35732888  0.92047422  1
  O  O178  1  0.25390764  0.14282960  0.92161226  1
  O  O179  1  0.74973069  0.13321826  0.92108876  1
  O  O180  1  0.32219241  0.13170996  0.42067451  1
  O  O181  1  0.81548371  0.13375739  0.42374645  1
  O  O182  1  0.24967392  0.36977938  0.42131327  1
  O  O183  1  0.75262767  0.36356237  0.42149325  1
  O  O184  1  0.43204143  0.50440347  0.42131463  1
  O  O185  1  0.92293576  0.47040995  0.42796681  1
  O  O186  1  0.17706865  0.51531471  0.06996952  1
  O  O187  1  0.68700886  0.51438548  0.07837944  1
  O  O188  1  0.06812497  0.64209134  0.08052814  1
  O  O189  1  0.57062543  0.63892389  0.07729581  1
  O  O190  1  0.24892922  0.86538435  0.07626676  1
  O  O191  1  0.74800311  0.85218417  0.07622834  1
  O  O192  1  0.18679840  0.85857721  0.57761823  1
  O  O193  1  0.67610316  0.83893859  0.57061088  1
  O  O194  1  0.24970778  0.64498603  0.57700275  1
  O  O195  1  0.74893127  0.63234450  0.57705562  1
  O  O196  1  0.07164952  0.50220502  0.57649028  1
  O  O197  1  0.56805740  0.49478445  0.58099330  1
  O  O198  1  0.15938743  0.82227307  0.25699991  1
  O  O199  1  0.66066253  0.82180499  0.26451900  1
  O  O200  1  0.25964937  0.67733256  0.26388847  1
  O  O201  1  0.76239329  0.68551878  0.25190005  1
  O  O202  1  0.08489799  0.46886913  0.25381320  1
  O  O203  1  0.58226818  0.47367466  0.25988272  1
  O  O204  1  0.16133899  0.50111065  0.76446700  1
  O  O205  1  0.65856295  0.48056067  0.75587804  1
  O  O206  1  0.07879360  0.68376603  0.75979515  1
  O  O207  1  0.58608833  0.69757584  0.75411161  1
  O  O208  1  0.26461445  0.84066922  0.75185855  1
  O  O209  1  0.75696819  0.83194540  0.76225071  1
