# generated using pymatgen
data_HgI2
_symmetry_space_group_name_H-M   'P 1'
_cell_length_a   4.47810061
_cell_length_b   4.47809987
_cell_length_c   13.99665609
_cell_angle_alpha   90.00000000
_cell_angle_beta   90.00000000
_cell_angle_gamma   112.65213853
_symmetry_Int_Tables_number   1
_chemical_formula_structural   HgI2
_chemical_formula_sum   'Hg2 I4'
_cell_volume   259.02864688
_cell_formula_units_Z   2
loop_
 _symmetry_equiv_pos_site_id
 _symmetry_equiv_pos_as_xyz
  1  'x, y, z'
loop_
 _atom_site_type_symbol
 _atom_site_label
 _atom_site_symmetry_multiplicity
 _atom_site_fract_x
 _atom_site_fract_y
 _atom_site_fract_z
 _atom_site_occupancy
  Hg  Hg0  1  0.65651012  0.34348988  0.50125448  1
  Hg  Hg1  1  0.34348988  0.65651012  0.00125448  1
  I  I2  1  0.60264780  0.39735220  0.13110347  1
  I  I3  1  0.39735220  0.60264780  0.63110347  1
  I  I4  1  0.08497215  0.91502785  0.87094305  1
  I  I5  1  0.91502785  0.08497215  0.37094305  1
