# generated using pymatgen
data_MgV2CdO6
_symmetry_space_group_name_H-M   'P 1'
_cell_length_a   3.63571100
_cell_length_b   5.73363449
_cell_length_c   6.68187701
_cell_angle_alpha   102.87294021
_cell_angle_beta   90.00103608
_cell_angle_gamma   108.48555498
_symmetry_Int_Tables_number   1
_chemical_formula_structural   MgV2CdO6
_chemical_formula_sum   'Mg1 V2 Cd1 O6'
_cell_volume   128.40569228
_cell_formula_units_Z   1
loop_
 _symmetry_equiv_pos_site_id
 _symmetry_equiv_pos_as_xyz
  1  'x, y, z'
loop_
 _atom_site_type_symbol
 _atom_site_label
 _atom_site_symmetry_multiplicity
 _atom_site_fract_x
 _atom_site_fract_y
 _atom_site_fract_z
 _atom_site_occupancy
  Mg  Mg0  1  0.49998000  0.99997700  0.49991000  1
  V  V1  1  0.22471700  0.44946000  0.67724500  1
  V  V2  1  0.77522800  0.55043700  0.32278900  1
  Cd  Cd3  1  0.00013000  0.00026600  0.00020300  1
  O  O4  1  0.05237900  0.10485200  0.70057700  1
  O  O5  1  0.30798700  0.61591600  0.43822600  1
  O  O6  1  0.69192200  0.38390300  0.56186900  1
  O  O7  1  0.34715300  0.69422700  0.88952400  1
  O  O8  1  0.65290900  0.30589600  0.11023700  1
  O  O9  1  0.94759500  0.89506800  0.29942200  1
