# generated using pymatgen
data_In2O3
_symmetry_space_group_name_H-M   'P 1'
_cell_length_a   5.81362990
_cell_length_b   5.81363101
_cell_length_c   5.81363082
_cell_angle_alpha   56.64322495
_cell_angle_beta   56.64321772
_cell_angle_gamma   56.64322082
_symmetry_Int_Tables_number   1
_chemical_formula_structural   In2O3
_chemical_formula_sum   'In4 O6'
_cell_volume   128.16739438
_cell_formula_units_Z   2
loop_
 _symmetry_equiv_pos_site_id
 _symmetry_equiv_pos_as_xyz
  1  'x, y, z'
loop_
 _atom_site_type_symbol
 _atom_site_label
 _atom_site_symmetry_multiplicity
 _atom_site_fract_x
 _atom_site_fract_y
 _atom_site_fract_z
 _atom_site_occupancy
  In  In0  1  0.64288400  0.64288400  0.64288400  1
  In  In1  1  0.85711600  0.85711600  0.85711600  1
  In  In2  1  0.35711700  0.35711700  0.35711700  1
  In  In3  1  0.14288300  0.14288300  0.14288300  1
  O  O4  1  0.04649530  0.75000000  0.45350470  1
  O  O5  1  0.75000000  0.45350470  0.04649530  1
  O  O6  1  0.45350470  0.04649530  0.75000000  1
  O  O7  1  0.95350470  0.25000000  0.54649530  1
  O  O8  1  0.54649530  0.95350470  0.25000000  1
  O  O9  1  0.25000000  0.54649530  0.95350470  1
