# generated using pymatgen
data_MoOF4
_symmetry_space_group_name_H-M   'P 1'
_cell_length_a   16.66244256
_cell_length_b   5.41923839
_cell_length_c   7.76775505
_cell_angle_alpha   88.13386467
_cell_angle_beta   90.00000000
_cell_angle_gamma   90.00000000
_symmetry_Int_Tables_number   1
_chemical_formula_structural   MoOF4
_chemical_formula_sum   'Mo8 O8 F32'
_cell_volume   701.03878911
_cell_formula_units_Z   8
loop_
 _symmetry_equiv_pos_site_id
 _symmetry_equiv_pos_as_xyz
  1  'x, y, z'
loop_
 _atom_site_type_symbol
 _atom_site_label
 _atom_site_symmetry_multiplicity
 _atom_site_fract_x
 _atom_site_fract_y
 _atom_site_fract_z
 _atom_site_occupancy
  Mo  Mo0  1  0.64245246  0.74290750  0.48973431  1
  Mo  Mo1  1  0.14245246  0.25709250  0.01026569  1
  Mo  Mo2  1  0.35754754  0.25709250  0.51026569  1
  Mo  Mo3  1  0.85754754  0.74290750  0.98973431  1
  Mo  Mo4  1  0.61019367  0.26373649  0.09733245  1
  Mo  Mo5  1  0.11019367  0.73626351  0.40266755  1
  Mo  Mo6  1  0.38980633  0.73626351  0.90266755  1
  Mo  Mo7  1  0.88980633  0.26373649  0.59733245  1
  O  O8  1  0.63808994  0.56552981  0.66507533  1
  O  O9  1  0.13808994  0.43447019  0.83492467  1
  O  O10  1  0.36191006  0.43447019  0.33492467  1
  O  O11  1  0.86191006  0.56552981  0.16507533  1
  O  O12  1  0.57506302  0.10776759  0.93598206  1
  O  O13  1  0.07506302  0.89223241  0.56401794  1
  O  O14  1  0.42493698  0.89223241  0.06401794  1
  O  O15  1  0.92493698  0.10776759  0.43598206  1
  F  F16  1  0.78399955  0.30531910  0.53424066  1
  F  F17  1  0.28399955  0.69468090  0.96575934  1
  F  F18  1  0.21600045  0.69468090  0.46575934  1
  F  F19  1  0.71600045  0.30531910  0.03424066  1
  F  F20  1  0.97470145  0.24993167  0.75001494  1
  F  F21  1  0.47470145  0.75006833  0.74998506  1
  F  F22  1  0.02529855  0.75006833  0.24998506  1
  F  F23  1  0.52529855  0.24993167  0.25001494  1
  F  F24  1  0.91710443  0.58020856  0.52788083  1
  F  F25  1  0.41710443  0.41979144  0.97211917  1
  F  F26  1  0.08289557  0.41979144  0.47211917  1
  F  F27  1  0.58289557  0.58020856  0.02788083  1
  F  F28  1  0.84887206  -0.00624318  0.74158445  1
  F  F29  1  0.34887206  0.00624318  0.75841555  1
  F  F30  1  0.15112794  0.00624318  0.25841555  1
  F  F31  1  0.65112794  -0.00624318  0.24158445  1
  F  F32  1  0.74859598  0.79753781  0.96649326  1
  F  F33  1  0.24859598  0.20246219  0.53350674  1
  F  F34  1  0.25140402  0.20246219  0.03350674  1
  F  F35  1  0.75140402  0.79753781  0.46649326  1
  F  F36  1  0.96141493  0.73494265  0.90877520  1
  F  F37  1  0.46141493  0.26505735  0.59122480  1
  F  F38  1  0.03858507  0.26505735  0.09122480  1
  F  F39  1  0.53858507  0.73494265  0.40877520  1
  F  F40  1  0.87264334  0.04758657  0.07978960  1
  F  F41  1  0.37264334  0.95241343  0.42021040  1
  F  F42  1  0.12735666  0.95241343  0.92021040  1
  F  F43  1  0.62735666  0.04758657  0.57978960  1
  F  F44  1  0.83999339  0.49092760  0.82078194  1
  F  F45  1  0.33999339  0.50907240  0.67921806  1
  F  F46  1  0.16000661  0.50907240  0.17921806  1
  F  F47  1  0.66000661  0.49092760  0.32078194  1
