# generated using pymatgen
data_Na3Ti2Al2P5SO24
_symmetry_space_group_name_H-M   'P 1'
_cell_length_a   8.53264806
_cell_length_b   8.51559662
_cell_length_c   21.96048564
_cell_angle_alpha   90.16788349
_cell_angle_beta   89.95069536
_cell_angle_gamma   119.98070622
_symmetry_Int_Tables_number   1
_chemical_formula_structural   Na3Ti2Al2P5SO24
_chemical_formula_sum   'Na9 Ti6 Al6 P15 S3 O72'
_cell_volume   1382.14598625
_cell_formula_units_Z   3
loop_
 _symmetry_equiv_pos_site_id
 _symmetry_equiv_pos_as_xyz
  1  'x, y, z'
loop_
 _atom_site_type_symbol
 _atom_site_label
 _atom_site_symmetry_multiplicity
 _atom_site_fract_x
 _atom_site_fract_y
 _atom_site_fract_z
 _atom_site_occupancy
  Na  Na0  1  0.00059331  0.36461099  0.75062446  1
  Na  Na1  1  0.66701633  0.96823594  0.58334463  1
  Na  Na2  1  0.03247815  0.33342629  0.08329861  1
  Na  Na3  1  0.00457964  0.99821731  0.50047889  1
  Na  Na4  1  0.00188312  0.99617484  0.00014313  1
  Na  Na5  1  0.66199847  0.33095467  0.83400062  1
  Na  Na6  1  0.67028260  0.33441651  0.33328883  1
  Na  Na7  1  0.33855371  0.66986578  0.16730990  1
  Na  Na8  1  0.33344254  0.66716949  0.66676078  1
  Ti  Ti9  1  0.98313607  0.98947357  0.35379311  1
  Ti  Ti10  1  0.00868187  0.00553673  0.85315708  1
  Ti  Ti11  1  0.66165081  0.33389125  0.68603146  1
  Ti  Ti12  1  0.67290164  0.33942084  0.18597323  1
  Ti  Ti13  1  0.66537061  0.32597117  0.98042923  1
  Ti  Ti14  1  0.67355437  0.33429778  0.48022331  1
  Al  Al15  1  0.00399640  0.99844746  0.64786817  1
  Al  Al16  1  0.99453387  0.99707895  0.14734956  1
  Al  Al17  1  0.33081511  0.67044665  0.01947363  1
  Al  Al18  1  0.32906870  0.66955872  0.51937633  1
  Al  Al19  1  0.33068637  0.66545685  0.31393935  1
  Al  Al20  1  0.33343066  0.67437571  0.81363922  1
  P  P21  1  0.70529019  0.71285327  0.24819589  1
  P  P22  1  0.00625330  0.29184326  0.24908740  1
  P  P23  1  0.28929553  0.29145220  0.74882815  1
  P  P24  1  0.00434832  0.71677219  0.74905566  1
  P  P25  1  0.70642107  0.99069027  0.74922321  1
  P  P26  1  0.96649704  0.33780039  0.58381134  1
  P  P27  1  0.36871848  0.04060213  0.58272973  1
  P  P28  1  0.66593985  0.62593447  0.58279530  1
  P  P29  1  0.96031929  0.63247688  0.08267490  1
  P  P30  1  0.66118060  0.03395972  0.08387617  1
  P  P31  1  0.37473566  0.33345858  0.08343814  1
  P  P32  1  0.05129117  0.38510374  0.91674211  1
  P  P33  1  0.33282325  0.94741589  0.91696549  1
  P  P34  1  0.61130696  0.94720895  0.41665341  1
  P  P35  1  0.05334520  0.66764618  0.41623823  1
  S  S36  1  0.28578785  0.99683175  0.24948618  1
  S  S37  1  0.61626277  0.66683800  0.91675459  1
  S  S38  1  0.33304240  0.38288723  0.41670284  1
  O  O39  1  0.20774395  0.03167559  0.30491709  1
  O  O40  1  0.82883125  0.79593916  0.30599462  1
  O  O41  1  0.97073547  0.16880300  0.30586079  1
  O  O42  1  0.20468411  0.17133884  0.80623671  1
  O  O43  1  0.96712289  0.79798035  0.80663837  1
  O  O44  1  0.83258991  0.03522139  0.80550346  1
  O  O45  1  0.79479790  0.96726068  0.69153985  1
  O  O46  1  0.16578231  0.20453820  0.69376113  1
  O  O47  1  0.03351754  0.83214806  0.69301722  1
  O  O48  1  0.79896725  0.83139879  0.19345322  1
  O  O49  1  0.03359579  0.20439794  0.19184013  1
  O  O50  1  0.17493916  0.96746531  0.19502268  1
  O  O51  1  0.87599727  0.36785337  0.64059060  1
  O  O52  1  0.49743626  0.12783244  0.63866824  1
  O  O53  1  0.63339151  0.50405128  0.63922764  1
  O  O54  1  0.87325913  0.50324853  0.13868580  1
  O  O55  1  0.63240032  0.12822050  0.13951852  1
  O  O56  1  0.49678705  0.36611398  0.13972844  1
  O  O57  1  0.46396073  0.30057484  0.02701265  1
  O  O58  1  0.83742536  0.53837743  0.02706461  1
  O  O59  1  0.70358436  0.16330119  0.02791620  1
  O  O60  1  0.46297198  0.16285941  0.52695452  1
  O  O61  1  0.69907558  0.53587221  0.52686067  1
  O  O62  1  0.83644423  0.29671794  0.52825715  1
  O  O63  1  0.53784638  0.69763255  0.97180493  1
  O  O64  1  0.16398462  0.46482491  0.97464533  1
  O  O65  1  0.30182282  0.83482552  0.97383256  1
  O  O66  1  0.53650833  0.83625732  0.47513821  1
  O  O67  1  0.30221760  0.46182188  0.47183135  1
  O  O68  1  0.16527817  0.69837452  0.47363529  1
  O  O69  1  0.13388659  0.63378715  0.35917806  1
  O  O70  1  0.49938243  0.86358475  0.35957940  1
  O  O71  1  0.36497079  0.49261979  0.36162855  1
  O  O72  1  0.13306895  0.49646800  0.85856885  1
  O  O73  1  0.36735650  0.86792923  0.85956445  1
  O  O74  1  0.50646260  0.63521490  0.86139909  1
  O  O75  1  0.02789694  0.83615694  0.40875503  1
  O  O76  1  0.80752405  0.97577739  0.40990686  1
  O  O77  1  0.17247128  0.19851110  0.41012190  1
  O  O78  1  0.02354231  0.19055664  0.90971360  1
  O  O79  1  0.16539395  0.97360101  0.90966857  1
  O  O80  1  0.80017234  0.82834323  0.91067094  1
  O  O81  1  0.97301540  0.16157438  0.59151146  1
  O  O82  1  0.18523041  0.02513846  0.59193493  1
  O  O83  1  0.83431372  0.81402940  0.59152902  1
  O  O84  1  0.97704957  0.81640886  0.09289904  1
  O  O85  1  0.83736000  0.02715145  0.09136280  1
  O  O86  1  0.18623993  0.16485202  0.09219939  1
  O  O87  1  0.69369937  0.16709697  0.74283190  1
  O  O88  1  0.47666134  0.30819826  0.74294700  1
  O  O89  1  0.83511632  0.52288083  0.74300940  1
  O  O90  1  0.69028773  0.52369697  0.24257722  1
  O  O91  1  0.83240837  0.30710051  0.24263823  1
  O  O92  1  0.46826133  0.16058651  0.24355194  1
  O  O93  1  0.63893107  0.50510707  0.92258418  1
  O  O94  1  0.85827380  0.36034646  0.92378745  1
  O  O95  1  0.49982005  0.14258997  0.92418091  1
  O  O96  1  0.64028021  0.14188922  0.42373258  1
  O  O97  1  0.49489860  0.36087427  0.42272205  1
  O  O98  1  0.85820977  0.50080128  0.42414070  1
  O  O99  1  0.35451632  0.50186701  0.07463143  1
  O  O100  1  0.14326021  0.63935536  0.07542579  1
  O  O101  1  0.49432135  0.85035132  0.07398141  1
  O  O102  1  0.36107703  0.85675520  0.57528386  1
  O  O103  1  0.49726806  0.64503660  0.57460197  1
  O  O104  1  0.14974917  0.50572894  0.57401327  1
  O  O105  1  0.30677238  0.83560787  0.25689773  1
  O  O106  1  0.51897735  0.69151892  0.25947521  1
  O  O107  1  0.17164544  0.48037729  0.25889634  1
  O  O108  1  0.30713672  0.47840240  0.75918474  1
  O  O109  1  0.16721060  0.68698542  0.75769784  1
  O  O110  1  0.51930116  0.82607692  0.75876066  1
