# generated using pymatgen
data_Na14Sc4Al4Si7S5O48
_symmetry_space_group_name_H-M   'P 1'
_cell_length_a   17.93343464
_cell_length_b   8.94496366
_cell_length_c   22.06352562
_cell_angle_alpha   89.92151414
_cell_angle_beta   90.14091534
_cell_angle_gamma   120.01781413
_symmetry_Int_Tables_number   1
_chemical_formula_structural   Na14Sc4Al4Si7S5O48
_chemical_formula_sum   'Na42 Sc12 Al12 Si21 S15 O144'
_cell_volume   3064.56115140
_cell_formula_units_Z   3
loop_
 _symmetry_equiv_pos_site_id
 _symmetry_equiv_pos_as_xyz
  1  'x, y, z'
loop_
 _atom_site_type_symbol
 _atom_site_label
 _atom_site_symmetry_multiplicity
 _atom_site_fract_x
 _atom_site_fract_y
 _atom_site_fract_z
 _atom_site_occupancy
  Na  Na0  1  0.81277815  0.98990998  0.23854771  1
  Na  Na1  1  0.18584686  0.36635005  0.25922346  1
  Na  Na2  1  0.68696160  0.36455903  0.25509931  1
  Na  Na3  1  0.99607682  0.64290525  0.23895273  1
  Na  Na4  1  0.50391084  0.65145470  0.24405300  1
  Na  Na5  1  0.31339587  0.63865033  0.75252715  1
  Na  Na6  1  0.00273942  0.35318594  0.74898942  1
  Na  Na7  1  0.49741591  0.35072491  0.74691737  1
  Na  Na8  1  0.18402470  0.00617785  0.76097338  1
  Na  Na9  1  0.68726133  0.00645487  0.76288775  1
  Na  Na10  1  0.14174342  0.33312643  0.58390783  1
  Na  Na11  1  0.63986595  0.33334029  0.58581125  1
  Na  Na12  1  0.33645132  0.97044777  0.57911708  1
  Na  Na13  1  0.83733815  0.97509119  0.58118213  1
  Na  Na14  1  0.13750614  0.94500507  0.08764685  1
  Na  Na15  1  0.65013837  0.95753519  0.08638570  1
  Na  Na16  1  0.33728045  0.70011835  0.08120466  1
  Na  Na17  1  0.83684828  0.71743772  0.07857163  1
  Na  Na18  1  0.48957105  0.68297258  0.92631738  1
  Na  Na19  1  0.98645119  0.67720555  0.92854033  1
  Na  Na20  1  0.34224350  0.01426812  0.91386414  1
  Na  Na21  1  0.84114764  0.01887911  0.92155950  1
  Na  Na22  1  0.16924539  0.30259440  0.90807837  1
  Na  Na23  1  0.67369518  0.31414793  0.90897401  1
  Na  Na24  1  0.48833696  0.29786689  0.42111927  1
  Na  Na25  1  0.98704310  0.29196991  0.42128608  1
  Na  Na26  1  0.17061705  0.02974461  0.40217552  1
  Na  Na27  1  0.67004366  0.03557757  0.40404435  1
  Na  Na28  1  0.34209158  0.66742025  0.40658328  1
  Na  Na29  1  0.84236333  0.67006252  0.40910297  1
  Na  Na30  1  0.99754372  0.00619348  0.49490342  1
  Na  Na31  1  0.49917506  0.00955184  0.49494173  1
  Na  Na32  1  0.99024398  0.98989272  0.00051302  1
  Na  Na33  1  0.50153484  0.99207807  0.99652307  1
  Na  Na34  1  0.32666531  0.32661910  0.83478591  1
  Na  Na35  1  0.82337791  0.33581893  0.83671675  1
  Na  Na36  1  0.32440063  0.31168712  0.33259383  1
  Na  Na37  1  0.82665959  0.32623453  0.33003826  1
  Na  Na38  1  0.16528737  0.68014870  0.17083646  1
  Na  Na39  1  0.66443296  0.67488580  0.16483426  1
  Na  Na40  1  0.15582717  0.65236946  0.67068028  1
  Na  Na41  1  0.66771422  0.65304607  0.67241198  1
  Sc  Sc42  1  0.99952661  0.01809232  0.64863044  1
  Sc  Sc43  1  0.49442551  0.01094959  0.64822566  1
  Sc  Sc44  1  0.99061623  0.98205073  0.14486280  1
  Sc  Sc45  1  0.50098642  0.98049206  0.14840038  1
  Sc  Sc46  1  0.83670840  0.33315446  0.69209937  1
  Sc  Sc47  1  0.33597856  0.33868099  0.19158182  1
  Sc  Sc48  1  0.16291237  0.67280482  0.01617997  1
  Sc  Sc49  1  0.67268670  0.69339928  0.01915385  1
  Sc  Sc50  1  0.16684759  0.65453330  0.51503373  1
  Sc  Sc51  1  0.66400814  0.65353194  0.51612288  1
  Sc  Sc52  1  0.17931553  0.68605439  0.31471337  1
  Sc  Sc53  1  0.68078434  0.67233855  0.81670294  1
  Al  Al54  1  0.99833858  0.99683752  0.35009991  1
  Al  Al55  1  0.50311000  0.00704230  0.35006228  1
  Al  Al56  1  0.00358763  0.00020888  0.85060296  1
  Al  Al57  1  0.49903544  0.00405891  0.85173083  1
  Al  Al58  1  0.33419918  0.32479676  0.69057581  1
  Al  Al59  1  0.83258745  0.33339394  0.18572127  1
  Al  Al60  1  0.33138722  0.34231859  0.97705082  1
  Al  Al61  1  0.83185075  0.33416693  0.98312577  1
  Al  Al62  1  0.33260138  0.32202753  0.47978883  1
  Al  Al63  1  0.83180350  0.32114200  0.47672114  1
  Al  Al64  1  0.68434203  0.68513416  0.31588372  1
  Al  Al65  1  0.18167955  0.67909229  0.81708404  1
  Si  Si66  1  0.14183585  0.99718208  0.25062588  1
  Si  Si67  1  0.64926210  0.99492552  0.25338068  1
  Si  Si68  1  0.35598247  0.71359191  0.25185288  1
  Si  Si69  1  0.85220248  0.70068317  0.25223481  1
  Si  Si70  1  0.15039244  0.30348953  0.75051495  1
  Si  Si71  1  0.64346751  0.29084221  0.75150901  1
  Si  Si72  1  0.35097530  0.99883004  0.75234533  1
  Si  Si73  1  0.85602635  0.99725413  0.75182744  1
  Si  Si74  1  0.47421716  0.34420576  0.58500117  1
  Si  Si75  1  0.97883992  0.34292276  0.58076059  1
  Si  Si76  1  0.47788899  0.61450983  0.08052796  1
  Si  Si77  1  0.97507231  0.60558989  0.08465843  1
  Si  Si78  1  0.83771952  0.06361505  0.08281978  1
  Si  Si79  1  0.31760803  0.66990526  0.91620113  1
  Si  Si80  1  0.82270442  0.66765952  0.91943744  1
  Si  Si81  1  0.16638230  0.96602985  0.91473390  1
  Si  Si82  1  0.66519457  0.97591856  0.91524635  1
  Si  Si83  1  0.32160598  0.97152391  0.42027868  1
  Si  Si84  1  0.81736961  0.96457862  0.41682883  1
  Si  Si85  1  0.16694460  0.35591312  0.41702053  1
  Si  Si86  1  0.66659567  0.36690250  0.41547331  1
  S  S87  1  0.99769590  0.28716126  0.25283788  1
  S  S88  1  0.50312998  0.29124331  0.25408288  1
  S  S89  1  0.00318224  0.71498889  0.75337649  1
  S  S90  1  0.49560307  0.70517190  0.74999870  1
  S  S91  1  0.19212453  0.04939037  0.58455364  1
  S  S92  1  0.68797169  0.04436754  0.58018825  1
  S  S93  1  0.33545558  0.61173730  0.58346634  1
  S  S94  1  0.83547228  0.61937406  0.57958534  1
  S  S95  1  0.33531617  0.05165446  0.07942631  1
  S  S96  1  0.18990788  0.33362757  0.07986701  1
  S  S97  1  0.69035886  0.33445919  0.08429812  1
  S  S98  1  0.02212209  0.37405780  0.91120235  1
  S  S99  1  0.51575346  0.36768189  0.91716256  1
  S  S100  1  0.01486404  0.66276517  0.41738246  1
  S  S101  1  0.51789441  0.66599983  0.41503983  1
  O  O102  1  0.09291487  0.02364356  0.30951428  1
  O  O103  1  0.60027711  0.03036549  0.30958416  1
  O  O104  1  0.41767282  0.81904145  0.30916174  1
  O  O105  1  0.91511804  0.79682744  0.31085940  1
  O  O106  1  0.49428850  0.19074462  0.30984457  1
  O  O107  1  0.98692832  0.18162970  0.30820614  1
  O  O108  1  0.10442489  0.16863603  0.80664405  1
  O  O109  1  0.59221446  0.16225812  0.80817554  1
  O  O110  1  0.48287809  0.78537800  0.80486298  1
  O  O111  1  0.99586963  0.79970678  0.80858316  1
  O  O112  1  0.41610734  0.03124985  0.80894802  1
  O  O113  1  0.92143500  0.02060049  0.80686279  1
  O  O114  1  0.38724216  0.95614474  0.68992465  1
  O  O115  1  0.89459420  0.97628532  0.68681914  1
  O  O116  1  0.09287291  0.22608219  0.68811995  1
  O  O117  1  0.58986504  0.20562937  0.68767970  1
  O  O118  1  0.01588265  0.82055405  0.69859090  1
  O  O119  1  0.50859119  0.81124010  0.69555950  1
  O  O120  1  0.39557343  0.81501378  0.18793523  1
  O  O121  1  0.88872129  0.82099897  0.19170454  1
  O  O122  1  0.01181717  0.20940441  0.19877185  1
  O  O123  1  0.51555659  0.20974972  0.19990211  1
  O  O124  1  0.08955557  0.98010593  0.18770216  1
  O  O125  1  0.59076133  0.95567315  0.19138152  1
  O  O126  1  0.42434449  0.34762998  0.64674862  1
  O  O127  1  0.93491036  0.35196657  0.64409938  1
  O  O128  1  0.24197043  0.13715311  0.64020809  1
  O  O129  1  0.73754943  0.12700296  0.63609267  1
  O  O130  1  0.32634348  0.51028159  0.63886226  1
  O  O131  1  0.82452239  0.51575615  0.63416285  1
  O  O132  1  0.43244403  0.51789646  0.14411844  1
  O  O133  1  0.92660676  0.50469454  0.14707548  1
  O  O134  1  0.32425386  0.13310027  0.13407305  1
  O  O135  1  0.82194369  0.14874837  0.14437714  1
  O  O136  1  0.24045234  0.35289294  0.13570937  1
  O  O137  1  0.74021728  0.35096013  0.14053346  1
  O  O138  1  0.23291801  0.31176570  0.02506801  1
  O  O139  1  0.73133184  0.31248037  0.02920168  1
  O  O140  1  0.41434668  0.51305944  0.02259470  1
  O  O141  1  0.91897044  0.51401970  0.02381526  1
  O  O142  1  0.33666469  0.14497225  0.02345260  1
  O  O143  1  0.83840777  0.16172423  0.02019896  1
  O  O144  1  0.23341377  0.15416564  0.52940773  1
  O  O145  1  0.73112332  0.15324559  0.52564818  1
  O  O146  1  0.33726779  0.52322084  0.52759629  1
  O  O147  1  0.83695472  0.52967902  0.52364933  1
  O  O148  1  0.41636708  0.32612429  0.52523205  1
  O  O149  1  0.91622866  0.32050238  0.52275750  1
  O  O150  1  0.27594788  0.70749519  0.97649641  1
  O  O151  1  0.78076169  0.71023784  0.97825019  1
  O  O152  1  0.07535748  0.45298334  0.96610345  1
  O  O153  1  0.57286628  0.45293076  0.96910636  1
  O  O154  1  0.14312847  0.84482363  0.97556285  1
  O  O155  1  0.64205891  0.84727472  0.97410293  1
  O  O156  1  0.28129144  0.85128689  0.48166797  1
  O  O157  1  0.77647732  0.84558117  0.47808464  1
  O  O158  1  0.14514758  0.43995793  0.47661112  1
  O  O159  1  0.64289855  0.43856923  0.47715846  1
  O  O160  1  0.07192517  0.69097738  0.47014278  1
  O  O161  1  0.57274226  0.69326718  0.46906344  1
  O  O162  1  0.05041638  0.62758010  0.36256422  1
  O  O163  1  0.55583117  0.63276293  0.36109747  1
  O  O164  1  0.25024481  0.88308115  0.36668964  1
  O  O165  1  0.75088707  0.87237827  0.36056426  1
  O  O166  1  0.18821145  0.48585634  0.35986963  1
  O  O167  1  0.68306771  0.50411616  0.36051243  1
  O  O168  1  0.06515827  0.48508456  0.85751781  1
  O  O169  1  0.55032952  0.47095306  0.86105131  1
  O  O170  1  0.18395313  0.86494093  0.85892341  1
  O  O171  1  0.68298866  0.88387811  0.85752940  1
  O  O172  1  0.25258770  0.62925420  0.85845627  1
  O  O173  1  0.75333564  0.61210334  0.86384144  1
  O  O174  1  0.00702902  0.81998432  0.41340395  1
  O  O175  1  0.51069479  0.82435379  0.41060131  1
  O  O176  1  0.41606116  0.98787009  0.40822395  1
  O  O177  1  0.91379722  0.98588733  0.40587413  1
  O  O178  1  0.08112096  0.16441032  0.40900065  1
  O  O179  1  0.58281107  0.17286752  0.40640454  1
  O  O180  1  0.01417794  0.20017297  0.90680060  1
  O  O181  1  0.50631615  0.19235756  0.91252216  1
  O  O182  1  0.08354806  0.99396108  0.90520111  1
  O  O183  1  0.57904885  0.99571080  0.90728889  1
  O  O184  1  0.41364217  0.84205521  0.90525772  1
  O  O185  1  0.91668818  0.84332099  0.90716136  1
  O  O186  1  0.48247100  0.16291368  0.58327429  1
  O  O187  1  0.98820954  0.16412021  0.57898039  1
  O  O188  1  0.10477016  0.02757317  0.58679793  1
  O  O189  1  0.60068893  0.02416426  0.58194964  1
  O  O190  1  0.41328615  0.78538884  0.58432270  1
  O  O191  1  0.91412425  0.79207304  0.58148501  1
  O  O192  1  0.48748427  0.81275753  0.07943704  1
  O  O193  1  0.98597494  0.80393534  0.08372688  1
  O  O194  1  0.41403059  0.03723025  0.08142379  1
  O  O195  1  0.92198166  0.03700513  0.08374301  1
  O  O196  1  0.10378156  0.17934807  0.08200133  1
  O  O197  1  0.60356140  0.17725573  0.08743407  1
  O  O198  1  0.34115250  0.17373075  0.74651869  1
  O  O199  1  0.84991366  0.17620183  0.75225639  1
  O  O200  1  0.24805029  0.32727049  0.74053142  1
  O  O201  1  0.73838567  0.30670524  0.74809117  1
  O  O202  1  0.41462314  0.53155448  0.74491436  1
  O  O203  1  0.92471618  0.54207435  0.75040643  1
  O  O204  1  0.35051056  0.52337256  0.25304462  1
  O  O205  1  0.84153362  0.50564183  0.24508102  1
  O  O206  1  0.42468708  0.30718826  0.25080626  1
  O  O207  1  0.91804977  0.29998239  0.24926664  1
  O  O208  1  0.23846821  0.17042728  0.24893698  1
  O  O209  1  0.74512208  0.16914413  0.24540435  1
  O  O210  1  0.32692755  0.49433166  0.92149505  1
  O  O211  1  0.83364945  0.49670545  0.92750705  1
  O  O212  1  0.42702289  0.34241657  0.92452307  1
  O  O213  1  0.93554726  0.35384593  0.91567444  1
  O  O214  1  0.25540083  0.15696627  0.92404553  1
  O  O215  1  0.75210345  0.16700057  0.92468458  1
  O  O216  1  0.33338815  0.16600388  0.42570706  1
  O  O217  1  0.82698107  0.15919950  0.42216886  1
  O  O218  1  0.25506969  0.34328193  0.42921224  1
  O  O219  1  0.75533676  0.35399612  0.42440167  1
  O  O220  1  0.42936130  0.51513784  0.42275468  1
  O  O221  1  0.92656163  0.51107976  0.42514030  1
  O  O222  1  0.18515875  0.49392660  0.07543765  1
  O  O223  1  0.68350146  0.49152652  0.08027770  1
  O  O224  1  0.07535929  0.63871947  0.08318397  1
  O  O225  1  0.57446363  0.64151361  0.07898748  1
  O  O226  1  0.25742559  0.87172175  0.07890660  1
  O  O227  1  0.75053594  0.86246915  0.08291302  1
  O  O228  1  0.18761355  0.87986642  0.58147789  1
  O  O229  1  0.68305346  0.87448290  0.57606277  1
  O  O230  1  0.25732715  0.63340528  0.58316335  1
  O  O231  1  0.75757648  0.64325762  0.57927688  1
  O  O232  1  0.07793871  0.50968999  0.57941243  1
  O  O233  1  0.57420883  0.50782486  0.58353324  1
  O  O234  1  0.14294228  0.81502479  0.25615666  1
  O  O235  1  0.65531721  0.81675320  0.26304120  1
  O  O236  1  0.25621417  0.67338564  0.25216217  1
  O  O237  1  0.75477031  0.67586849  0.25883360  1
  O  O238  1  0.07323528  0.46326951  0.25908657  1
  O  O239  1  0.57980979  0.46869552  0.25904819  1
  O  O240  1  0.15676369  0.49313590  0.76032013  1
  O  O241  1  0.64420496  0.47356649  0.75561467  1
  O  O242  1  0.07973058  0.69001052  0.75769736  1
  O  O243  1  0.56998382  0.67789518  0.75556278  1
  O  O244  1  0.25372325  0.83005003  0.75865879  1
  O  O245  1  0.75656174  0.83818594  0.75265017  1
