# generated using pymatgen
data_Na5Al2SiSn2P5O24
_symmetry_space_group_name_H-M   'P 1'
_cell_length_a   8.73634353
_cell_length_b   8.72009906
_cell_length_c   22.05820091
_cell_angle_alpha   90.10410561
_cell_angle_beta   89.75956476
_cell_angle_gamma   119.83103706
_symmetry_Int_Tables_number   1
_chemical_formula_structural   Na5Al2SiSn2P5O24
_chemical_formula_sum   'Na15 Al6 Si3 Sn6 P15 O72'
_cell_volume   1457.75622032
_cell_formula_units_Z   3
loop_
 _symmetry_equiv_pos_site_id
 _symmetry_equiv_pos_as_xyz
  1  'x, y, z'
loop_
 _atom_site_type_symbol
 _atom_site_label
 _atom_site_symmetry_multiplicity
 _atom_site_fract_x
 _atom_site_fract_y
 _atom_site_fract_z
 _atom_site_occupancy
  Na  Na0  1  0.00234618  0.63555408  0.25131247  1
  Na  Na1  1  0.63314696  0.64079831  0.75202625  1
  Na  Na2  1  0.36684167  0.99763552  0.75133530  1
  Na  Na3  1  0.66246767  0.96828080  0.58427843  1
  Na  Na4  1  0.29713453  0.96714277  0.08351175  1
  Na  Na5  1  0.67232529  0.69913404  0.08286724  1
  Na  Na6  1  0.02980107  0.33371418  0.08431733  1
  Na  Na7  1  0.96870659  0.29998062  0.41538274  1
  Na  Na8  1  0.33458269  0.03321763  0.41746539  1
  Na  Na9  1  0.00245484  0.99243723  0.49884738  1
  Na  Na10  1  0.99971852  0.99756758  0.99799480  1
  Na  Na11  1  0.67539805  0.33072005  0.83820678  1
  Na  Na12  1  0.66012535  0.33524379  0.33482297  1
  Na  Na13  1  0.33873518  0.66664584  0.17178703  1
  Na  Na14  1  0.32127354  0.65811557  0.66783473  1
  Al  Al15  1  0.99551455  0.99571750  0.34987467  1
  Al  Al16  1  0.99775927  0.99462196  0.15102817  1
  Al  Al17  1  0.67205633  0.34071517  0.97749739  1
  Al  Al18  1  0.66221501  0.33741069  0.48070611  1
  Al  Al19  1  0.34050404  0.66606697  0.31407436  1
  Al  Al20  1  0.33314410  0.66656651  0.81662076  1
  Si  Si21  1  0.70180784  0.99668776  0.75131503  1
  Si  Si22  1  0.37472448  0.04560550  0.57922636  1
  Si  Si23  1  0.95363434  0.62651073  0.08211396  1
  Sn  Sn24  1  0.99853306  0.00177882  0.85456697  1
  Sn  Sn25  1  0.00393745  0.00057961  0.64670689  1
  Sn  Sn26  1  0.66914872  0.32953269  0.68426362  1
  Sn  Sn27  1  0.66541983  0.33070524  0.18776484  1
  Sn  Sn28  1  0.33002269  0.66639365  0.01402287  1
  Sn  Sn29  1  0.33161318  0.66582345  0.51652697  1
  P  P30  1  0.28490426  0.99687502  0.25194151  1
  P  P31  1  0.70885661  0.71957678  0.25131721  1
  P  P32  1  0.00728257  0.28635183  0.25133063  1
  P  P33  1  0.29001098  0.30006312  0.75153401  1
  P  P34  1  0.00545656  0.70430164  0.75190601  1
  P  P35  1  0.95650458  0.33678093  0.57914209  1
  P  P36  1  0.66707253  0.61861133  0.58062706  1
  P  P37  1  0.67090585  0.04687528  0.08137594  1
  P  P38  1  0.37598722  0.32858342  0.08174454  1
  P  P39  1  0.62255837  0.65870792  0.91524227  1
  P  P40  1  0.03843368  0.37855309  0.91503172  1
  P  P41  1  0.34172647  0.96657195  0.91490477  1
  P  P42  1  0.62884654  0.95721382  0.41318107  1
  P  P43  1  0.33620734  0.37621477  0.41280403  1
  P  P44  1  0.03610902  0.66654839  0.41288500  1
  O  O45  1  0.19765733  0.02478097  0.30815248  1
  O  O46  1  0.83459452  0.80514992  0.30486608  1
  O  O47  1  0.97779746  0.17230484  0.30774738  1
  O  O48  1  0.21742982  0.17063929  0.80543357  1
  O  O49  1  0.95988690  0.78439579  0.80664591  1
  O  O50  1  0.83094854  0.03824042  0.80781747  1
  O  O51  1  0.77790969  0.95089406  0.68897217  1
  O  O52  1  0.18058588  0.22173671  0.69362843  1
  O  O53  1  0.04861247  0.82344049  0.69480590  1
  O  O54  1  0.79235487  0.82439923  0.19170887  1
  O  O55  1  0.02737827  0.19953783  0.19236759  1
  O  O56  1  0.17224458  0.96752047  0.19365561  1
  O  O57  1  0.88589716  0.37270936  0.63869790  1
  O  O58  1  0.48873264  0.11396829  0.64250809  1
  O  O59  1  0.63708198  0.52043315  0.64219203  1
  O  O60  1  0.88638614  0.50575969  0.14450132  1
  O  O61  1  0.61851467  0.11208555  0.13929868  1
  O  O62  1  0.49102402  0.37457680  0.13967601  1
  O  O63  1  0.46174510  0.29223291  0.02721234  1
  O  O64  1  0.82098111  0.52876292  0.02660036  1
  O  O65  1  0.70155212  0.16681930  0.02692401  1
  O  O66  1  0.47306060  0.16471071  0.52056549  1
  O  O67  1  0.69445585  0.52718533  0.52687283  1
  O  O68  1  0.83917679  0.30702284  0.52365797  1
  O  O69  1  0.55181366  0.69866789  0.97535377  1
  O  O70  1  0.14402595  0.44427272  0.97616113  1
  O  O71  1  0.30058931  0.85702776  0.97513253  1
  O  O72  1  0.55937988  0.85091469  0.47377360  1
  O  O73  1  0.28690883  0.44488644  0.47125727  1
  O  O74  1  0.15715551  0.71275749  0.47006048  1
  O  O75  1  0.12521228  0.62948185  0.35826016  1
  O  O76  1  0.49659828  0.86410447  0.36186186  1
  O  O77  1  0.36327273  0.49851281  0.35972565  1
  O  O78  1  0.13757383  0.49950216  0.86222078  1
  O  O79  1  0.36264670  0.87116745  0.86000876  1
  O  O80  1  0.50736812  0.63822652  0.86037258  1
  O  O81  1  0.02166218  0.83560141  0.40518135  1
  O  O82  1  0.81714869  0.98389454  0.40510192  1
  O  O83  1  0.16947990  0.18770083  0.40617655  1
  O  O84  1  0.02368665  0.19350758  0.91279348  1
  O  O85  1  0.17193326  0.98188484  0.91125579  1
  O  O86  1  0.80882210  0.82559022  0.91288795  1
  O  O87  1  0.96262034  0.16197769  0.58462979  1
  O  O88  1  0.18025672  0.02604983  0.58408482  1
  O  O89  1  0.82959006  0.80765155  0.58429502  1
  O  O90  1  0.97758197  0.82402312  0.09228249  1
  O  O91  1  0.83740828  0.02914078  0.09090402  1
  O  O92  1  0.18877171  0.16676740  0.09135653  1
  O  O93  1  0.67731159  0.17033395  0.74813511  1
  O  O94  1  0.47900236  0.32270834  0.74521486  1
  O  O95  1  0.83142860  0.52627705  0.74477774  1
  O  O96  1  0.69594356  0.53187842  0.24730061  1
  O  O97  1  0.83883367  0.31013900  0.24839149  1
  O  O98  1  0.47126777  0.16452102  0.24718793  1
  O  O99  1  0.63517431  0.48992192  0.92270470  1
  O  O100  1  0.85506940  0.36108683  0.92300180  1
  O  O101  1  0.50813205  0.14780500  0.92388289  1
  O  O102  1  0.64722463  0.14476751  0.42076330  1
  O  O103  1  0.50108802  0.35540663  0.42147817  1
  O  O104  1  0.85587275  0.49613185  0.42356196  1
  O  O105  1  0.35695852  0.49753665  0.07669294  1
  O  O106  1  0.15360569  0.64977293  0.07808579  1
  O  O107  1  0.50766507  0.85607226  0.07636188  1
  O  O108  1  0.36252787  0.85069727  0.57724233  1
  O  O109  1  0.50210535  0.64176357  0.57678796  1
  O  O110  1  0.14376194  0.49657396  0.57612119  1
  O  O111  1  0.30150346  0.82792490  0.25842574  1
  O  O112  1  0.52408533  0.69692038  0.25902042  1
  O  O113  1  0.16815732  0.47643505  0.25736490  1
  O  O114  1  0.31144627  0.48307225  0.76094936  1
  O  O115  1  0.16901155  0.68695978  0.76075739  1
  O  O116  1  0.50738586  0.82070703  0.75954137  1
