# generated using pymatgen
data_Na7La2Al2SiP5O24
_symmetry_space_group_name_H-M   'P 1'
_cell_length_a   9.16929898
_cell_length_b   9.15328443
_cell_length_c   22.59330026
_cell_angle_alpha   89.91998853
_cell_angle_beta   89.82496835
_cell_angle_gamma   119.82345966
_symmetry_Int_Tables_number   1
_chemical_formula_structural   Na7La2Al2SiP5O24
_chemical_formula_sum   'Na21 La6 Al6 Si3 P15 O72'
_cell_volume   1645.08656359
_cell_formula_units_Z   3
loop_
 _symmetry_equiv_pos_site_id
 _symmetry_equiv_pos_as_xyz
  1  'x, y, z'
loop_
 _atom_site_type_symbol
 _atom_site_label
 _atom_site_symmetry_multiplicity
 _atom_site_fract_x
 _atom_site_fract_y
 _atom_site_fract_z
 _atom_site_occupancy
  Na  Na0  1  0.37259707  0.37654320  0.25364735  1
  Na  Na1  1  0.00401820  0.63004738  0.25154971  1
  Na  Na2  1  0.63802881  0.65517236  0.75298708  1
  Na  Na3  1  0.00099244  0.35655534  0.75842609  1
  Na  Na4  1  0.35485057  0.98605062  0.75272904  1
  Na  Na5  1  0.31110271  0.33458366  0.57500929  1
  Na  Na6  1  0.03350090  0.68657171  0.57606474  1
  Na  Na7  1  0.64903612  0.96812712  0.58137269  1
  Na  Na8  1  0.31023619  0.97701444  0.08393873  1
  Na  Na9  1  0.67532239  0.68989295  0.08344829  1
  Na  Na10  1  0.02359582  0.34124384  0.08561795  1
  Na  Na11  1  0.95990711  0.66619301  0.92021310  1
  Na  Na12  1  0.70512080  0.03694045  0.91522879  1
  Na  Na13  1  0.96126962  0.29146215  0.41102332  1
  Na  Na14  1  0.33031079  0.03602980  0.41490347  1
  Na  Na15  1  0.99233989  0.98571885  0.49609156  1
  Na  Na16  1  0.01045297  0.00775070  0.00922649  1
  Na  Na17  1  0.65446253  0.32924806  0.83123898  1
  Na  Na18  1  0.66626627  0.33205538  0.33056222  1
  Na  Na19  1  0.34071964  0.67921908  0.16830123  1
  Na  Na20  1  0.34132474  0.67784902  0.66666554  1
  La  La21  1  0.01189247  0.01268490  0.85740619  1
  La  La22  1  0.00117611  0.00139163  0.65814477  1
  La  La23  1  0.66276539  0.32519557  0.67274564  1
  La  La24  1  0.66972946  0.32383925  0.18447975  1
  La  La25  1  0.65799740  0.33668962  0.98575158  1
  La  La26  1  0.66442011  0.34425090  0.47456145  1
  Al  Al27  1  0.98744269  0.99231288  0.34981392  1
  Al  Al28  1  0.99443134  0.99354774  0.15546569  1
  Al  Al29  1  0.33084717  0.66416084  0.01874529  1
  Al  Al30  1  0.33986434  0.67163613  0.50945861  1
  Al  Al31  1  0.34780509  0.67583115  0.31534992  1
  Al  Al32  1  0.33548848  0.66652769  0.81898807  1
  Si  Si33  1  0.67299643  0.99092291  0.75473773  1
  Si  Si34  1  0.34815438  0.00409188  0.57686815  1
  Si  Si35  1  0.99107533  0.65929988  0.08479861  1
  P  P36  1  0.26906561  0.98957060  0.25580671  1
  P  P37  1  0.71012335  0.72700610  0.25388664  1
  P  P38  1  0.01094507  0.28358377  0.25490358  1
  P  P39  1  0.31876096  0.33084580  0.75009878  1
  P  P40  1  0.01009538  0.68162984  0.75544205  1
  P  P41  1  0.99580606  0.34836852  0.57619860  1
  P  P42  1  0.65355550  0.64874085  0.58157032  1
  P  P43  1  0.66825526  0.00841998  0.08055935  1
  P  P44  1  0.33960854  0.33095059  0.08876195  1
  P  P45  1  0.60113867  0.66115596  0.91850215  1
  P  P46  1  0.06008111  0.39785515  0.91977984  1
  P  P47  1  0.33789592  0.93563335  0.91922716  1
  P  P48  1  0.62602125  0.93706297  0.41074827  1
  P  P49  1  0.31725738  0.38007562  0.40917219  1
  P  P50  1  0.06780633  0.68131088  0.40846603  1
  O  O51  1  0.17788459  0.00680532  0.31114173  1
  O  O52  1  0.82493623  0.81894506  0.30630012  1
  O  O53  1  0.99552392  0.17994992  0.31102024  1
  O  O54  1  0.22435896  0.18958163  0.79615524  1
  O  O55  1  0.97829554  0.77215601  0.80733731  1
  O  O56  1  0.80751137  0.03111851  0.80846401  1
  O  O57  1  0.74823215  0.95825270  0.69313900  1
  O  O58  1  0.22719987  0.27016151  0.68999099  1
  O  O59  1  0.04374261  0.78525182  0.69763768  1
  O  O60  1  0.79399494  0.82211141  0.19531930  1
  O  O61  1  0.01506693  0.18716657  0.19876594  1
  O  O62  1  0.16375574  0.97278583  0.19939609  1
  O  O63  1  0.93050847  0.38350715  0.63498460  1
  O  O64  1  0.45344592  0.07335683  0.63927141  1
  O  O65  1  0.62327522  0.55956408  0.64233715  1
  O  O66  1  0.90992335  0.52104184  0.13955525  1
  O  O67  1  0.60938168  0.08747629  0.12933283  1
  O  O68  1  0.45912139  0.38047476  0.14269733  1
  O  O69  1  0.41431643  0.27463642  0.03777806  1
  O  O70  1  0.85992500  0.58376954  0.02811630  1
  O  O71  1  0.71552189  0.12181099  0.02464077  1
  O  O72  1  0.44200184  0.14503009  0.52464598  1
  O  O73  1  0.70240998  0.55398077  0.53654308  1
  O  O74  1  0.86862795  0.31314660  0.52618455  1
  O  O75  1  0.50207125  0.64971989  0.97520546  1
  O  O76  1  0.14956061  0.49650018  0.97607398  1
  O  O77  1  0.35128452  0.84774912  0.97551423  1
  O  O78  1  0.54241416  0.84190785  0.46905537  1
  O  O79  1  0.31314798  0.47397333  0.46600170  1
  O  O80  1  0.17094423  0.69736471  0.46534385  1
  O  O81  1  0.16145172  0.66715850  0.35350711  1
  O  O82  1  0.51166267  0.84540440  0.35827739  1
  O  O83  1  0.33177623  0.48576669  0.35386574  1
  O  O84  1  0.15561848  0.48617597  0.86265753  1
  O  O85  1  0.32958592  0.83975544  0.86217916  1
  O  O86  1  0.51177391  0.66716951  0.86177457  1
  O  O87  1  0.04132690  0.83819303  0.40724619  1
  O  O88  1  0.81053222  0.96746927  0.40635569  1
  O  O89  1  0.15482436  0.19939098  0.41037454  1
  O  O90  1  0.02993609  0.21599488  0.92595618  1
  O  O91  1  0.17534761  0.94779073  0.92574161  1
  O  O92  1  0.77813963  0.82436190  0.92345809  1
  O  O93  1  0.01651809  0.19175215  0.58086184  1
  O  O94  1  0.15738993  0.97520982  0.58099848  1
  O  O95  1  0.80134627  0.83106721  0.58193864  1
  O  O96  1  0.00508255  0.84306842  0.09947481  1
  O  O97  1  0.82867349  0.00216980  0.09783506  1
  O  O98  1  0.16247079  0.17700448  0.10066613  1
  O  O99  1  0.64909650  0.15607090  0.75154297  1
  O  O100  1  0.50027294  0.36403707  0.74889719  1
  O  O101  1  0.85372806  0.50603454  0.75040844  1
  O  O102  1  0.69251787  0.54650454  0.25203516  1
  O  O103  1  0.85857149  0.31631930  0.25519374  1
  O  O104  1  0.44340645  0.15507775  0.25361155  1
  O  O105  1  0.63508507  0.51117335  0.91324090  1
  O  O106  1  0.88186586  0.38167985  0.91522751  1
  O  O107  1  0.49674427  0.11344727  0.91412048  1
  O  O108  1  0.64485655  0.11790080  0.41154930  1
  O  O109  1  0.46856073  0.34681100  0.40695566  1
  O  O110  1  0.89449498  0.51570743  0.40868030  1
  O  O111  1  0.32349606  0.48761111  0.07355506  1
  O  O112  1  0.18011855  0.68250977  0.07330319  1
  O  O113  1  0.51880104  0.82700821  0.07171977  1
  O  O114  1  0.34633837  0.82741858  0.56434845  1
  O  O115  1  0.48792458  0.64414432  0.56545854  1
  O  O116  1  0.16673895  0.50688210  0.56370059  1
  O  O117  1  0.29413671  0.83182720  0.25738814  1
  O  O118  1  0.52536290  0.69651584  0.25847410  1
  O  O119  1  0.17353578  0.46436114  0.25394593  1
  O  O120  1  0.31925391  0.49513642  0.76466039  1
  O  O121  1  0.16762228  0.66457012  0.76482031  1
  O  O122  1  0.49100439  0.82015546  0.76402539  1
