# generated using pymatgen
data_Ba2Mg(WO4)2
_symmetry_space_group_name_H-M   'P 1'
_cell_length_a   8.21788757
_cell_length_b   8.19127580
_cell_length_c   7.12623069
_cell_angle_alpha   129.78768881
_cell_angle_beta   125.51498780
_cell_angle_gamma   89.09107742
_symmetry_Int_Tables_number   1
_chemical_formula_structural   Ba2Mg(WO4)2
_chemical_formula_sum   'Ba2 Mg1 W2 O8'
_cell_volume   246.73214317
_cell_formula_units_Z   1
loop_
 _symmetry_equiv_pos_site_id
 _symmetry_equiv_pos_as_xyz
  1  'x, y, z'
loop_
 _atom_site_type_symbol
 _atom_site_label
 _atom_site_symmetry_multiplicity
 _atom_site_fract_x
 _atom_site_fract_y
 _atom_site_fract_z
 _atom_site_occupancy
  Ba  Ba0  1  0.61546300  0.86644900  0.27527300  1
  Ba  Ba1  1  0.33629600  0.13975100  0.72697400  1
  Mg  Mg2  1  0.72592600  0.98532000  0.97577600  1
  W  W3  1  0.14213100  0.39398000  0.26576500  1
  W  W4  1  0.88067900  0.60362900  0.73428500  1
  O  O5  1  0.85252500  0.80341600  0.05460500  1
  O  O6  1  0.21605900  0.78664300  0.10071800  1
  O  O7  1  0.36765900  0.74913100  0.62156900  1
  O  O8  1  0.25664600  0.37048500  0.55882000  1
  O  O9  1  0.10971300  0.20855400  0.89430400  1
  O  O10  1  0.79901700  0.19815800  0.95140300  1
  O  O11  1  0.74553200  0.24605900  0.36672000  1
  O  O12  1  0.69381600  0.64097600  0.45936000  1
