# generated using pymatgen
data_Na3Nb3AlSi3(PO8)3
_symmetry_space_group_name_H-M   'P 1'
_cell_length_a   8.78612933
_cell_length_b   8.80255391
_cell_length_c   22.51358546
_cell_angle_alpha   89.95894296
_cell_angle_beta   90.07055707
_cell_angle_gamma   119.94070494
_symmetry_Int_Tables_number   1
_chemical_formula_structural   Na3Nb3AlSi3(PO8)3
_chemical_formula_sum   'Na9 Nb9 Al3 Si9 P9 O72'
_cell_volume   1508.83041175
_cell_formula_units_Z   3
loop_
 _symmetry_equiv_pos_site_id
 _symmetry_equiv_pos_as_xyz
  1  'x, y, z'
loop_
 _atom_site_type_symbol
 _atom_site_label
 _atom_site_symmetry_multiplicity
 _atom_site_fract_x
 _atom_site_fract_y
 _atom_site_fract_z
 _atom_site_occupancy
  Na  Na0  1  0.63699302  0.00046300  0.24818080  1
  Na  Na1  1  0.37227697  0.36409697  0.24678661  1
  Na  Na2  1  0.70486017  0.67318187  0.41377236  1
  Na  Na3  1  0.00875725  0.00885976  0.49308166  1
  Na  Na4  1  0.00193220  0.00167111  0.99974294  1
  Na  Na5  1  0.66745919  0.33343234  0.82922199  1
  Na  Na6  1  0.67697817  0.33670257  0.33120824  1
  Na  Na7  1  0.32569966  0.66466744  0.16465540  1
  Na  Na8  1  0.33468340  0.66609844  0.66523440  1
  Nb  Nb9  1  0.00123692  0.00136492  0.85503994  1
  Nb  Nb10  1  0.99769683  0.99757902  0.64313316  1
  Nb  Nb11  1  0.99757517  0.99742952  0.14479151  1
  Nb  Nb12  1  0.66010934  0.33159913  0.97712643  1
  Nb  Nb13  1  0.66773687  0.33536390  0.47822972  1
  Nb  Nb14  1  0.33421085  0.66317563  0.02223402  1
  Nb  Nb15  1  0.33569683  0.66466481  0.52058560  1
  Nb  Nb16  1  0.33209007  0.66696158  0.31438005  1
  Nb  Nb17  1  0.33318027  0.66649580  0.81132822  1
  Al  Al18  1  0.99783979  0.99555861  0.35596193  1
  Al  Al19  1  0.66431882  0.33486379  0.68541184  1
  Al  Al20  1  0.67319514  0.34726156  0.18543456  1
  Si  Si21  1  0.71993827  0.70426636  0.25306496  1
  Si  Si22  1  0.66246747  0.61084005  0.58771053  1
  Si  Si23  1  0.38518135  0.33468895  0.08810454  1
  Si  Si24  1  0.62100334  0.66812350  0.91624247  1
  Si  Si25  1  0.04638645  0.38055087  0.91633702  1
  Si  Si26  1  0.33301759  0.95084758  0.91683288  1
  Si  Si27  1  0.63123918  0.96063046  0.41577977  1
  Si  Si28  1  0.31754090  0.36201798  0.41536564  1
  Si  Si29  1  0.04633515  0.67661686  0.41710597  1
  P  P30  1  0.28675263  0.00313688  0.25166911  1
  P  P31  1  0.99135294  0.28342435  0.25079770  1
  P  P32  1  0.29856985  0.28829474  0.74809639  1
  P  P33  1  0.99035959  0.70190935  0.74832976  1
  P  P34  1  0.71142256  0.01062261  0.74806752  1
  P  P35  1  0.94824550  0.33647041  0.58757352  1
  P  P36  1  0.38832037  0.05140845  0.58730964  1
  P  P37  1  0.94813310  0.61266907  0.08612644  1
  P  P38  1  0.66425232  0.05307855  0.08719923  1
  O  O39  1  0.19941675  0.03467827  0.30477653  1
  O  O40  1  0.83180811  0.80386313  0.31067203  1
  O  O41  1  0.96296687  0.16700300  0.30439117  1
  O  O42  1  0.20243455  0.17498579  0.80365383  1
  O  O43  1  0.97112311  0.79704984  0.80362125  1
  O  O44  1  0.82534963  0.03007434  0.80359503  1
  O  O45  1  0.80264389  0.97785310  0.69420825  1
  O  O46  1  0.17550199  0.19864763  0.69438237  1
  O  O47  1  0.02285764  0.82556731  0.69440326  1
  O  O48  1  0.80550745  0.83602778  0.19475035  1
  O  O49  1  0.03238687  0.20320252  0.19451867  1
  O  O50  1  0.17409545  0.97495988  0.19445484  1
  O  O51  1  0.85950889  0.35705115  0.64167398  1
  O  O52  1  0.49934238  0.13620154  0.64157976  1
  O  O53  1  0.63786441  0.49273573  0.64332636  1
  O  O54  1  0.86431631  0.50272749  0.14093457  1
  O  O55  1  0.64414653  0.13839819  0.14331289  1
  O  O56  1  0.49768374  0.35844427  0.14644741  1
  O  O57  1  0.47237526  0.30690940  0.02768701  1
  O  O58  1  0.84147345  0.53462918  0.02882899  1
  O  O59  1  0.69459743  0.16169714  0.03018173  1
  O  O60  1  0.46625590  0.16044559  0.52983863  1
  O  O61  1  0.69578609  0.53474818  0.52525207  1
  O  O62  1  0.83944928  0.30332904  0.52971346  1
  O  O63  1  0.53275307  0.70001430  0.97489870  1
  O  O64  1  0.16883992  0.46924762  0.97470911  1
  O  O65  1  0.30083147  0.83258322  0.97545442  1
  O  O66  1  0.53091925  0.82930612  0.47225099  1
  O  O67  1  0.30014083  0.46701911  0.47318209  1
  O  O68  1  0.16700292  0.69734724  0.47470637  1
  O  O69  1  0.13526207  0.63510800  0.35942314  1
  O  O70  1  0.50386574  0.87018128  0.35669790  1
  O  O71  1  0.36935484  0.49814355  0.35781938  1
  O  O72  1  0.13712631  0.50100587  0.85787719  1
  O  O73  1  0.36329365  0.86131744  0.85816641  1
  O  O74  1  0.49946146  0.63587500  0.85796326  1
  O  O75  1  0.01999335  0.84060575  0.40822310  1
  O  O76  1  0.81523623  0.97038179  0.40744214  1
  O  O77  1  0.15100409  0.17699695  0.40470465  1
  O  O78  1  0.02773859  0.18868497  0.90729094  1
  O  O79  1  0.16246756  0.97412111  0.90722684  1
  O  O80  1  0.81298876  0.84021000  0.90733086  1
  O  O81  1  0.97409972  0.17214790  0.59228685  1
  O  O82  1  0.20015333  0.03126532  0.59227426  1
  O  O83  1  0.83686494  0.81146228  0.59255326  1
  O  O84  1  0.96968653  0.80016275  0.09116688  1
  O  O85  1  0.82910022  0.02826993  0.09130049  1
  O  O86  1  0.18620434  0.16151921  0.09095017  1
  O  O87  1  0.69247775  0.17194086  0.74067641  1
  O  O88  1  0.47844923  0.30448125  0.74247122  1
  O  O89  1  0.83016434  0.52084634  0.74186342  1
  O  O90  1  0.68683296  0.50797245  0.24324129  1
  O  O91  1  0.82776095  0.30136924  0.24017703  1
  O  O92  1  0.47508175  0.16069498  0.24351036  1
  O  O93  1  0.64279762  0.49733371  0.92390099  1
  O  O94  1  0.85481421  0.35877926  0.92472496  1
  O  O95  1  0.50552435  0.14314315  0.92362151  1
  O  O96  1  0.64031709  0.14751222  0.42391350  1
  O  O97  1  0.50410886  0.36262677  0.42425133  1
  O  O98  1  0.85390788  0.49787811  0.42406637  1
  O  O99  1  0.35925766  0.50573108  0.07914699  1
  O  O100  1  0.13614327  0.64104897  0.07918503  1
  O  O101  1  0.50192541  0.86737565  0.07991868  1
  O  O102  1  0.35976073  0.86457878  0.57830413  1
  O  O103  1  0.49481906  0.64198297  0.57830680  1
  O  O104  1  0.13358726  0.49736228  0.57899047  1
  O  O105  1  0.30673760  0.83591984  0.25442641  1
  O  O106  1  0.52036978  0.68923780  0.25475228  1
  O  O107  1  0.16293453  0.46686899  0.25501063  1
  O  O108  1  0.31029371  0.47037749  0.75458679  1
  O  O109  1  0.16233492  0.69207712  0.75408014  1
  O  O110  1  0.52990539  0.83953270  0.75418196  1
