# generated using pymatgen
data_Na30Ca8Ta16Si27(SO16)9
_symmetry_space_group_name_H-M   'P 1'
_cell_length_a   18.29982206
_cell_length_b   9.13644424
_cell_length_c   22.87093972
_cell_angle_alpha   89.91022396
_cell_angle_beta   89.87692978
_cell_angle_gamma   119.94880184
_symmetry_Int_Tables_number   1
_chemical_formula_structural   Na30Ca8Ta16Si27(SO16)9
_chemical_formula_sum   'Na30 Ca8 Ta16 Si27 S9 O144'
_cell_volume   3313.29056337
_cell_formula_units_Z   1
loop_
 _symmetry_equiv_pos_site_id
 _symmetry_equiv_pos_as_xyz
  1  'x, y, z'
loop_
 _atom_site_type_symbol
 _atom_site_label
 _atom_site_symmetry_multiplicity
 _atom_site_fract_x
 _atom_site_fract_y
 _atom_site_fract_z
 _atom_site_occupancy
  Na  Na0  1  0.18066809  0.00425016  0.73881062  1
  Na  Na1  1  0.65971968  0.34137303  0.59040435  1
  Na  Na2  1  0.01093811  0.67190855  0.58939726  1
  Na  Na3  1  0.50858656  0.66805817  0.58924594  1
  Na  Na4  1  0.66001702  0.97855551  0.08886366  1
  Na  Na5  1  0.50682211  0.34879478  0.08851687  1
  Na  Na6  1  0.48190943  0.68245436  0.90914231  1
  Na  Na7  1  0.98403510  0.68431071  0.90980722  1
  Na  Na8  1  0.35672908  0.03460663  0.91902436  1
  Na  Na9  1  0.85655030  0.03478687  0.91607999  1
  Na  Na10  1  0.15953956  0.28942505  0.91874139  1
  Na  Na11  1  0.65995107  0.28758013  0.91587685  1
  Na  Na12  1  0.48263770  0.28386402  0.40729317  1
  Na  Na13  1  0.98351315  0.28652351  0.41748752  1
  Na  Na14  1  0.15976995  0.03437133  0.41707864  1
  Na  Na15  1  0.65875260  0.03024347  0.41530909  1
  Na  Na16  1  0.35827265  0.67887025  0.41640576  1
  Na  Na17  1  0.85638819  0.68082512  0.41606077  1
  Na  Na18  1  0.99942818  0.01154750  0.49641980  1
  Na  Na19  1  0.49528430  0.00278285  0.49438619  1
  Na  Na20  1  0.00055295  0.99874328  0.99311021  1
  Na  Na21  1  0.49406154  0.98638374  0.99372678  1
  Na  Na22  1  0.34883827  0.36946467  0.82763991  1
  Na  Na23  1  0.84068032  0.35154045  0.82351824  1
  Na  Na24  1  0.34225143  0.33126163  0.32248888  1
  Na  Na25  1  0.83212963  0.33251642  0.32681340  1
  Na  Na26  1  0.16670166  0.66556096  0.16014557  1
  Na  Na27  1  0.67247188  0.66234748  0.16821643  1
  Na  Na28  1  0.17125828  0.64921580  0.66578400  1
  Na  Na29  1  0.67338522  0.68370434  0.67002811  1
  Ca  Ca30  1  0.99969888  0.00071164  0.35178545  1
  Ca  Ca31  1  0.50028868  0.00233489  0.35060905  1
  Ca  Ca32  1  0.99856928  0.99583897  0.85223004  1
  Ca  Ca33  1  0.49985345  0.99719393  0.85171123  1
  Ca  Ca34  1  0.33881564  0.34318180  0.68127680  1
  Ca  Ca35  1  0.83611674  0.33646671  0.68316833  1
  Ca  Ca36  1  0.33584919  0.33414072  0.18203299  1
  Ca  Ca37  1  0.83416853  0.33525791  0.18094962  1
  Ta  Ta38  1  -0.00002910  0.99149304  0.64425739  1
  Ta  Ta39  1  0.49903201  0.98564768  0.64461826  1
  Ta  Ta40  1  0.00117327  0.99773549  0.13975943  1
  Ta  Ta41  1  0.49706832  0.01210907  0.14373145  1
  Ta  Ta42  1  0.33321153  0.33769207  0.98264675  1
  Ta  Ta43  1  0.83461399  0.33705108  0.98248071  1
  Ta  Ta44  1  0.33423206  0.33078135  0.48305884  1
  Ta  Ta45  1  0.83401509  0.33057802  0.48184216  1
  Ta  Ta46  1  0.16610860  0.66417378  0.02106858  1
  Ta  Ta47  1  0.66845390  0.66814628  0.01991935  1
  Ta  Ta48  1  0.16728659  0.66683529  0.52098130  1
  Ta  Ta49  1  0.66857386  0.66995282  0.51922054  1
  Ta  Ta50  1  0.16761773  0.66829620  0.31525921  1
  Ta  Ta51  1  0.66230466  0.65553860  0.31385381  1
  Ta  Ta52  1  0.16219310  0.66728867  0.81594439  1
  Ta  Ta53  1  0.66291535  0.66961718  0.81490139  1
  Si  Si54  1  0.50166104  0.30426275  0.25428609  1
  Si  Si55  1  0.00306709  0.69990964  0.75389272  1
  Si  Si56  1  0.50275830  0.69939862  0.75472485  1
  Si  Si57  1  0.48274556  0.32980692  0.58222368  1
  Si  Si58  1  0.98125242  0.32983071  0.58303398  1
  Si  Si59  1  0.18579322  0.03614752  0.58627522  1
  Si  Si60  1  0.68721829  0.03500481  0.58438343  1
  Si  Si61  1  0.33038549  0.62601358  0.58323101  1
  Si  Si62  1  0.83158731  0.62671961  0.58236313  1
  Si  Si63  1  0.48171165  0.63376566  0.08307437  1
  Si  Si64  1  0.98218687  0.62484438  0.08418632  1
  Si  Si65  1  0.32871713  0.03442267  0.08306197  1
  Si  Si66  1  0.83302897  0.03828989  0.08337019  1
  Si  Si67  1  0.18793020  0.33875923  0.08508736  1
  Si  Si68  1  0.68653648  0.33912930  0.08424422  1
  Si  Si69  1  0.30616838  0.65560591  0.91646419  1
  Si  Si70  1  0.80643655  0.65413261  0.91560984  1
  Si  Si71  1  0.01867703  0.38378467  0.91890770  1
  Si  Si72  1  0.51897299  0.38536933  0.91893930  1
  Si  Si73  1  0.17318498  0.96376604  0.91864310  1
  Si  Si74  1  0.67323905  0.96445401  0.91844492  1
  Si  Si75  1  0.30733525  0.96044374  0.41754825  1
  Si  Si76  1  0.80635497  0.95957655  0.41444911  1
  Si  Si77  1  0.17301160  0.38551825  0.41763627  1
  Si  Si78  1  0.67304869  0.38255199  0.41828589  1
  Si  Si79  1  0.01968064  0.65522218  0.41809482  1
  Si  Si80  1  0.51894664  0.65279776  0.41817777  1
  S  S81  1  0.14376569  0.98538864  0.25055155  1
  S  S82  1  0.64776943  0.98962208  0.25066193  1
  S  S83  1  0.34746520  0.71014396  0.25079618  1
  S  S84  1  0.85035766  0.71095062  0.25099105  1
  S  S85  1  0.00695613  0.30432029  0.25112244  1
  S  S86  1  0.14374678  0.29972689  0.75012600  1
  S  S87  1  0.64514974  0.30300059  0.74972032  1
  S  S88  1  0.34974870  0.98705371  0.75023429  1
  S  S89  1  0.84953520  0.98613851  0.75034144  1
  O  O90  1  0.10616639  0.99465800  0.30697633  1
  O  O91  1  0.60740388  -0.00332188  0.30571430  1
  O  O92  1  0.39029039  0.78123933  0.30689628  1
  O  O93  1  0.89336616  0.78342159  0.30713149  1
  O  O94  1  0.49982197  0.21471413  0.31466661  1
  O  O95  1  0.00164941  0.22028162  0.30772009  1
  O  O96  1  0.10562583  0.21403284  0.80575660  1
  O  O97  1  0.60467950  0.21509552  0.80453077  1
  O  O98  1  0.49936307  0.78379724  0.81474868  1
  O  O99  1  0.00601903  0.79161070  0.81387343  1
  O  O100  1  0.39373358  0.00683899  0.80543415  1
  O  O101  1  0.89315786  0.00465495  0.80627310  1
  O  O102  1  0.40068452  0.98166856  0.69908338  1
  O  O103  1  0.90081566  0.97553430  0.70001399  1
  O  O104  1  0.08770096  0.20375744  0.69920041  1
  O  O105  1  0.59089878  0.20828602  0.69712338  1
  O  O106  1  0.01335903  0.83554364  0.69606592  1
  O  O107  1  0.50929261  0.83059840  0.69579039  1
  O  O108  1  0.39741816  0.82251264  0.20049412  1
  O  O109  1  0.90108649  0.82278599  0.20079479  1
  O  O110  1  0.01348365  0.20573007  0.20133661  1
  O  O111  1  0.50878220  0.18744959  0.19592866  1
  O  O112  1  0.08655388  0.97019270  0.20068650  1
  O  O113  1  0.59506573  0.97731014  0.19835301  1
  O  O114  1  0.45393090  0.40502791  0.63368132  1
  O  O115  1  0.95274923  0.40644910  0.63429791  1
  O  O116  1  0.23259215  0.09105636  0.64698419  1
  O  O117  1  0.74015605  0.09929708  0.64172659  1
  O  O118  1  0.30791488  0.52087118  0.64136655  1
  O  O119  1  0.79681154  0.49920224  0.63549238  1
  O  O120  1  0.45408185  0.50200978  0.13488239  1
  O  O121  1  0.95184336  0.52202223  0.14280326  1
  O  O122  1  0.31051865  0.09791750  0.14179912  1
  O  O123  1  0.79787003  0.09289553  0.13730553  1
  O  O124  1  0.23967705  0.38129390  0.14309818  1
  O  O125  1  0.73832396  0.37849564  0.14229757  1
  O  O126  1  0.23417828  0.30295180  0.02631348  1
  O  O127  1  0.73174675  0.29861925  0.02643843  1
  O  O128  1  0.41853808  0.53953912  0.02427769  1
  O  O129  1  0.91662402  0.53198464  0.02670221  1
  O  O130  1  0.35215944  0.17015350  0.02576361  1
  O  O131  1  0.85054164  0.16549312  0.02505017  1
  O  O132  1  0.23722580  0.16627694  0.52939224  1
  O  O133  1  0.73307678  0.16655301  0.52609232  1
  O  O134  1  0.35229819  0.53536493  0.52588313  1
  O  O135  1  0.85321849  0.53705103  0.52452837  1
  O  O136  1  0.41931382  0.29889671  0.52361360  1
  O  O137  1  0.91773202  0.29744089  0.52364948  1
  O  O138  1  0.25316862  0.66622771  0.97105621  1
  O  O139  1  0.75155349  0.66153564  0.97078559  1
  O  O140  1  0.07929693  0.48687649  0.97207381  1
  O  O141  1  0.57581578  0.48680632  0.97502993  1
  O  O142  1  0.16386637  0.83641909  0.97033702  1
  O  O143  1  0.66597444  0.84566810  0.97353644  1
  O  O144  1  0.25157512  0.84114333  0.47094402  1
  O  O145  1  0.75373534  0.84223668  0.47026558  1
  O  O146  1  0.16314998  0.49124572  0.47041507  1
  O  O147  1  0.66635814  0.48657034  0.47354517  1
  O  O148  1  0.07667959  0.67197242  0.47419061  1
  O  O149  1  0.57655392  0.66623356  0.47403777  1
  O  O150  1  0.07157151  0.63505406  0.35940189  1
  O  O151  1  0.56976925  0.63276226  0.35986024  1
  O  O152  1  0.24736326  0.86138623  0.35778263  1
  O  O153  1  0.74750673  0.86390196  0.35658505  1
  O  O154  1  0.18456318  0.50737276  0.35774197  1
  O  O155  1  0.68454069  0.50620235  0.36015142  1
  O  O156  1  0.06816110  0.50526092  0.85885389  1
  O  O157  1  0.57041304  0.50674918  0.86027087  1
  O  O158  1  0.18413505  0.86775329  0.85711231  1
  O  O159  1  0.68444637  0.86307105  0.86014676  1
  O  O160  1  0.24645092  0.63379710  0.85727054  1
  O  O161  1  0.74755823  0.63193692  0.85716431  1
  O  O162  1  0.00807478  0.81844539  0.41597459  1
  O  O163  1  0.50866565  0.81717789  0.41725442  1
  O  O164  1  0.39832938  0.97551295  0.41804724  1
  O  O165  1  0.89978574  0.98291765  0.41629961  1
  O  O166  1  0.09096219  0.19973924  0.41614763  1
  O  O167  1  0.59269540  0.19525062  0.41938779  1
  O  O168  1  0.00736851  0.19844118  0.91649948  1
  O  O169  1  0.50895636  0.20065424  0.91779127  1
  O  O170  1  0.09339301  0.99230527  0.91859742  1
  O  O171  1  0.59236325  0.98928576  0.91931649  1
  O  O172  1  0.39817314  0.82175537  0.91725310  1
  O  O173  1  0.89815110  0.82063985  0.91849889  1
  O  O174  1  0.49074036  0.15996886  0.59440591  1
  O  O175  1  0.98548686  0.15561060  0.59534493  1
  O  O176  1  0.08967289  0.02200192  0.59172488  1
  O  O177  1  0.59223007  0.02716506  0.59216800  1
  O  O178  1  0.42216264  0.81419989  0.59099392  1
  O  O179  1  0.92137617  0.80918858  0.59323246  1
  O  O180  1  0.48990882  0.82007791  0.09626532  1
  O  O181  1  0.98754114  0.81670803  0.09318784  1
  O  O182  1  0.42150436  0.02965976  0.09051813  1
  O  O183  1  0.92028103  0.02624615  0.09627324  1
  O  O184  1  0.09195801  0.15796917  0.09451226  1
  O  O185  1  0.59127975  0.15694699  0.09258765  1
  O  O186  1  0.33185556  0.12674917  0.74489679  1
  O  O187  1  0.83489649  0.12747163  0.74392211  1
  O  O188  1  0.22592913  0.30843577  0.74512201  1
  O  O189  1  0.72866594  0.32137297  0.74598234  1
  O  O190  1  0.42543146  0.51259503  0.74899509  1
  O  O191  1  0.92476414  0.51490199  0.74982792  1
  O  O192  1  0.33225940  0.53914964  0.24547919  1
  O  O193  1  0.83730017  0.53983323  0.24697492  1
  O  O194  1  0.42511204  0.33835196  0.24963206  1
  O  O195  1  0.93398690  0.32859979  0.24715287  1
  O  O196  1  0.22752942  0.12962502  0.24578072  1
  O  O197  1  0.73270053  0.13734901  0.24849741  1
  O  O198  1  0.31192861  0.48000933  0.92160892  1
  O  O199  1  0.81240316  0.47964460  0.92301729  1
  O  O200  1  0.42727603  0.37811760  0.92190267  1
  O  O201  1  0.92717947  0.37775453  0.92267255  1
  O  O202  1  0.26200563  0.14636976  0.92332967  1
  O  O203  1  0.76169300  0.14706996  0.92294624  1
  O  O204  1  0.31111200  0.14447459  0.42212508  1
  O  O205  1  0.81166928  0.14585752  0.42179210  1
  O  O206  1  0.25995237  0.37552469  0.42425903  1
  O  O207  1  0.76209890  0.37745723  0.42255037  1
  O  O208  1  0.42659056  0.47764861  0.42235920  1
  O  O209  1  0.92783175  0.47801471  0.42092700  1
  O  O210  1  0.16392648  0.48408632  0.06927926  1
  O  O211  1  0.65907540  0.48252396  0.07175301  1
  O  O212  1  0.07823117  0.67062056  0.06890957  1
  O  O213  1  0.58063021  0.68019948  0.06910334  1
  O  O214  1  0.25637823  0.84197196  0.06851693  1
  O  O215  1  0.75764531  0.84434846  0.06829513  1
  O  O216  1  0.16087072  0.83984867  0.57123914  1
  O  O217  1  0.65953622  0.83738129  0.57046232  1
  O  O218  1  0.25739078  0.67304337  0.56808213  1
  O  O219  1  0.75743354  0.67200783  0.56777747  1
  O  O220  1  0.07763761  0.48469531  0.56758918  1
  O  O221  1  0.58098919  0.48286923  0.56858380  1
  O  O222  1  0.14689974  0.82100685  0.25157139  1
  O  O223  1  0.65219333  0.82815981  0.25127598  1
  O  O224  1  0.26304611  0.70799014  0.25183520  1
  O  O225  1  0.76707460  0.70770016  0.25123048  1
  O  O226  1  0.08835897  0.47553497  0.25214289  1
  O  O227  1  0.59611365  0.49197401  0.25449085  1
  O  O228  1  0.15204121  0.47160477  0.75032274  1
  O  O229  1  0.64994817  0.47301703  0.74984690  1
  O  O230  1  0.09888135  0.70421162  0.75208855  1
  O  O231  1  0.59665637  0.70069838  0.75440704  1
  O  O232  1  0.26670477  0.82247015  0.74999943  1
  O  O233  1  0.76721794  0.82051102  0.75092317  1
