# generated using pymatgen
data_NaCaTa3Si3(SO8)3
_symmetry_space_group_name_H-M   'P 1'
_cell_length_a   8.93782279
_cell_length_b   8.94035894
_cell_length_c   23.24954442
_cell_angle_alpha   90.06629457
_cell_angle_beta   89.73478151
_cell_angle_gamma   119.98658660
_symmetry_Int_Tables_number   1
_chemical_formula_structural   NaCaTa3Si3(SO8)3
_chemical_formula_sum   'Na3 Ca3 Ta9 Si9 S9 O72'
_cell_volume   1609.10883242
_cell_formula_units_Z   3
loop_
 _symmetry_equiv_pos_site_id
 _symmetry_equiv_pos_as_xyz
  1  'x, y, z'
loop_
 _atom_site_type_symbol
 _atom_site_label
 _atom_site_symmetry_multiplicity
 _atom_site_fract_x
 _atom_site_fract_y
 _atom_site_fract_z
 _atom_site_occupancy
  Na  Na0  1  0.99614523  0.00082925  0.99282379  1
  Na  Na1  1  0.69007676  0.34092046  0.84012996  1
  Na  Na2  1  0.65328672  0.33326101  0.33786346  1
  Ca  Ca3  1  0.99214006  0.00032134  0.85408865  1
  Ca  Ca4  1  0.68105707  0.34342337  0.97842205  1
  Ca  Ca5  1  0.65358936  0.32977963  0.47848706  1
  Ta  Ta6  1  0.00973012  0.01028442  0.35318225  1
  Ta  Ta7  1  0.99557465  0.98493460  0.65022634  1
  Ta  Ta8  1  0.00077101  0.99281548  0.15132891  1
  Ta  Ta9  1  0.66114122  0.31576953  0.68627271  1
  Ta  Ta10  1  0.68009171  0.34252340  0.19024094  1
  Ta  Ta11  1  0.31888172  0.65413589  0.02215393  1
  Ta  Ta12  1  0.33002740  0.66335602  0.52177574  1
  Ta  Ta13  1  0.33427233  0.65712144  0.30515068  1
  Ta  Ta14  1  0.32219454  0.66567594  0.80811106  1
  Si  Si15  1  0.29140253  0.00322829  0.25095745  1
  Si  Si16  1  0.71994266  0.71528398  0.25244984  1
  Si  Si17  1  0.99732395  0.28148510  0.24965962  1
  Si  Si18  1  0.98949186  0.69883922  0.75140988  1
  Si  Si19  1  0.70926659  0.99543200  0.75171753  1
  Si  Si20  1  0.36865357  0.03996697  0.58153834  1
  Si  Si21  1  0.95877455  0.63097420  0.08295194  1
  Si  Si22  1  0.04360544  0.37150385  0.91471932  1
  Si  Si23  1  0.33176075  0.38096420  0.41419434  1
  S  S24  1  0.29556568  0.29401518  0.74793322  1
  S  S25  1  0.96162323  0.33083837  0.58415483  1
  S  S26  1  0.66634086  0.62969651  0.58377324  1
  S  S27  1  0.66894432  0.03916434  0.08532092  1
  S  S28  1  0.37203703  0.33159915  0.08478502  1
  S  S29  1  0.60850556  0.66550747  0.91677640  1
  S  S30  1  0.33306224  0.94311129  0.91702368  1
  S  S31  1  0.61784983  0.94219461  0.41411479  1
  S  S32  1  0.05718415  0.67444836  0.41457830  1
  O  O33  1  0.19675305  0.03607387  0.30712880  1
  O  O34  1  0.83985567  0.80366840  0.30846146  1
  O  O35  1  0.96428039  0.15933102  0.30651514  1
  O  O36  1  0.23867809  0.19183659  0.79987696  1
  O  O37  1  0.94913180  0.76521207  0.80806332  1
  O  O38  1  0.82445356  0.06133798  0.80648385  1
  O  O39  1  0.80798426  0.97744848  0.69363957  1
  O  O40  1  0.18206936  0.20909240  0.69745262  1
  O  O41  1  0.02289629  0.82872168  0.69461543  1
  O  O42  1  0.80718970  0.83339536  0.19535590  1
  O  O43  1  0.02869668  0.19584362  0.19347024  1
  O  O44  1  0.16645968  0.97185225  0.19586416  1
  O  O45  1  0.87735856  0.36563621  0.63448951  1
  O  O46  1  0.49803049  0.13926886  0.63714063  1
  O  O47  1  0.63322885  0.51843500  0.63423284  1
  O  O48  1  0.85883968  0.50099663  0.14000696  1
  O  O49  1  0.64033017  0.12511809  0.13667391  1
  O  O50  1  0.48306014  0.35730963  0.13571410  1
  O  O51  1  0.43519551  0.29351174  0.03243727  1
  O  O52  1  0.84641539  0.56535657  0.02761627  1
  O  O53  1  0.70314658  0.14173302  0.03354753  1
  O  O54  1  0.44044789  0.14921007  0.52558537  1
  O  O55  1  0.70789743  0.56852811  0.53199185  1
  O  O56  1  0.86225148  0.29922954  0.53211640  1
  O  O57  1  0.51759309  0.67732773  0.97094537  1
  O  O58  1  0.16520123  0.49278683  0.97337639  1
  O  O59  1  0.32900029  0.84220010  0.97025970  1
  O  O60  1  0.53026305  0.83853783  0.46809480  1
  O  O61  1  0.30958651  0.48080368  0.47261588  1
  O  O62  1  0.16203673  0.69620171  0.46879693  1
  O  O63  1  0.14778073  0.65900947  0.36388960  1
  O  O64  1  0.50808814  0.85711244  0.36354768  1
  O  O65  1  0.33844894  0.50483388  0.36060840  1
  O  O66  1  0.16407303  0.49835266  0.85971696  1
  O  O67  1  0.34782684  0.85539441  0.86321013  1
  O  O68  1  0.51075256  0.66265112  0.86451101  1
  O  O69  1  0.04358472  0.83281870  0.40920630  1
  O  O70  1  0.78627280  0.94737615  0.40875899  1
  O  O71  1  0.15103965  0.19289368  0.40530803  1
  O  O72  1  0.05134204  0.19979359  0.92384024  1
  O  O73  1  0.17310320  0.94683813  0.91698750  1
  O  O74  1  0.77831246  0.81954035  0.91844759  1
  O  O75  1  0.99277528  0.18862218  0.59832684  1
  O  O76  1  0.18027282  0.01510347  0.60138806  1
  O  O77  1  0.81509660  0.80776471  0.59598159  1
  O  O78  1  0.99477151  0.82778693  0.09756960  1
  O  O79  1  0.82344485  0.01850694  0.09631864  1
  O  O80  1  0.19295071  0.18613139  0.09598768  1
  O  O81  1  0.67324827  0.15887701  0.73373016  1
  O  O82  1  0.47518230  0.32471059  0.73423956  1
  O  O83  1  0.83060472  0.51168343  0.72899999  1
  O  O84  1  0.69056074  0.52092264  0.23956973  1
  O  O85  1  0.82567574  0.30198386  0.24039098  1
  O  O86  1  0.47887888  0.17141507  0.23665233  1
  O  O87  1  0.61042676  0.50317310  0.91746422  1
  O  O88  1  0.86664801  0.37190733  0.91129751  1
  O  O89  1  0.48864649  0.11161546  0.91862157  1
  O  O90  1  0.64333590  0.11559086  0.41812581  1
  O  O91  1  0.50012597  0.36507237  0.41085761  1
  O  O92  1  0.88881944  0.52017425  0.41958320  1
  O  O93  1  0.35992268  0.49361775  0.07753569  1
  O  O94  1  0.15522086  0.65354934  0.07439030  1
  O  O95  1  0.51536759  0.86446228  0.07821699  1
  O  O96  1  0.34703900  0.84400915  0.57015842  1
  O  O97  1  0.50950785  0.65070006  0.57432157  1
  O  O98  1  0.13734539  0.49403300  0.57600910  1
  O  O99  1  0.30968046  0.83659688  0.26605002  1
  O  O100  1  0.52911258  0.69400461  0.26158851  1
  O  O101  1  0.16041015  0.47404426  0.26133174  1
  O  O102  1  0.31561667  0.46823712  0.75457382  1
  O  O103  1  0.16565392  0.68146768  0.75791235  1
  O  O104  1  0.51772042  0.82487777  0.76055465  1
