# generated using pymatgen
data_Na3CaTi(PO4)3
_symmetry_space_group_name_H-M   'P 1'
_cell_length_a   15.84816757
_cell_length_b   9.18794490
_cell_length_c   8.99139299
_cell_angle_alpha   90.00000000
_cell_angle_beta   125.56664645
_cell_angle_gamma   90.00000000
_symmetry_Int_Tables_number   1
_chemical_formula_structural   Na3CaTi(PO4)3
_chemical_formula_sum   'Na12 Ca4 Ti4 P12 O48'
_cell_volume   1065.00015511
_cell_formula_units_Z   4
loop_
 _symmetry_equiv_pos_site_id
 _symmetry_equiv_pos_as_xyz
  1  'x, y, z'
loop_
 _atom_site_type_symbol
 _atom_site_label
 _atom_site_symmetry_multiplicity
 _atom_site_fract_x
 _atom_site_fract_y
 _atom_site_fract_z
 _atom_site_occupancy
  Na  Na0  1  0.25590558  0.72938705  0.99633210  1
  Na  Na1  1  0.75590558  0.77061295  0.49633210  1
  Na  Na2  1  0.75590558  0.22938705  0.99633210  1
  Na  Na3  1  0.25590558  0.27061295  0.49633210  1
  Na  Na4  1  0.50358526  0.10210506  0.74541036  1
  Na  Na5  1  0.50358526  0.89789494  0.24541036  1
  Na  Na6  1  0.00358526  0.60210506  0.74541036  1
  Na  Na7  1  0.00358526  0.39789494  0.24541036  1
  Na  Na8  1  0.18589342  0.93813525  0.30005379  1
  Na  Na9  1  0.18589342  0.06186475  0.80005379  1
  Na  Na10  1  0.68589342  0.43813525  0.30005379  1
  Na  Na11  1  0.68589342  0.56186475  0.80005379  1
  Ca  Ca12  1  0.10385068  0.74781892  0.56406778  1
  Ca  Ca13  1  0.10385068  0.25218108  0.06406778  1
  Ca  Ca14  1  0.60385068  0.24781892  0.56406778  1
  Ca  Ca15  1  0.60385068  0.75218108  0.06406778  1
  Ti  Ti16  1  0.89666363  0.75971377  0.94527688  1
  Ti  Ti17  1  0.89666363  0.24028623  0.44527688  1
  Ti  Ti18  1  0.39666363  0.25971377  0.94527688  1
  Ti  Ti19  1  0.39666363  0.74028623  0.44527688  1
  P  P20  1  0.98997738  0.95455043  0.75785589  1
  P  P21  1  0.98997738  0.04544957  0.25785589  1
  P  P22  1  0.48997738  0.45455043  0.75785589  1
  P  P23  1  0.48997738  0.54544957  0.25785589  1
  P  P24  1  0.35535989  0.91789599  0.75513330  1
  P  P25  1  0.65065660  0.87765038  0.74390858  1
  P  P26  1  0.65065660  0.12234962  0.24390858  1
  P  P27  1  0.35535989  0.08210401  0.25513330  1
  P  P28  1  0.85535989  0.41789599  0.75513330  1
  P  P29  1  0.15065660  0.37765038  0.74390858  1
  P  P30  1  0.15065660  0.62234962  0.24390858  1
  P  P31  1  0.85535989  0.58210401  0.25513330  1
  O  O32  1  0.15829519  0.54336182  0.74495308  1
  O  O33  1  0.85167872  0.58943640  0.74078199  1
  O  O34  1  0.85167872  0.41056360  0.24078199  1
  O  O35  1  0.15829519  0.45663818  0.24495308  1
  O  O36  1  0.65829519  0.04336182  0.74495308  1
  O  O37  1  0.35167872  0.08943640  0.74078199  1
  O  O38  1  0.35167872  0.91056360  0.24078199  1
  O  O39  1  0.65829519  0.95663818  0.24495308  1
  O  O40  1  0.43175355  0.57004719  0.59086027  1
  O  O41  1  0.55887331  0.53680681  0.93415854  1
  O  O42  1  0.55887331  0.46319319  0.43415854  1
  O  O43  1  0.43175355  0.42995281  0.09086027  1
  O  O44  1  0.93175355  0.07004719  0.59086027  1
  O  O45  1  0.05887331  0.03680681  0.93415854  1
  O  O46  1  0.05887331  0.96319319  0.43415854  1
  O  O47  1  0.93175355  0.92995281  0.09086027  1
  O  O48  1  0.26174550  0.86618867  0.74966521  1
  O  O49  1  0.73996119  0.80061993  0.74486308  1
  O  O50  1  0.73996119  0.19938007  0.24486308  1
  O  O51  1  0.26174550  0.13381133  0.24966521  1
  O  O52  1  0.76174550  0.36618867  0.74966521  1
  O  O53  1  0.23996119  0.30061993  0.74486308  1
  O  O54  1  0.23996119  0.69938007  0.24486308  1
  O  O55  1  0.76174550  0.63381133  0.24966521  1
  O  O56  1  0.35700069  0.86161547  0.58591780  1
  O  O57  1  0.65877603  0.82332769  0.90948310  1
  O  O58  1  0.65877603  0.17667231  0.40948310  1
  O  O59  1  0.35700069  0.13838453  0.08591780  1
  O  O60  1  0.85700069  0.36161547  0.58591780  1
  O  O61  1  0.15877603  0.32332769  0.90948310  1
  O  O62  1  0.15877603  0.67667231  0.40948310  1
  O  O63  1  0.85700069  0.63838453  0.08591780  1
  O  O64  1  0.45604010  0.87436643  0.93290700  1
  O  O65  1  0.54146727  0.81951441  0.56663588  1
  O  O66  1  0.54146727  0.18048559  0.06663588  1
  O  O67  1  0.45604010  0.12563357  0.43290700  1
  O  O68  1  0.95604010  0.37436643  0.93290700  1
  O  O69  1  0.04146727  0.31951441  0.56663588  1
  O  O70  1  0.04146727  0.68048559  0.06663588  1
  O  O71  1  0.95604010  0.62563357  0.43290700  1
  O  O72  1  0.05707441  0.84839464  0.73655519  1
  O  O73  1  0.90544161  0.86456102  0.75518019  1
  O  O74  1  0.90544161  0.13543898  0.25518019  1
  O  O75  1  0.05707441  0.15160536  0.23655519  1
  O  O76  1  0.55707441  0.34839464  0.73655519  1
  O  O77  1  0.40544161  0.36456102  0.75518019  1
  O  O78  1  0.40544161  0.63543898  0.25518019  1
  O  O79  1  0.55707441  0.65160536  0.23655519  1
