# generated using pymatgen
data_Na8Sc2Ti2Si5SO24
_symmetry_space_group_name_H-M   'P 1'
_cell_length_a   9.10924599
_cell_length_b   9.10302228
_cell_length_c   22.33215982
_cell_angle_alpha   90.26942589
_cell_angle_beta   89.45715215
_cell_angle_gamma   120.12276135
_symmetry_Int_Tables_number   1
_chemical_formula_structural   Na8Sc2Ti2Si5SO24
_chemical_formula_sum   'Na24 Sc6 Ti6 Si15 S3 O72'
_cell_volume   1601.66371792
_cell_formula_units_Z   3
loop_
 _symmetry_equiv_pos_site_id
 _symmetry_equiv_pos_as_xyz
  1  'x, y, z'
loop_
 _atom_site_type_symbol
 _atom_site_label
 _atom_site_symmetry_multiplicity
 _atom_site_fract_x
 _atom_site_fract_y
 _atom_site_fract_z
 _atom_site_occupancy
  Na  Na0  1  0.64209616  0.00480008  0.25154107  1
  Na  Na1  1  0.35752275  0.36257060  0.24896862  1
  Na  Na2  1  -0.00003205  0.63737206  0.25006294  1
  Na  Na3  1  0.63353424  0.63280556  0.74816573  1
  Na  Na4  1  0.99436179  0.36081837  0.74947004  1
  Na  Na5  1  0.36973227  0.00749253  0.74936751  1
  Na  Na6  1  0.29713516  0.33457805  0.58581222  1
  Na  Na7  1  0.03827405  0.70385675  0.58287049  1
  Na  Na8  1  0.66578826  0.95992843  0.58324799  1
  Na  Na9  1  0.28831054  0.96543088  0.08189999  1
  Na  Na10  1  0.67020942  0.69313010  0.08685441  1
  Na  Na11  1  0.04404177  0.33719274  0.08647880  1
  Na  Na12  1  0.97523986  0.66887887  0.91652043  1
  Na  Na13  1  0.70469395  0.04347852  0.91065837  1
  Na  Na14  1  0.32261078  0.28693411  0.91768169  1
  Na  Na15  1  0.95906322  0.29581037  0.41294168  1
  Na  Na16  1  0.32999092  0.02461696  0.41637924  1
  Na  Na17  1  0.70912211  0.67611308  0.41775241  1
  Na  Na18  1  0.99296517  0.99110691  0.50165319  1
  Na  Na19  1  0.01689753  0.00610072  0.00002696  1
  Na  Na20  1  0.66756161  0.32665128  0.83051173  1
  Na  Na21  1  0.67135059  0.33022911  0.33310665  1
  Na  Na22  1  0.32706213  0.65656228  0.16782438  1
  Na  Na23  1  0.33608356  0.66639873  0.66488431  1
  Sc  Sc24  1  0.99274342  0.99324389  0.34788785  1
  Sc  Sc25  1  0.00852588  0.00717312  0.84766233  1
  Sc  Sc26  1  0.00849274  0.00044611  0.15265094  1
  Sc  Sc27  1  0.66514704  0.33371505  0.98119282  1
  Sc  Sc28  1  0.31471343  0.65500463  0.01908676  1
  Sc  Sc29  1  0.33639067  0.67838453  0.52126106  1
  Ti  Ti30  1  0.99925222  0.99977232  0.64929919  1
  Ti  Ti31  1  0.66520233  0.33290552  0.68434825  1
  Ti  Ti32  1  0.67033971  0.35282329  0.18872722  1
  Ti  Ti33  1  0.67878685  0.33118830  0.48599672  1
  Ti  Ti34  1  0.32773223  0.68236491  0.31206575  1
  Ti  Ti35  1  0.31564725  0.67159550  0.80936835  1
  Si  Si36  1  0.30073850  0.00613983  0.25021497  1
  Si  Si37  1  0.69878214  0.70618504  0.24997353  1
  Si  Si38  1  0.99984846  0.29902200  0.25009330  1
  Si  Si39  1  0.29636062  0.29654537  0.74869041  1
  Si  Si40  1  0.99285804  0.70624357  0.74929903  1
  Si  Si41  1  0.70583239  0.99961586  0.75022304  1
  Si  Si42  1  0.95728489  0.32911992  0.58592057  1
  Si  Si43  1  0.37714394  0.04934217  0.58416356  1
  Si  Si44  1  0.66950566  0.62170610  0.58404448  1
  Si  Si45  1  0.95656432  0.62751259  0.08338303  1
  Si  Si46  1  0.37523619  0.33413479  0.08380452  1
  Si  Si47  1  0.03956252  0.37111134  0.91529090  1
  Si  Si48  1  0.33267676  0.95841194  0.91666338  1
  Si  Si49  1  0.62652534  0.96207151  0.41702175  1
  Si  Si50  1  0.03749933  0.66551739  0.41786046  1
  S  S51  1  0.66734297  0.04171085  0.08393025  1
  S  S52  1  0.62225852  0.66718567  0.91583371  1
  S  S53  1  0.33575788  0.37625509  0.41604208  1
  O  O54  1  0.22297426  0.04691856  0.30946578  1
  O  O55  1  0.82198827  0.77885662  0.30800378  1
  O  O56  1  0.96038821  0.17860358  0.30888959  1
  O  O57  1  0.22077012  0.17791695  0.80799010  1
  O  O58  1  0.95675028  0.78214040  0.80955394  1
  O  O59  1  0.82251513  0.03772001  0.80915467  1
  O  O60  1  0.80271333  0.96644145  0.69211690  1
  O  O61  1  0.16547433  0.20082531  0.69163098  1
  O  O62  1  0.03382118  0.83588456  0.69172002  1
  O  O63  1  0.77631563  0.82368075  0.19060612  1
  O  O64  1  0.03972572  0.21859785  0.19085637  1
  O  O65  1  0.17822248  0.95567140  0.19198319  1
  O  O66  1  0.86138480  0.36158990  0.64203871  1
  O  O67  1  0.50123420  0.14228135  0.64152017  1
  O  O68  1  0.64115890  0.49891613  0.64176413  1
  O  O69  1  0.85842763  0.49954712  0.14146809  1
  O  O70  1  0.63985973  0.12205293  0.13754195  1
  O  O71  1  0.50092120  0.35596325  0.14147008  1
  O  O72  1  0.45864584  0.29877262  0.02426533  1
  O  O73  1  0.84155541  0.53804978  0.02440154  1
  O  O74  1  0.69393886  0.14631732  0.02901127  1
  O  O75  1  0.47196779  0.17193068  0.52479198  1
  O  O76  1  0.70017905  0.52730634  0.52469108  1
  O  O77  1  0.83328717  0.29799040  0.52622950  1
  O  O78  1  0.54509289  0.69280987  0.97131577  1
  O  O79  1  0.15821288  0.45309745  0.97448843  1
  O  O80  1  0.30904892  0.84358227  0.97583829  1
  O  O81  1  0.54362379  0.84061472  0.47528574  1
  O  O82  1  0.30795750  0.45392402  0.47129974  1
  O  O83  1  0.15580952  0.69384970  0.47567656  1
  O  O84  1  0.13377944  0.63526088  0.35871470  1
  O  O85  1  0.49898491  0.86256109  0.35894650  1
  O  O86  1  0.36038636  0.48239805  0.36257814  1
  O  O87  1  0.14408910  0.50191861  0.85775669  1
  O  O88  1  0.35898382  0.85753006  0.85757567  1
  O  O89  1  0.51695478  0.64187697  0.86257634  1
  O  O90  1  0.02227404  0.83632478  0.41224159  1
  O  O91  1  0.81759110  0.98864690  0.41170383  1
  O  O92  1  0.18172100  0.20407505  0.41187980  1
  O  O93  1  0.01559188  0.18099642  0.91198233  1
  O  O94  1  0.15990971  0.97029941  0.91264070  1
  O  O95  1  0.79478219  0.82005879  0.91166210  1
  O  O96  1  0.96781760  0.15480373  0.58955633  1
  O  O97  1  0.18941761  0.03300517  0.58940762  1
  O  O98  1  0.84236804  0.80929131  0.58956195  1
  O  O99  1  0.97103300  0.81363888  0.08770091  1
  O  O100  1  0.82152400  0.02606454  0.08796772  1
  O  O101  1  0.18452485  0.16739942  0.08808529  1
  O  O102  1  0.68391041  0.16661237  0.74139783  1
  O  O103  1  0.48503824  0.31640553  0.74069532  1
  O  O104  1  0.83084209  0.51503891  0.74155188  1
  O  O105  1  0.68160420  0.51553628  0.24279073  1
  O  O106  1  0.82927901  0.31747450  0.24149415  1
  O  O107  1  0.49256869  0.16834789  0.24023135  1
  O  O108  1  0.63901601  0.51228816  0.92019437  1
  O  O109  1  0.85585440  0.36258991  0.91777165  1
  O  O110  1  0.50514922  0.14598683  0.91700032  1
  O  O111  1  0.63525419  0.14887160  0.42158949  1
  O  O112  1  0.49004020  0.36046475  0.42067823  1
  O  O113  1  0.84712478  0.49071436  0.42158263  1
  O  O114  1  0.37115093  0.51252986  0.08245889  1
  O  O115  1  0.14515113  0.64415299  0.08353773  1
  O  O116  1  0.51501492  0.87034901  0.07834966  1
  O  O117  1  0.36004588  0.86198245  0.58151823  1
  O  O118  1  0.49872421  0.63611437  0.58001080  1
  O  O119  1  0.14345882  0.49665098  0.57953613  1
  O  O120  1  0.31738778  0.83255696  0.25757724  1
  O  O121  1  0.50716769  0.67694090  0.26028240  1
  O  O122  1  0.17148170  0.48846732  0.25887146  1
  O  O123  1  0.31425368  0.48544455  0.75622738  1
  O  O124  1  0.16897307  0.69205583  0.75437344  1
  O  O125  1  0.51744234  0.82511503  0.75598965  1
