# generated using pymatgen
data_Na5TaGa3SiP5O24
_symmetry_space_group_name_H-M   'P 1'
_cell_length_a   8.77015567
_cell_length_b   8.77463496
_cell_length_c   21.96934499
_cell_angle_alpha   90.02877604
_cell_angle_beta   90.27170841
_cell_angle_gamma   119.82559912
_symmetry_Int_Tables_number   1
_chemical_formula_structural   Na5TaGa3SiP5O24
_chemical_formula_sum   'Na15 Ta3 Ga9 Si3 P15 O72'
_cell_volume   1466.68684578
_cell_formula_units_Z   3
loop_
 _symmetry_equiv_pos_site_id
 _symmetry_equiv_pos_as_xyz
  1  'x, y, z'
loop_
 _atom_site_type_symbol
 _atom_site_label
 _atom_site_symmetry_multiplicity
 _atom_site_fract_x
 _atom_site_fract_y
 _atom_site_fract_z
 _atom_site_occupancy
  Na  Na0  1  0.63369958  0.99906795  0.25129266  1
  Na  Na1  1  0.36600068  0.36611308  0.25022244  1
  Na  Na2  1  0.00100561  0.63401355  0.25068686  1
  Na  Na3  1  0.30293083  0.33825830  0.58802872  1
  Na  Na4  1  0.03470583  0.70376619  0.58539891  1
  Na  Na5  1  0.66664461  0.96381732  0.58582109  1
  Na  Na6  1  0.29713605  0.96155479  0.08131623  1
  Na  Na7  1  0.97207158  0.67178711  0.91216832  1
  Na  Na8  1  0.70082432  0.02450783  0.90957750  1
  Na  Na9  1  0.99733254  0.99772924  0.49543007  1
  Na  Na10  1  0.00672337  0.01721535  0.99846235  1
  Na  Na11  1  0.65415170  0.32972175  0.82291608  1
  Na  Na12  1  0.66732205  0.33208792  0.33246907  1
  Na  Na13  1  0.33429123  0.65458117  0.16184329  1
  Na  Na14  1  0.33829761  0.66647492  0.66535729  1
  Ta  Ta15  1  0.66521078  0.33159646  0.97981897  1
  Ta  Ta16  1  0.66918676  0.33940879  0.47719212  1
  Ta  Ta17  1  0.33046636  0.66612916  0.80977400  1
  Ga  Ga18  1  0.99888887  0.99901210  0.35298938  1
  Ga  Ga19  1  0.01298110  0.01229398  0.85046731  1
  Ga  Ga20  1  0.99570481  0.99676343  0.65081357  1
  Ga  Ga21  1  0.99436151  0.00022673  0.14766549  1
  Ga  Ga22  1  0.66403796  0.33595883  0.68692185  1
  Ga  Ga23  1  0.66768702  0.33580241  0.18226378  1
  Ga  Ga24  1  0.32683386  0.65818019  0.01823819  1
  Ga  Ga25  1  0.33965868  0.66717345  0.51477364  1
  Ga  Ga26  1  0.33434036  0.66724150  0.31827042  1
  Si  Si27  1  0.66503265  0.62733199  0.58643526  1
  Si  Si28  1  0.05099992  0.37226163  0.91863277  1
  Si  Si29  1  0.32593358  0.95304155  0.91921796  1
  P  P30  1  0.28952237  -0.00004055  0.24946822  1
  P  P31  1  0.71094776  0.71106119  0.25025557  1
  P  P32  1  -0.00003660  0.28855956  0.25007451  1
  P  P33  1  0.29209851  0.28502996  0.74758978  1
  P  P34  1  0.99248327  0.70834042  0.74955139  1
  P  P35  1  0.71266338  0.00658047  0.74900716  1
  P  P36  1  0.95758414  0.33622821  0.58525841  1
  P  P37  1  0.37938082  0.04345967  0.58453925  1
  P  P38  1  0.96127599  0.62928748  0.08714674  1
  P  P39  1  0.66929265  0.03721426  0.08620873  1
  P  P40  1  0.37259533  0.33831408  0.08714646  1
  P  P41  1  0.61830775  0.66743892  0.91833443  1
  P  P42  1  0.62822455  0.95534619  0.41546310  1
  P  P43  1  0.32451521  0.37129327  0.41527752  1
  P  P44  1  0.04910910  0.67337673  0.41589954  1
  O  O45  1  0.20583539  0.03908843  0.30403037  1
  O  O46  1  0.83150031  0.78999031  0.30612933  1
  O  O47  1  0.95822793  0.16873798  0.30585224  1
  O  O48  1  0.20532967  0.17687303  0.80404707  1
  O  O49  1  0.97258656  0.79418078  0.80745052  1
  O  O50  1  0.81714782  0.02391358  0.80744840  1
  O  O51  1  0.78931681  0.97457256  0.69025319  1
  O  O52  1  0.18355191  0.21084383  0.68813099  1
  O  O53  1  0.02701921  0.81747085  0.69085643  1
  O  O54  1  0.78793814  0.82992729  0.19391937  1
  O  O55  1  0.04207261  0.21098285  0.19373538  1
  O  O56  1  0.17693814  0.96240846  0.19063195  1
  O  O57  1  0.87496016  0.37167031  0.63999958  1
  O  O58  1  0.50063564  0.11928996  0.63945728  1
  O  O59  1  0.61630732  0.49108557  0.64145884  1
  O  O60  1  0.87547466  0.51949285  0.14470925  1
  O  O61  1  0.63482897  0.12209993  0.14294324  1
  O  O62  1  0.47880701  0.35979920  0.14644082  1
  O  O63  1  0.47362145  0.31171635  0.03230047  1
  O  O64  1  0.84587352  0.53344767  0.02963220  1
  O  O65  1  0.68837145  0.15548042  0.02890221  1
  O  O66  1  0.47125359  0.16367253  0.52762363  1
  O  O67  1  0.70077500  0.53143228  0.52616307  1
  O  O68  1  0.83627114  0.30190089  0.52765111  1
  O  O69  1  0.54092201  0.70726231  0.97381263  1
  O  O70  1  0.16469591  0.45526595  0.97870953  1
  O  O71  1  0.29540481  0.84048932  0.98094226  1
  O  O72  1  0.54443371  0.84967395  0.47362969  1
  O  O73  1  0.30286697  0.45491906  0.47362288  1
  O  O74  1  0.15471247  0.69298300  0.47428692  1
  O  O75  1  0.12482411  0.63914437  0.35752348  1
  O  O76  1  0.51616932  0.87785499  0.35709092  1
  O  O77  1  0.36082932  0.48306486  0.35726363  1
  O  O78  1  0.13686272  0.50444306  0.85966913  1
  O  O79  1  0.37466960  0.86375076  0.86152172  1
  O  O80  1  0.50153530  0.63061233  0.86067631  1
  O  O81  1  0.02432532  0.83406305  0.41130362  1
  O  O82  1  0.81216049  0.97616438  0.41063971  1
  O  O83  1  0.16399863  0.18660488  0.41009305  1
  O  O84  1  0.00177106  0.17122933  0.90989124  1
  O  O85  1  0.15215087  0.96721438  0.90965056  1
  O  O86  1  0.80309128  0.82162738  0.90983504  1
  O  O87  1  0.97674325  0.17001653  0.58798658  1
  O  O88  1  0.19850052  0.03396109  0.58768454  1
  O  O89  1  0.84404175  0.82011026  0.58905505  1
  O  O90  1  0.97687823  0.81305353  0.08830296  1
  O  O91  1  0.83968866  0.03059861  0.08839519  1
  O  O92  1  0.19526417  0.16413334  0.08789000  1
  O  O93  1  0.68999395  0.16866620  0.74466257  1
  O  O94  1  0.47550906  0.30492794  0.74453955  1
  O  O95  1  0.83397838  0.52228092  0.74568465  1
  O  O96  1  0.68906072  0.52312114  0.24435334  1
  O  O97  1  0.83410401  0.31118136  0.24329668  1
  O  O98  1  0.47801916  0.16457365  0.24453134  1
  O  O99  1  0.63771349  0.49957586  0.92541090  1
  O  O100  1  0.85483331  0.36448691  0.92478756  1
  O  O101  1  0.50738665  0.14761580  0.92409030  1
  O  O102  1  0.64522137  0.14236052  0.42186412  1
  O  O103  1  0.49545086  0.35337457  0.42193769  1
  O  O104  1  0.86152233  0.50134162  0.42169861  1
  O  O105  1  0.36060119  0.50434861  0.08025161  1
  O  O106  1  0.14630428  0.65106377  0.08324235  1
  O  O107  1  0.50139897  0.85795797  0.07951520  1
  O  O108  1  0.35092128  0.85587856  0.57568161  1
  O  O109  1  0.49156838  0.64956240  0.57672256  1
  O  O110  1  0.14034464  0.50148950  0.57660926  1
  O  O111  1  0.31061952  0.83363394  0.25620316  1
  O  O112  1  0.52263931  0.68794364  0.25656652  1
  O  O113  1  0.16467834  0.47640519  0.25679299  1
  O  O114  1  0.31116056  0.47403555  0.75402155  1
  O  O115  1  0.16600844  0.69317638  0.75495584  1
  O  O116  1  0.52538490  0.83473686  0.75431609  1
