# generated using pymatgen
data_Na14Zr4Ga4Si9(SO16)3
_symmetry_space_group_name_H-M   'P 1'
_cell_length_a   18.15856699
_cell_length_b   9.08191811
_cell_length_c   22.53810103
_cell_angle_alpha   90.21856774
_cell_angle_beta   90.26295021
_cell_angle_gamma   120.03001083
_symmetry_Int_Tables_number   1
_chemical_formula_structural   Na14Zr4Ga4Si9(SO16)3
_chemical_formula_sum   'Na42 Zr12 Ga12 Si27 S9 O144'
_cell_volume   3217.80927245
_cell_formula_units_Z   3
loop_
 _symmetry_equiv_pos_site_id
 _symmetry_equiv_pos_as_xyz
  1  'x, y, z'
loop_
 _atom_site_type_symbol
 _atom_site_label
 _atom_site_symmetry_multiplicity
 _atom_site_fract_x
 _atom_site_fract_y
 _atom_site_fract_z
 _atom_site_occupancy
  Na  Na0  1  0.81734593  0.00547930  0.25350670  1
  Na  Na1  1  0.17605253  0.35856206  0.25307739  1
  Na  Na2  1  0.69059889  0.37019307  0.25294087  1
  Na  Na3  1  0.99582167  0.62859174  0.24666428  1
  Na  Na4  1  0.50508064  0.64656485  0.25209552  1
  Na  Na5  1  0.31719314  0.62812367  0.75093725  1
  Na  Na6  1  0.00259232  0.36027920  0.74718243  1
  Na  Na7  1  0.49684127  0.36413601  0.74432802  1
  Na  Na8  1  0.18939834  0.01129190  0.74999022  1
  Na  Na9  1  0.68039542  0.99801229  0.74980966  1
  Na  Na10  1  0.14856122  0.32630020  0.58268213  1
  Na  Na11  1  0.65010566  0.33269063  0.58214909  1
  Na  Na12  1  0.33493333  0.98166834  0.58556678  1
  Na  Na13  1  0.83293005  0.96858833  0.58209599  1
  Na  Na14  1  0.14361648  0.96377561  0.08134155  1
  Na  Na15  1  0.65148724  0.97331866  0.08086190  1
  Na  Na16  1  0.33309296  0.68900697  0.08226275  1
  Na  Na17  1  0.83496161  0.68851076  0.08558557  1
  Na  Na18  1  0.48237939  0.67917974  0.91467438  1
  Na  Na19  1  0.98284922  0.67421374  0.92002288  1
  Na  Na20  1  0.34785691  0.02668142  0.91042290  1
  Na  Na21  1  0.84683762  0.02700831  0.91249621  1
  Na  Na22  1  0.16929615  0.29638837  0.91120498  1
  Na  Na23  1  0.66806777  0.29472956  0.91215646  1
  Na  Na24  1  0.48497235  0.29594136  0.42286848  1
  Na  Na25  1  0.97945677  0.28500381  0.41861275  1
  Na  Na26  1  0.16747129  0.04125163  0.41476024  1
  Na  Na27  1  0.67368510  0.04745085  0.41617652  1
  Na  Na28  1  0.34724574  0.66617138  0.41535561  1
  Na  Na29  1  0.84686666  0.66538206  0.41800252  1
  Na  Na30  1  0.99855800  0.99699865  0.49891601  1
  Na  Na31  1  0.50453704  0.01067694  0.49980523  1
  Na  Na32  1  0.00250801  0.99647820  0.99856413  1
  Na  Na33  1  0.50353643  -0.00002492  0.99504773  1
  Na  Na34  1  0.33015606  0.33416747  0.82830139  1
  Na  Na35  1  0.82609348  0.33016615  0.83290270  1
  Na  Na36  1  0.32666137  0.32050538  0.33764718  1
  Na  Na37  1  0.82956690  0.32566739  0.33309527  1
  Na  Na38  1  0.15921546  0.65515939  0.16926874  1
  Na  Na39  1  0.66502732  0.66014344  0.17012617  1
  Na  Na40  1  0.16326287  0.66777396  0.66892888  1
  Na  Na41  1  0.66434940  0.66400041  0.66512665  1
  Zr  Zr42  1  0.99908561  0.00592004  0.64392392  1
  Zr  Zr43  1  0.50267378  0.00486916  0.64942749  1
  Zr  Zr44  1  0.00178955  0.00013251  0.15012231  1
  Zr  Zr45  1  0.50458060  0.99144580  0.14781155  1
  Zr  Zr46  1  0.82932764  0.32857304  0.68383353  1
  Zr  Zr47  1  0.33109746  0.34231896  0.18763252  1
  Zr  Zr48  1  0.16244281  0.66430741  0.01764850  1
  Zr  Zr49  1  0.66711865  0.66620242  0.01844754  1
  Zr  Zr50  1  0.16611999  0.66754283  0.51884215  1
  Zr  Zr51  1  0.66776366  0.65943324  0.52056145  1
  Zr  Zr52  1  0.17520383  0.67365997  0.31255467  1
  Zr  Zr53  1  0.67625424  0.67849611  0.81112664  1
  Ga  Ga54  1  0.99694152  0.01491422  0.34593855  1
  Ga  Ga55  1  0.50374120  0.00379887  0.35097258  1
  Ga  Ga56  1  0.00317114  0.99927081  0.84788343  1
  Ga  Ga57  1  0.49789745  0.98142026  0.84388493  1
  Ga  Ga58  1  0.33607726  0.31746457  0.68973393  1
  Ga  Ga59  1  0.83619515  0.35443293  0.18994669  1
  Ga  Ga60  1  0.32285895  0.34908371  0.98009437  1
  Ga  Ga61  1  0.82235676  0.34787096  0.98339247  1
  Ga  Ga62  1  0.32331911  0.29852263  0.48365185  1
  Ga  Ga63  1  0.82551110  0.31952794  0.48645113  1
  Ga  Ga64  1  0.68806351  0.68998682  0.31790641  1
  Ga  Ga65  1  0.18666621  0.68409423  0.81559019  1
  Si  Si66  1  0.14484453  0.99891418  0.25389668  1
  Si  Si67  1  0.64897645  0.99555389  0.25442445  1
  Si  Si68  1  0.35893509  0.71888871  0.25207051  1
  Si  Si69  1  0.85409308  0.70984933  0.25251478  1
  Si  Si70  1  0.99555142  0.29347422  0.24989759  1
  Si  Si71  1  0.14704624  0.29868675  0.75325570  1
  Si  Si72  1  0.64535368  0.28947870  0.75481684  1
  Si  Si73  1  0.49562753  0.69807486  0.75008875  1
  Si  Si74  1  0.35419619  0.99874835  0.75257424  1
  Si  Si75  1  0.85958414  0.00632937  0.75286751  1
  Si  Si76  1  0.47345258  0.33561398  0.58329159  1
  Si  Si77  1  0.97835447  0.34098666  0.58148643  1
  Si  Si78  1  0.19102937  0.04727837  0.58544545  1
  Si  Si79  1  0.68358421  0.03650952  0.58056262  1
  Si  Si80  1  0.83671274  0.62036576  0.57871928  1
  Si  Si81  1  0.47789701  0.61550217  0.08073388  1
  Si  Si82  1  0.97404773  0.61182965  0.08326432  1
  Si  Si83  1  0.18394986  0.33166043  0.08089110  1
  Si  Si84  1  0.68955348  0.33428178  0.08562399  1
  Si  Si85  1  0.31713381  0.67239258  0.91652616  1
  Si  Si86  1  0.81941098  0.67127594  0.91689426  1
  Si  Si87  1  0.16779893  0.96400929  0.91369746  1
  Si  Si88  1  0.66832243  0.97258390  0.91818874  1
  Si  Si89  1  0.31944070  0.96754303  0.41702842  1
  Si  Si90  1  0.81778110  0.96904521  0.41654259  1
  Si  Si91  1  0.16808616  0.36376065  0.41745331  1
  Si  Si92  1  0.66601488  0.37009014  0.41204570  1
  S  S93  1  0.50008017  0.29129246  0.25168163  1
  S  S94  1  0.00085214  0.70850607  0.75274783  1
  S  S95  1  0.33436902  0.61969079  0.58218341  1
  S  S96  1  0.33509205  0.04767966  0.08095039  1
  S  S97  1  0.83473822  0.04922844  0.08217421  1
  S  S98  1  0.01897239  0.37223410  0.91406632  1
  S  S99  1  0.51729570  0.37011399  0.91671450  1
  S  S100  1  0.01873360  0.66636986  0.41533348  1
  S  S101  1  0.52001265  0.66635134  0.41424538  1
  O  O102  1  0.10134183  0.03661184  0.31045279  1
  O  O103  1  0.60254953  0.03573388  0.30884714  1
  O  O104  1  0.41947340  0.80448704  0.30964861  1
  O  O105  1  0.91676118  0.79848638  0.30955893  1
  O  O106  1  0.48619668  0.18866973  0.30557865  1
  O  O107  1  0.97813857  0.17849033  0.30916844  1
  O  O108  1  0.10416683  0.17178442  0.81060045  1
  O  O109  1  0.60026835  0.16739228  0.81202422  1
  O  O110  1  0.47708061  0.77549620  0.81050557  1
  O  O111  1  0.98757934  0.78438138  0.80727178  1
  O  O112  1  0.41498933  0.03323307  0.81093372  1
  O  O113  1  0.91806997  0.03417362  0.81181887  1
  O  O114  1  0.39300691  0.95952283  0.69294252  1
  O  O115  1  0.89918367  0.97453328  0.69311350  1
  O  O116  1  0.08623947  0.21199855  0.69446429  1
  O  O117  1  0.58884735  0.20968655  0.69363847  1
  O  O118  1  0.01418051  0.81621315  0.70035228  1
  O  O119  1  0.51765871  0.83099893  0.69556541  1
  O  O120  1  0.39746121  0.82403802  0.19095959  1
  O  O121  1  0.89280222  0.82530625  0.19216931  1
  O  O122  1  0.01845935  0.20641511  0.19450071  1
  O  O123  1  0.51209985  0.20793040  0.19867937  1
  O  O124  1  0.08978266  0.96846877  0.19202241  1
  O  O125  1  0.58756604  0.95962504  0.19414064  1
  O  O126  1  0.43247260  0.36034013  0.64369263  1
  O  O127  1  0.93844242  0.36474821  0.64313410  1
  O  O128  1  0.25055521  0.13271607  0.64386959  1
  O  O129  1  0.74306087  0.11939114  0.64072313  1
  O  O130  1  0.31999426  0.51859293  0.63585858  1
  O  O131  1  0.81717419  0.50121926  0.63735258  1
  O  O132  1  0.43662200  0.50894134  0.14155462  1
  O  O133  1  0.93341155  0.50510291  0.14327610  1
  O  O134  1  0.32172393  0.12624236  0.13451852  1
  O  O135  1  0.82012871  0.12202080  0.13597065  1
  O  O136  1  0.24486263  0.36407646  0.13996368  1
  O  O137  1  0.74887531  0.36456282  0.14367563  1
  O  O138  1  0.22664316  0.29209827  0.02404851  1
  O  O139  1  0.72403746  0.28877261  0.02515472  1
  O  O140  1  0.41693801  0.52593875  0.02299127  1
  O  O141  1  0.91768741  0.52574303  0.02251885  1
  O  O142  1  0.34587852  0.14539685  0.02730230  1
  O  O143  1  0.84483500  0.14600663  0.02798132  1
  O  O144  1  0.22531059  0.15950764  0.52459494  1
  O  O145  1  0.72487028  0.15729498  0.52299981  1
  O  O146  1  0.34463954  0.54262702  0.52773454  1
  O  O147  1  0.84856680  0.53390124  0.51924407  1
  O  O148  1  0.41643013  0.30543027  0.52253743  1
  O  O149  1  0.91880580  0.30494721  0.52316251  1
  O  O150  1  0.27105189  0.70012602  0.97515333  1
  O  O151  1  0.77533496  0.70418999  0.97578759  1
  O  O152  1  0.07467328  0.45527214  0.96777094  1
  O  O153  1  0.57437512  0.45673665  0.96930675  1
  O  O154  1  0.14866743  0.84319546  0.97315867  1
  O  O155  1  0.65036243  0.84491710  0.97531236  1
  O  O156  1  0.27507663  0.84568401  0.47505114  1
  O  O157  1  0.77075190  0.84152386  0.47264721  1
  O  O158  1  0.15072943  0.45740899  0.47414099  1
  O  O159  1  0.64456622  0.45025899  0.47064316  1
  O  O160  1  0.07520658  0.69382131  0.46814283  1
  O  O161  1  0.57470669  0.69474252  0.46699266  1
  O  O162  1  0.05959208  0.64011451  0.36249153  1
  O  O163  1  0.55754297  0.63668134  0.36067192  1
  O  O164  1  0.25170913  0.87645520  0.36247379  1
  O  O165  1  0.75479771  0.89056908  0.35808415  1
  O  O166  1  0.18497138  0.48849523  0.35998154  1
  O  O167  1  0.67924258  0.49407476  0.35467865  1
  O  O168  1  0.05782549  0.47953708  0.86204826  1
  O  O169  1  0.55600520  0.47753591  0.86396073  1
  O  O170  1  0.18220231  0.86606657  0.85735720  1
  O  O171  1  0.68474307  0.87986597  0.86133501  1
  O  O172  1  0.25242633  0.62248090  0.86001058  1
  O  O173  1  0.75063560  0.62568930  0.86342459  1
  O  O174  1  0.01246445  0.82123257  0.41218355  1
  O  O175  1  0.51234049  0.82309488  0.41107173  1
  O  O176  1  0.41174852  0.97929259  0.40834593  1
  O  O177  1  0.90975120  0.97503219  0.40982666  1
  O  O178  1  0.08267956  0.17604868  0.41132799  1
  O  O179  1  0.57966911  0.17835203  0.40714945  1
  O  O180  1  0.01303393  0.20303965  0.91199703  1
  O  O181  1  0.51100222  0.20278157  0.91347439  1
  O  O182  1  0.08223695  0.98357573  0.90855324  1
  O  O183  1  0.58289287  0.98956771  0.91238801  1
  O  O184  1  0.40981840  0.84622084  0.91116347  1
  O  O185  1  0.91245188  0.84353929  0.90899129  1
  O  O186  1  0.48121953  0.15953256  0.58625198  1
  O  O187  1  0.98763566  0.16788150  0.58558415  1
  O  O188  1  0.09730514  0.02858677  0.59084882  1
  O  O189  1  0.59175434  0.02786205  0.58596077  1
  O  O190  1  0.40770298  0.79587546  0.58652706  1
  O  O191  1  0.91634006  0.81400317  0.58562960  1
  O  O192  1  0.48373534  0.80555110  0.08518596  1
  O  O193  1  0.98297169  0.80414872  0.08554227  1
  O  O194  1  0.40871819  0.02072966  0.08771193  1
  O  O195  1  0.90786789  0.01910408  0.08645556  1
  O  O196  1  0.09214743  0.15864091  0.08549390  1
  O  O197  1  0.59395072  0.16491232  0.09040849  1
  O  O198  1  0.34437192  0.16841425  0.74902988  1
  O  O199  1  0.85096637  0.17819057  0.74983839  1
  O  O200  1  0.24130366  0.31913456  0.74460671  1
  O  O201  1  0.73820371  0.30212243  0.74932361  1
  O  O202  1  0.40987321  0.51235473  0.74261659  1
  O  O203  1  0.92530005  0.53648602  0.74747840  1
  O  O204  1  0.35117991  0.52797560  0.24779823  1
  O  O205  1  0.84407682  0.52035518  0.24805449  1
  O  O206  1  0.42352918  0.31070528  0.24522105  1
  O  O207  1  0.90992879  0.30733454  0.24196270  1
  O  O208  1  0.23915044  0.17051772  0.24579855  1
  O  O209  1  0.74137848  0.16389473  0.24359492  1
  O  O210  1  0.32616404  0.50003721  0.92058611  1
  O  O211  1  0.82792227  0.49949460  0.92131169  1
  O  O212  1  0.43260035  0.35254756  0.92430308  1
  O  O213  1  0.93385130  0.35195545  0.92231901  1
  O  O214  1  0.25664070  0.15006409  0.92294304  1
  O  O215  1  0.75841409  0.15642492  0.92587887  1
  O  O216  1  0.32781479  0.15625591  0.42076101  1
  O  O217  1  0.82750562  0.15921862  0.42269600  1
  O  O218  1  0.25814733  0.35989508  0.42485580  1
  O  O219  1  0.75290522  0.35829520  0.41858638  1
  O  O220  1  0.43378832  0.51624231  0.42107018  1
  O  O221  1  0.93520571  0.51282352  0.42070670  1
  O  O222  1  0.18344993  0.51073682  0.07705838  1
  O  O223  1  0.68441815  0.50946274  0.07826094  1
  O  O224  1  0.07405416  0.65264646  0.07830032  1
  O  O225  1  0.57659262  0.65678394  0.07826140  1
  O  O226  1  0.25607135  0.87369003  0.07784154  1
  O  O227  1  0.75560997  0.87255472  0.07784489  1
  O  O228  1  0.18583732  0.86137303  0.57799197  1
  O  O229  1  0.67971707  0.85443356  0.57615009  1
  O  O230  1  0.25544869  0.63821024  0.57771304  1
  O  O231  1  0.74994761  0.63830647  0.57693536  1
  O  O232  1  0.07728555  0.50052831  0.57832660  1
  O  O233  1  0.57145427  0.49402084  0.57794181  1
  O  O234  1  0.14858990  0.82388793  0.25678831  1
  O  O235  1  0.65153855  0.81599522  0.25956221  1
  O  O236  1  0.26069718  0.67867369  0.25348058  1
  O  O237  1  0.75773829  0.68721516  0.25505755  1
  O  O238  1  0.08083459  0.48178611  0.25677729  1
  O  O239  1  0.57574606  0.46246897  0.25566218  1
  O  O240  1  0.15122818  0.48620422  0.76051299  1
  O  O241  1  0.64787335  0.47109124  0.75837688  1
  O  O242  1  0.07783717  0.69063438  0.75772989  1
  O  O243  1  0.58062948  0.68015329  0.75787282  1
  O  O244  1  0.25769917  0.82880410  0.75515768  1
  O  O245  1  0.76169429  0.84392973  0.75436493  1
