# generated using pymatgen
data_Na2ZnSnP2SO12
_symmetry_space_group_name_H-M   'P 1'
_cell_length_a   8.88283175
_cell_length_b   8.83733238
_cell_length_c   22.47017929
_cell_angle_alpha   89.88096613
_cell_angle_beta   90.00000000
_cell_angle_gamma   120.17045900
_symmetry_Int_Tables_number   1
_chemical_formula_structural   Na2ZnSnP2SO12
_chemical_formula_sum   'Na12 Zn6 Sn6 P12 S6 O72'
_cell_volume   1524.96545567
_cell_formula_units_Z   6
loop_
 _symmetry_equiv_pos_site_id
 _symmetry_equiv_pos_as_xyz
  1  'x, y, z'
loop_
 _atom_site_type_symbol
 _atom_site_label
 _atom_site_symmetry_multiplicity
 _atom_site_fract_x
 _atom_site_fract_y
 _atom_site_fract_z
 _atom_site_occupancy
  Na  Na0  1  0.99459627  0.63038049  0.24417140  1
  Na  Na1  1  0.63578423  0.63038049  0.74417140  1
  Na  Na2  1  0.66126327  0.96371349  0.57750440  1
  Na  Na3  1  0.30245123  0.96371349  0.07750440  1
  Na  Na4  1  0.32792927  0.29704749  0.91083840  1
  Na  Na5  1  0.96911723  0.29704749  0.41083840  1
  Na  Na6  1  0.99689489  0.97599268  0.49381256  1
  Na  Na7  1  0.97909780  0.97599268  0.99381256  1
  Na  Na8  1  0.66356189  0.30932568  0.82714556  1
  Na  Na9  1  0.64576480  0.30932568  0.32714556  1
  Na  Na10  1  0.33022789  0.64265968  0.16047956  1
  Na  Na11  1  0.31243080  0.64265968  0.66047956  1
  Zn  Zn12  1  0.00141435  0.99600770  0.35024788  1
  Zn  Zn13  1  0.99459335  0.99600770  0.85024788  1
  Zn  Zn14  1  0.66808135  0.32934070  0.68358088  1
  Zn  Zn15  1  0.66126035  0.32934070  0.18358088  1
  Zn  Zn16  1  0.33474735  0.66267470  0.01691488  1
  Zn  Zn17  1  0.32792635  0.66267470  0.51691488  1
  Sn  Sn18  1  0.00035580  0.00766017  0.65059677  1
  Sn  Sn19  1  0.00730437  0.00766017  0.15059677  1
  Sn  Sn20  1  0.66702280  0.34099317  0.98392977  1
  Sn  Sn21  1  0.67397137  0.34099317  0.48392977  1
  Sn  Sn22  1  0.33368880  0.67432717  0.31726377  1
  Sn  Sn23  1  0.34063737  0.67432717  0.81726377  1
  P  P24  1  0.29871295  0.00423145  0.25143089  1
  P  P25  1  0.00059245  0.29612386  0.25457418  1
  P  P26  1  0.29553141  0.29612386  0.75457418  1
  P  P27  1  0.70551850  0.00423145  0.75143089  1
  P  P28  1  0.96537995  0.33756445  0.58476389  1
  P  P29  1  0.66725945  0.62945686  0.58790718  1
  P  P30  1  0.96219841  0.62945686  0.08790718  1
  P  P31  1  0.37218550  0.33756445  0.08476389  1
  P  P32  1  0.63204595  0.67089845  0.91809789  1
  P  P33  1  0.33392545  0.96279086  0.92124118  1
  P  P34  1  0.62886441  0.96279086  0.42124118  1
  P  P35  1  0.03885150  0.67089845  0.41809789  1
  S  S36  1  0.70146721  0.70786647  0.25114113  1
  S  S37  1  0.00639926  0.70786647  0.75114113  1
  S  S38  1  0.36813421  0.04119947  0.58447413  1
  S  S39  1  0.67306626  0.04119947  0.08447413  1
  S  S40  1  0.03480021  0.37453347  0.91780813  1
  S  S41  1  0.33973226  0.37453347  0.41780813  1
  O  O42  1  0.20386274  0.01919014  0.30466997  1
  O  O43  1  0.80814594  0.79176596  0.30327110  1
  O  O44  1  0.98107677  0.19301693  0.31098795  1
  O  O45  1  0.21194016  0.19301693  0.81098795  1
  O  O46  1  0.98362002  0.79176596  0.80327110  1
  O  O47  1  0.81532740  0.01919014  0.80466997  1
  O  O48  1  0.77523307  0.95742178  0.69266328  1
  O  O49  1  0.18437484  0.21339551  0.69677872  1
  O  O50  1  0.03776054  0.81501739  0.69522759  1
  O  O51  1  0.77725685  0.81501739  0.19522759  1
  O  O52  1  0.02902066  0.21339551  0.19677872  1
  O  O53  1  0.18218870  0.95742178  0.19266328  1
  O  O54  1  0.87052974  0.35252314  0.63800297  1
  O  O55  1  0.47481294  0.12509896  0.63660410  1
  O  O56  1  0.64774377  0.52634993  0.64432095  1
  O  O57  1  0.87860716  0.52634993  0.14432095  1
  O  O58  1  0.65028702  0.12509896  0.13660410  1
  O  O59  1  0.48199440  0.35252314  0.13800297  1
  O  O60  1  0.44190007  0.29075478  0.02599628  1
  O  O61  1  0.85104184  0.54672851  0.03011172  1
  O  O62  1  0.70442754  0.14835039  0.02856059  1
  O  O63  1  0.44392385  0.14835039  0.52856059  1
  O  O64  1  0.69568766  0.54672851  0.53011172  1
  O  O65  1  0.84885570  0.29075478  0.52599628  1
  O  O66  1  0.53719574  0.68585714  0.97133697  1
  O  O67  1  0.14147894  0.45843296  0.96993810  1
  O  O68  1  0.31440977  0.85968393  0.97765495  1
  O  O69  1  0.54527316  0.85968393  0.47765495  1
  O  O70  1  0.31695302  0.45843296  0.46993810  1
  O  O71  1  0.14866040  0.68585714  0.47133697  1
  O  O72  1  0.10856607  0.62408878  0.35933028  1
  O  O73  1  0.51770784  0.88006251  0.36344572  1
  O  O74  1  0.37109354  0.48168439  0.36189459  1
  O  O75  1  0.11058985  0.48168439  0.86189459  1
  O  O76  1  0.36235366  0.88006251  0.86344572  1
  O  O77  1  0.51552170  0.62408878  0.85933028  1
  O  O78  1  0.01505683  0.82786057  0.41038849  1
  O  O79  1  0.81447017  0.99559919  0.41392034  1
  O  O80  1  0.18308802  0.20176136  0.41154783  1
  O  O81  1  0.01867334  0.20176136  0.91154783  1
  O  O82  1  0.18112902  0.99559919  0.91392034  1
  O  O83  1  0.81280373  0.82786057  0.91038849  1
  O  O84  1  0.97406230  0.16186595  0.58749073  1
  O  O85  1  0.19085129  0.02255696  0.58808613  1
  O  O86  1  0.84036723  0.81698545  0.58899306  1
  O  O87  1  0.97661822  0.81698545  0.08899306  1
  O  O88  1  0.83170567  0.02255696  0.08808613  1
  O  O89  1  0.18780364  0.16186595  0.08749073  1
  O  O90  1  0.68172383  0.16119357  0.74372149  1
  O  O91  1  0.48113717  0.32893219  0.74725334  1
  O  O92  1  0.84975502  0.53509436  0.74488083  1
  O  O93  1  0.68534034  0.53509436  0.24488083  1
  O  O94  1  0.84779602  0.32893219  0.24725334  1
  O  O95  1  0.47947073  0.16119357  0.24372149  1
  O  O96  1  0.64072930  0.49519895  0.92082373  1
  O  O97  1  0.85751829  0.35588996  0.92141913  1
  O  O98  1  0.50703423  0.15031845  0.92232606  1
  O  O99  1  0.64328522  0.15031845  0.42232606  1
  O  O100  1  0.49837267  0.35588996  0.42141913  1
  O  O101  1  0.85447064  0.49519895  0.42082373  1
  O  O102  1  0.34838983  0.49452757  0.07705549  1
  O  O103  1  0.14780317  0.66226619  0.08058734  1
  O  O104  1  0.51642102  0.86842836  0.07821483  1
  O  O105  1  0.35200634  0.86842836  0.57821483  1
  O  O106  1  0.51446202  0.66226619  0.58058734  1
  O  O107  1  0.14613673  0.49452757  0.57705549  1
  O  O108  1  0.30739530  0.82853295  0.25415773  1
  O  O109  1  0.52418429  0.68922396  0.25475313  1
  O  O110  1  0.17370023  0.48365245  0.25566006  1
  O  O111  1  0.30995122  0.48365245  0.75566006  1
  O  O112  1  0.16503867  0.68922396  0.75475313  1
  O  O113  1  0.52113664  0.82853295  0.75415773  1
