# generated using pymatgen
data_Na4Ta3InSi4(PO12)2
_symmetry_space_group_name_H-M   'P 1'
_cell_length_a   8.97462061
_cell_length_b   8.99236004
_cell_length_c   22.71833884
_cell_angle_alpha   89.98173322
_cell_angle_beta   89.91479315
_cell_angle_gamma   120.00846717
_symmetry_Int_Tables_number   1
_chemical_formula_structural   Na4Ta3InSi4(PO12)2
_chemical_formula_sum   'Na12 Ta9 In3 Si12 P6 O72'
_cell_volume   1587.66591646
_cell_formula_units_Z   3
loop_
 _symmetry_equiv_pos_site_id
 _symmetry_equiv_pos_as_xyz
  1  'x, y, z'
loop_
 _atom_site_type_symbol
 _atom_site_label
 _atom_site_symmetry_multiplicity
 _atom_site_fract_x
 _atom_site_fract_y
 _atom_site_fract_z
 _atom_site_occupancy
  Na  Na0  1  0.63312770  0.62484743  0.74579233  1
  Na  Na1  1  0.99478988  0.36886165  0.74678485  1
  Na  Na2  1  0.31349263  0.97568555  0.08419320  1
  Na  Na3  1  0.02589671  0.34166549  0.08411819  1
  Na  Na4  1  0.96441779  0.29427227  0.41294709  1
  Na  Na5  1  0.70733076  0.67796097  0.41502477  1
  Na  Na6  1  0.00633442  0.99563373  0.49977924  1
  Na  Na7  1  0.99022812  0.99001781  0.99597634  1
  Na  Na8  1  0.65298899  0.31863035  0.83294061  1
  Na  Na9  1  0.65641399  0.32341711  0.32475584  1
  Na  Na10  1  0.34514690  0.66511157  0.16496141  1
  Na  Na11  1  0.33467594  0.67225707  0.66567112  1
  Ta  Ta12  1  0.00360662  0.00719590  0.85697674  1
  Ta  Ta13  1  0.99495451  0.00158274  0.64431555  1
  Ta  Ta14  1  0.99645678  0.99689200  0.14640918  1
  Ta  Ta15  1  0.66674815  0.33418761  0.97784811  1
  Ta  Ta16  1  0.66995777  0.33232666  0.48175261  1
  Ta  Ta17  1  0.33698764  0.66719931  0.01749445  1
  Ta  Ta18  1  0.33490687  0.66898463  0.52172220  1
  Ta  Ta19  1  0.33136270  0.67180957  0.31044653  1
  Ta  Ta20  1  0.33622677  0.66961083  0.81410566  1
  In  In21  1  0.00328641  0.99838627  0.35214078  1
  In  In22  1  0.65945903  0.32680507  0.68510643  1
  In  In23  1  0.66755052  0.33438522  0.18274733  1
  Si  Si24  1  0.28890099  0.28769473  0.75037189  1
  Si  Si25  1  0.70976039  0.99868126  0.75088163  1
  Si  Si26  1  0.96026190  0.33426861  0.58566291  1
  Si  Si27  1  0.66800195  0.62566471  0.58496687  1
  Si  Si28  1  0.95526545  0.62245060  0.08298598  1
  Si  Si29  1  0.66417244  0.04135777  0.08331016  1
  Si  Si30  1  0.37976653  0.33866676  0.08416785  1
  Si  Si31  1  0.62460462  0.66459753  0.91526978  1
  Si  Si32  1  0.04141290  0.37848267  0.91601402  1
  Si  Si33  1  0.33452646  0.95771227  0.91687081  1
  Si  Si34  1  0.61725637  0.95843023  0.41607052  1
  Si  Si35  1  0.04551861  0.66760756  0.41704470  1
  P  P36  1  0.29323818  0.00149720  0.25036231  1
  P  P37  1  0.70548716  0.70537457  0.25229719  1
  P  P38  1  0.00102337  0.29318160  0.25193270  1
  P  P39  1  0.00777545  0.72184106  0.75084772  1
  P  P40  1  0.37330507  0.04099593  0.58311695  1
  P  P41  1  0.33777039  0.38501736  0.41669422  1
  O  O42  1  0.21172740  0.02172716  0.30584277  1
  O  O43  1  0.80087610  0.78236586  0.31001998  1
  O  O44  1  0.98132224  0.19530838  0.30925144  1
  O  O45  1  0.18837038  0.16998780  0.80773703  1
  O  O46  1  0.98460683  0.81100795  0.80518162  1
  O  O47  1  0.83189527  0.01625335  0.80695312  1
  O  O48  1  0.80361506  0.96563692  0.69270946  1
  O  O49  1  0.16396808  0.19027122  0.69297316  1
  O  O50  1  0.02966383  0.82939755  0.69460483  1
  O  O51  1  0.80556192  0.82799595  0.19866023  1
  O  O52  1  0.02363378  0.19782562  0.19698292  1
  O  O53  1  0.17785932  0.97521196  0.19441435  1
  O  O54  1  0.89053000  0.37161371  0.64526806  1
  O  O55  1  0.48050398  0.10547509  0.63842514  1
  O  O56  1  0.62702457  0.51843664  0.64485928  1
  O  O57  1  0.89579591  0.50077189  0.13958254  1
  O  O58  1  0.60822055  0.10481030  0.14037235  1
  O  O59  1  0.48615404  0.37878515  0.14319828  1
  O  O60  1  0.46557259  0.29303242  0.02784246  1
  O  O61  1  0.83055873  0.53172772  0.02599265  1
  O  O62  1  0.70742678  0.17214820  0.02699047  1
  O  O63  1  0.46685206  0.15930766  0.52851498  1
  O  O64  1  0.68941639  0.52474079  0.52608060  1
  O  O65  1  0.83314337  0.30444424  0.52697297  1
  O  O66  1  0.52714749  0.69267579  0.97128483  1
  O  O67  1  0.16001521  0.46954213  0.97387520  1
  O  O68  1  0.30667827  0.83989712  0.97510635  1
  O  O69  1  0.52272085  0.83134074  0.47161089  1
  O  O70  1  0.31347141  0.47391991  0.47109169  1
  O  O71  1  0.16404567  0.68222560  0.47281473  1
  O  O72  1  0.13667500  0.63125222  0.35915450  1
  O  O73  1  0.49655867  0.85786847  0.35793701  1
  O  O74  1  0.36791711  0.50014094  0.36130758  1
  O  O75  1  0.13585582  0.49590037  0.85720709  1
  O  O76  1  0.36010356  0.85852609  0.85980899  1
  O  O77  1  0.50385195  0.63795909  0.85643961  1
  O  O78  1  0.01243831  0.82689524  0.41534657  1
  O  O79  1  0.80938218  0.98432683  0.41351099  1
  O  O80  1  0.17495534  0.20927678  0.41323500  1
  O  O81  1  0.02363565  0.18852493  0.91003685  1
  O  O82  1  0.16273842  0.97381569  0.90901095  1
  O  O83  1  0.81339542  0.83445641  0.90837248  1
  O  O84  1  0.97750865  0.16011039  0.58926926  1
  O  O85  1  0.19369436  0.02417136  0.58790663  1
  O  O86  1  0.84508109  0.81407973  0.58895600  1
  O  O87  1  0.98106607  0.81749160  0.09329000  1
  O  O88  1  0.84142144  0.02891098  0.09352946  1
  O  O89  1  0.18300083  0.16090889  0.09335048  1
  O  O90  1  0.70361883  0.17364446  0.74875203  1
  O  O91  1  0.48264260  0.32244663  0.74975779  1
  O  O92  1  0.84707071  0.54208838  0.74855356  1
  O  O93  1  0.68281553  0.52693926  0.24608946  1
  O  O94  1  0.84612392  0.31823577  0.24644557  1
  O  O95  1  0.47531369  0.15251093  0.24585703  1
  O  O96  1  0.63739727  0.49212255  0.92377038  1
  O  O97  1  0.85274957  0.35964311  0.92319558  1
  O  O98  1  0.50602738  0.14523453  0.92410152  1
  O  O99  1  0.63429614  0.14814512  0.42351895  1
  O  O100  1  0.50353238  0.37258543  0.42363885  1
  O  O101  1  0.85344199  0.48851871  0.42435529  1
  O  O102  1  0.33552887  0.49275454  0.07306590  1
  O  O103  1  0.15259215  0.65801599  0.07189687  1
  O  O104  1  0.50028041  0.84882067  0.07196172  1
  O  O105  1  0.34906101  0.85916070  0.57152326  1
  O  O106  1  0.50390116  0.65478137  0.57208469  1
  O  O107  1  0.15150966  0.49842955  0.57229212  1
  O  O108  1  0.29993213  0.82738395  0.25547149  1
  O  O109  1  0.52466742  0.69590445  0.25511800  1
  O  O110  1  0.17356231  0.47264619  0.25579602  1
  O  O111  1  0.29497186  0.47604025  0.75539474  1
  O  O112  1  0.16903495  0.69939564  0.75598484  1
  O  O113  1  0.52257428  0.82020174  0.75561173  1
