# generated using pymatgen
data_Na6Y3NbSi2(PO6)4
_symmetry_space_group_name_H-M   'P 1'
_cell_length_a   9.32016409
_cell_length_b   9.33781275
_cell_length_c   22.75663255
_cell_angle_alpha   90.16684012
_cell_angle_beta   90.08084637
_cell_angle_gamma   120.13610578
_symmetry_Int_Tables_number   1
_chemical_formula_structural   Na6Y3NbSi2(PO6)4
_chemical_formula_sum   'Na18 Y9 Nb3 Si6 P12 O72'
_cell_volume   1712.79680275
_cell_formula_units_Z   3
loop_
 _symmetry_equiv_pos_site_id
 _symmetry_equiv_pos_as_xyz
  1  'x, y, z'
loop_
 _atom_site_type_symbol
 _atom_site_label
 _atom_site_symmetry_multiplicity
 _atom_site_fract_x
 _atom_site_fract_y
 _atom_site_fract_z
 _atom_site_occupancy
  Na  Na0  1  0.99065633  0.98337127  0.50509458  1
  Na  Na1  1  0.95681435  0.98084884  0.99487565  1
  Na  Na2  1  0.66250033  0.34083558  0.82896121  1
  Na  Na3  1  0.65528463  0.33289684  0.32836142  1
  Na  Na4  1  0.32904261  0.64009407  0.16691481  1
  Na  Na5  1  0.33515958  0.66457026  0.67083145  1
  Na  Na6  1  0.66006568  0.01215664  0.24302729  1
  Na  Na7  1  0.00393559  0.34084158  0.74512700  1
  Na  Na8  1  0.35796971  0.00998600  0.75412439  1
  Na  Na9  1  0.30464880  0.33280532  0.59353755  1
  Na  Na10  1  0.66335773  0.96881212  0.58510888  1
  Na  Na11  1  0.29095088  0.95550026  0.07851919  1
  Na  Na12  1  0.03795260  0.33928877  0.07560976  1
  Na  Na13  1  0.99712568  0.68288158  0.91664121  1
  Na  Na14  1  0.31347440  0.28976389  0.91271358  1
  Na  Na15  1  0.96099261  0.28720389  0.41212955  1
  Na  Na16  1  0.33785247  0.03808006  0.40576696  1
  Na  Na17  1  0.69966664  0.68130885  0.41685148  1
  Y  Y18  1  0.00306425  0.99964771  0.34549961  1
  Y  Y19  1  0.99265188  0.99580495  0.85026470  1
  Y  Y20  1  0.99511440  0.99087597  0.65395457  1
  Y  Y21  1  0.00036717  0.99335006  0.14860561  1
  Y  Y22  1  0.67289885  0.34837017  0.68389711  1
  Y  Y23  1  0.66385537  0.34282350  0.18683462  1
  Y  Y24  1  0.66870285  0.33606515  0.48178889  1
  Y  Y25  1  0.34636837  0.66977865  0.01822080  1
  Y  Y26  1  0.32613143  0.66787888  0.51938630  1
  Nb  Nb27  1  0.66588046  0.33258747  0.97575927  1
  Nb  Nb28  1  0.33213545  0.67371237  0.31253485  1
  Nb  Nb29  1  0.34178536  0.66505897  0.82124809  1
  Si  Si30  1  0.30804166  0.99858814  0.25162320  1
  Si  Si31  1  0.30491682  0.31140650  0.75198697  1
  Si  Si32  1  0.63510898  0.65987865  0.92047169  1
  Si  Si33  1  0.03200521  0.37045645  0.92083727  1
  Si  Si34  1  0.33858933  0.96389378  0.92041774  1
  Si  Si35  1  0.63121261  0.96567133  0.41823650  1
  P  P36  1  0.68731032  0.69985388  0.25656006  1
  P  P37  1  0.00923020  0.31019198  0.24974846  1
  P  P38  1  0.01645780  0.69499740  0.75732880  1
  P  P39  1  0.68438674  0.99182681  0.74698839  1
  P  P40  1  0.96917046  0.32356146  0.58387630  1
  P  P41  1  0.36200185  0.03612734  0.58370894  1
  P  P42  1  0.66896799  0.64146379  0.57707358  1
  P  P43  1  0.95584835  0.62864987  0.07920206  1
  P  P44  1  0.67476414  0.05399806  0.08404536  1
  P  P45  1  0.36771418  0.32331624  0.07913200  1
  P  P46  1  0.33381714  0.37677541  0.41565891  1
  P  P47  1  0.03583101  0.66325331  0.41285324  1
  O  O48  1  0.22552479  0.01179596  0.31259418  1
  O  O49  1  0.76973013  0.77276964  0.31621917  1
  O  O50  1  0.98075610  0.20190415  0.30495166  1
  O  O51  1  0.21478069  0.19562215  0.80854156  1
  O  O52  1  0.99415975  0.76373210  0.81553505  1
  O  O53  1  0.81003823  0.01959011  0.79546293  1
  O  O54  1  0.74906110  0.96794710  0.68717741  1
  O  O55  1  0.18648493  0.23096108  0.69307178  1
  O  O56  1  0.03047710  0.81009668  0.70603068  1
  O  O57  1  0.78283360  0.82483313  0.20663189  1
  O  O58  1  0.02673210  0.22437973  0.19396153  1
  O  O59  1  0.19563782  0.97592144  0.19352187  1
  O  O60  1  0.87695501  0.32606284  0.63972115  1
  O  O61  1  0.46531225  0.13318657  0.63798109  1
  O  O62  1  0.66586285  0.52749373  0.62617008  1
  O  O63  1  0.86051022  0.52869562  0.13232274  1
  O  O64  1  0.67606734  0.13512712  0.14260355  1
  O  O65  1  0.46324874  0.32510357  0.13340775  1
  O  O66  1  0.47140073  0.32650610  0.02317894  1
  O  O67  1  0.85281022  0.53219679  0.02209233  1
  O  O68  1  0.67709420  0.17203734  0.03241785  1
  O  O69  1  0.44936673  0.13446073  0.52669252  1
  O  O70  1  0.67653252  0.56792461  0.51647587  1
  O  O71  1  0.87340940  0.32468386  0.52760529  1
  O  O72  1  0.55693714  0.68444808  0.97858715  1
  O  O73  1  0.13230768  0.44924765  0.98056948  1
  O  O74  1  0.30149291  0.85684345  0.97928310  1
  O  O75  1  0.54825510  0.86343557  0.47800639  1
  O  O76  1  0.31611074  0.44939603  0.47422579  1
  O  O77  1  0.13342617  0.67894840  0.46877099  1
  O  O78  1  0.14246197  0.65936288  0.35971355  1
  O  O79  1  0.50298430  0.84453268  0.36222477  1
  O  O80  1  0.33195437  0.48901114  0.36473473  1
  O  O81  1  0.14559930  0.50599419  0.86631085  1
  O  O82  1  0.36211765  0.86002658  0.86427400  1
  O  O83  1  0.50603830  0.64449932  0.86457121  1
  O  O84  1  0.00991107  0.81358600  0.41020130  1
  O  O85  1  0.81750168  0.99179134  0.41319888  1
  O  O86  1  0.18504644  0.19756643  0.41104746  1
  O  O87  1  0.00667024  0.18920528  0.91109066  1
  O  O88  1  0.18892053  0.00054329  0.91007474  1
  O  O89  1  0.82517914  0.79952797  0.91261654  1
  O  O90  1  0.97472886  0.15976543  0.58174095  1
  O  O91  1  0.19002863  0.02344128  0.58531295  1
  O  O92  1  0.81924939  0.81782207  0.58231951  1
  O  O93  1  0.97897225  0.80524636  0.07822430  1
  O  O94  1  0.83652548  0.04671511  0.07739115  1
  O  O95  1  0.19680063  0.15878607  0.07549715  1
  O  O96  1  0.65917455  0.14438285  0.74685017  1
  O  O97  1  0.48953290  0.33438324  0.74803639  1
  O  O98  1  0.87627613  0.51256346  0.74925205  1
  O  O99  1  0.66538936  0.52783844  0.24933075  1
  O  O100  1  0.85866083  0.33529067  0.24600222  1
  O  O101  1  0.50251614  0.14274413  0.24996509  1
  O  O102  1  0.62418732  0.47448094  0.91950133  1
  O  O103  1  0.85120531  0.36922897  0.92172723  1
  O  O104  1  0.51334093  0.14814979  0.92553600  1
  O  O105  1  0.63564293  0.14366245  0.41333754  1
  O  O106  1  0.49867227  0.37339442  0.41223849  1
  O  O107  1  0.86653192  0.49930548  0.41069216  1
  O  O108  1  0.33524660  0.47051146  0.08185339  1
  O  O109  1  0.13017463  0.64372333  0.08084917  1
  O  O110  1  0.51442956  0.88404654  0.08152277  1
  O  O111  1  0.35130951  0.86500329  0.58501122  1
  O  O112  1  0.50662459  0.65005348  0.58407002  1
  O  O113  1  0.14884867  0.47262567  0.58579207  1
  O  O114  1  0.32038286  0.82154050  0.25716764  1
  O  O115  1  0.51001903  0.68463331  0.25634471  1
  O  O116  1  0.17234799  0.48148544  0.25742942  1
  O  O117  1  0.31102554  0.49322071  0.76147244  1
  O  O118  1  0.18501457  0.69464364  0.75776350  1
  O  O119  1  0.51039103  0.83526998  0.75862492  1
