# generated using pymatgen
data_Na3ScNbSi2PO12
_symmetry_space_group_name_H-M   'P 1'
_cell_length_a   15.80058488
_cell_length_b   27.34308936
_cell_length_c   9.01919877
_cell_angle_alpha   90.00000000
_cell_angle_beta   124.97307803
_cell_angle_gamma   90.00000000
_symmetry_Int_Tables_number   1
_chemical_formula_structural   Na3ScNbSi2PO12
_chemical_formula_sum   'Na36 Sc12 Nb12 Si24 P12 O144'
_cell_volume   3192.97882786
_cell_formula_units_Z   12
loop_
 _symmetry_equiv_pos_site_id
 _symmetry_equiv_pos_as_xyz
  1  'x, y, z'
loop_
 _atom_site_type_symbol
 _atom_site_label
 _atom_site_symmetry_multiplicity
 _atom_site_fract_x
 _atom_site_fract_y
 _atom_site_fract_z
 _atom_site_occupancy
  Na  Na0  1  0.25453611  0.25477349  0.00832544  1
  Na  Na1  1  0.24814631  0.58721686  0.01799931  1
  Na  Na2  1  0.25009820  0.91818636  0.01915896  1
  Na  Na3  1  0.75453611  0.24522651  0.50832544  1
  Na  Na4  1  0.75009820  0.58181364  0.51915896  1
  Na  Na5  1  0.74814631  0.91278314  0.51799931  1
  Na  Na6  1  0.74814631  0.08721686  0.01799931  1
  Na  Na7  1  0.75009820  0.41818636  0.01915896  1
  Na  Na8  1  0.75453611  0.75477349  0.00832544  1
  Na  Na9  1  0.25009820  0.08181364  0.51915896  1
  Na  Na10  1  0.24814631  0.41278314  0.51799931  1
  Na  Na11  1  0.25453611  0.74522651  0.50832544  1
  Na  Na12  1  0.49441393  0.03261796  0.75083847  1
  Na  Na13  1  0.49642132  0.36639843  0.75613940  1
  Na  Na14  1  0.49377118  0.69911307  0.74572522  1
  Na  Na15  1  0.49377118  0.30088693  0.24572522  1
  Na  Na16  1  0.49642132  0.63360157  0.25613940  1
  Na  Na17  1  0.49441393  0.96738204  0.25083847  1
  Na  Na18  1  0.99377118  0.19911307  0.74572522  1
  Na  Na19  1  0.99441393  0.53261796  0.75083847  1
  Na  Na20  1  0.99642132  0.86639843  0.75613940  1
  Na  Na21  1  0.99642132  0.13360157  0.25613940  1
  Na  Na22  1  0.99441393  0.46738204  0.25083847  1
  Na  Na23  1  0.99377118  0.80088693  0.24572522  1
  Na  Na24  1  0.81756208  0.64369927  0.20147436  1
  Na  Na25  1  0.81638459  0.97788850  0.20625555  1
  Na  Na26  1  0.19352574  0.30723787  0.29234515  1
  Na  Na27  1  0.19352574  0.69276213  0.79234515  1
  Na  Na28  1  0.81638459  0.02211150  0.70625555  1
  Na  Na29  1  0.81756208  0.35630073  0.70147436  1
  Na  Na30  1  0.31756208  0.14369927  0.20147436  1
  Na  Na31  1  0.31638459  0.47788850  0.20625555  1
  Na  Na32  1  0.69352574  0.80723787  0.29234515  1
  Na  Na33  1  0.69352574  0.19276213  0.79234515  1
  Na  Na34  1  0.31638459  0.52211150  0.70625555  1
  Na  Na35  1  0.31756208  0.85630073  0.70147436  1
  Sc  Sc36  1  0.89787634  0.25051596  0.94040184  1
  Sc  Sc37  1  0.89308621  0.58324569  0.93222833  1
  Sc  Sc38  1  0.89377658  0.91449674  0.93483300  1
  Sc  Sc39  1  0.89377658  0.08550326  0.43483300  1
  Sc  Sc40  1  0.89308621  0.41675431  0.43222833  1
  Sc  Sc41  1  0.89787634  0.74948404  0.44040184  1
  Sc  Sc42  1  0.39308621  0.08324569  0.93222833  1
  Sc  Sc43  1  0.39377658  0.41449674  0.93483300  1
  Sc  Sc44  1  0.39787634  0.75051596  0.94040184  1
  Sc  Sc45  1  0.39787634  0.24948404  0.44040184  1
  Sc  Sc46  1  0.39377658  0.58550326  0.43483300  1
  Sc  Sc47  1  0.39308621  0.91675431  0.43222833  1
  Nb  Nb48  1  0.10756987  0.24764337  0.56835441  1
  Nb  Nb49  1  0.10422179  0.58229428  0.56588979  1
  Nb  Nb50  1  0.10595884  0.91692660  0.56632722  1
  Nb  Nb51  1  0.10595884  0.08307340  0.06632722  1
  Nb  Nb52  1  0.10422179  0.41770572  0.06588979  1
  Nb  Nb53  1  0.10756987  0.75235663  0.06835441  1
  Nb  Nb54  1  0.60422179  0.08229428  0.56588979  1
  Nb  Nb55  1  0.60595884  0.41692660  0.56632722  1
  Nb  Nb56  1  0.60756987  0.74764337  0.56835441  1
  Nb  Nb57  1  0.60756987  0.25235663  0.06835441  1
  Nb  Nb58  1  0.60595884  0.58307340  0.06632722  1
  Nb  Nb59  1  0.60422179  0.91770572  0.06588979  1
  Si  Si60  1  0.34958937  0.29698268  0.74658241  1
  Si  Si61  1  0.35169094  0.63116238  0.75468695  1
  Si  Si62  1  0.35036658  0.96472303  0.74974753  1
  Si  Si63  1  0.64537989  0.30082855  0.73985502  1
  Si  Si64  1  0.64517691  0.63179945  0.73885749  1
  Si  Si65  1  0.64553132  0.96612319  0.73856108  1
  Si  Si66  1  0.64553132  0.03387681  0.23856108  1
  Si  Si67  1  0.64517691  0.36820055  0.23885749  1
  Si  Si68  1  0.64537989  0.69917145  0.23985502  1
  Si  Si69  1  0.35036658  0.03527697  0.24974753  1
  Si  Si70  1  0.35169094  0.36883762  0.25468695  1
  Si  Si71  1  0.34958937  0.70301732  0.24658241  1
  Si  Si72  1  0.85169094  0.13116238  0.75468695  1
  Si  Si73  1  0.85036658  0.46472303  0.74974753  1
  Si  Si74  1  0.84958937  0.79698268  0.74658241  1
  Si  Si75  1  0.14517691  0.13179945  0.73885749  1
  Si  Si76  1  0.14553132  0.46612319  0.73856108  1
  Si  Si77  1  0.14537989  0.80082855  0.73985502  1
  Si  Si78  1  0.14537989  0.19917145  0.23985502  1
  Si  Si79  1  0.14553132  0.53387681  0.23856108  1
  Si  Si80  1  0.14517691  0.86820055  0.23885749  1
  Si  Si81  1  0.84958937  0.20301732  0.24658241  1
  Si  Si82  1  0.85036658  0.53527697  0.24974753  1
  Si  Si83  1  0.85169094  0.86883762  0.25468695  1
  P  P84  1  0.00599619  0.31961718  0.75243051  1
  P  P85  1  0.00065416  0.65293603  0.74709567  1
  P  P86  1  0.00314259  0.98664399  0.74603249  1
  P  P87  1  0.00314259  0.01335601  0.24603249  1
  P  P88  1  0.00065416  0.34706397  0.24709567  1
  P  P89  1  0.00599619  0.68038282  0.25243051  1
  P  P90  1  0.50065416  0.15293603  0.74709567  1
  P  P91  1  0.50314259  0.48664399  0.74603249  1
  P  P92  1  0.50599619  0.81961718  0.75243051  1
  P  P93  1  0.50599619  0.18038282  0.25243051  1
  P  P94  1  0.50314259  0.51335601  0.24603249  1
  P  P95  1  0.50065416  0.84706397  0.24709567  1
  O  O96  1  0.14532448  0.19364360  0.74519821  1
  O  O97  1  0.14630841  0.52818499  0.74711116  1
  O  O98  1  0.14656410  0.86160888  0.74605208  1
  O  O99  1  0.84371911  0.19048218  0.75325629  1
  O  O100  1  0.84724431  0.52339607  0.75193015  1
  O  O101  1  0.84540572  0.85644822  0.75189114  1
  O  O102  1  0.84540572  0.14355178  0.25189114  1
  O  O103  1  0.84724431  0.47660393  0.25193015  1
  O  O104  1  0.84371911  0.80951782  0.25325629  1
  O  O105  1  0.14656410  0.13839112  0.24605208  1
  O  O106  1  0.14630841  0.47181501  0.24711116  1
  O  O107  1  0.14532448  0.80635640  0.24519821  1
  O  O108  1  0.64630841  0.02818499  0.74711116  1
  O  O109  1  0.64656410  0.36160888  0.74605208  1
  O  O110  1  0.64532448  0.69364360  0.74519821  1
  O  O111  1  0.34724431  0.02339607  0.75193015  1
  O  O112  1  0.34540572  0.35644822  0.75189114  1
  O  O113  1  0.34371911  0.69048218  0.75325629  1
  O  O114  1  0.34371911  0.30951782  0.25325629  1
  O  O115  1  0.34540572  0.64355178  0.25189114  1
  O  O116  1  0.34724431  0.97660393  0.25193015  1
  O  O117  1  0.64532448  0.30635640  0.24519821  1
  O  O118  1  0.64656410  0.63839112  0.24605208  1
  O  O119  1  0.64630841  0.97181501  0.24711116  1
  O  O120  1  0.43821887  0.18194908  0.57035750  1
  O  O121  1  0.43752870  0.51694446  0.57397776  1
  O  O122  1  0.44256110  0.85233950  0.58789731  1
  O  O123  1  0.56509487  0.18868619  0.91198204  1
  O  O124  1  0.56476123  0.52209348  0.91438603  1
  O  O125  1  0.57078950  0.85258756  0.92870165  1
  O  O126  1  0.57078950  0.14741244  0.42870165  1
  O  O127  1  0.56476123  0.47790652  0.41438603  1
  O  O128  1  0.56509487  0.81131381  0.41198204  1
  O  O129  1  0.44256110  0.14766050  0.08789731  1
  O  O130  1  0.43752870  0.48305554  0.07397776  1
  O  O131  1  0.43821887  0.81805092  0.07035750  1
  O  O132  1  0.93752870  0.01694446  0.57397776  1
  O  O133  1  0.94256110  0.35233950  0.58789731  1
  O  O134  1  0.93821887  0.68194908  0.57035750  1
  O  O135  1  0.06476123  0.02209348  0.91438603  1
  O  O136  1  0.07078950  0.35258756  0.92870165  1
  O  O137  1  0.06509487  0.68868619  0.91198204  1
  O  O138  1  0.06509487  0.31131381  0.41198204  1
  O  O139  1  0.07078950  0.64741244  0.42870165  1
  O  O140  1  0.06476123  0.97790652  0.41438603  1
  O  O141  1  0.93821887  0.31805092  0.07035750  1
  O  O142  1  0.94256110  0.64766050  0.08789731  1
  O  O143  1  0.93752870  0.98305554  0.07397776  1
  O  O144  1  0.25141766  0.27213695  0.73852016  1
  O  O145  1  0.25433540  0.60627636  0.75114831  1
  O  O146  1  0.25437175  0.93752519  0.74384038  1
  O  O147  1  0.74566122  0.28088536  0.75152602  1
  O  O148  1  0.74596410  0.61236771  0.75692661  1
  O  O149  1  0.74886503  0.95139866  0.75251120  1
  O  O150  1  0.74886503  0.04860134  0.25251120  1
  O  O151  1  0.74596410  0.38763229  0.25692661  1
  O  O152  1  0.74566122  0.71911464  0.25152602  1
  O  O153  1  0.25437175  0.06247481  0.24384038  1
  O  O154  1  0.25433540  0.39372364  0.25114831  1
  O  O155  1  0.25141766  0.72786305  0.23852016  1
  O  O156  1  0.75433540  0.10627636  0.75114831  1
  O  O157  1  0.75437175  0.43752519  0.74384038  1
  O  O158  1  0.75141766  0.77213695  0.73852016  1
  O  O159  1  0.24596410  0.11236771  0.75692661  1
  O  O160  1  0.24886503  0.45139866  0.75251120  1
  O  O161  1  0.24566122  0.78088536  0.75152602  1
  O  O162  1  0.24566122  0.21911464  0.25152602  1
  O  O163  1  0.24886503  0.54860134  0.25251120  1
  O  O164  1  0.24596410  0.88763229  0.25692661  1
  O  O165  1  0.75141766  0.22786305  0.23852016  1
  O  O166  1  0.75437175  0.56247481  0.24384038  1
  O  O167  1  0.75433540  0.89372364  0.25114831  1
  O  O168  1  0.34321622  0.28339932  0.56530733  1
  O  O169  1  0.35125038  0.61273842  0.58512227  1
  O  O170  1  0.35412372  0.94500664  0.58659206  1
  O  O171  1  0.63862475  0.28505398  0.91449915  1
  O  O172  1  0.64067092  0.61859721  0.92032664  1
  O  O173  1  0.64376650  0.95153025  0.92246791  1
  O  O174  1  0.64376650  0.04846975  0.42246791  1
  O  O175  1  0.64067092  0.38140279  0.42032664  1
  O  O176  1  0.63862475  0.71494602  0.41449915  1
  O  O177  1  0.35412372  0.05499336  0.08659206  1
  O  O178  1  0.35125038  0.38726158  0.08512227  1
  O  O179  1  0.34321622  0.71660068  0.06530733  1
  O  O180  1  0.85125038  0.11273842  0.58512227  1
  O  O181  1  0.85412372  0.44500664  0.58659206  1
  O  O182  1  0.84321622  0.78339932  0.56530733  1
  O  O183  1  0.14067092  0.11859721  0.92032664  1
  O  O184  1  0.14376650  0.45153025  0.92246791  1
  O  O185  1  0.13862475  0.78505398  0.91449915  1
  O  O186  1  0.13862475  0.21494602  0.41449915  1
  O  O187  1  0.14376650  0.54846975  0.42246791  1
  O  O188  1  0.14067092  0.88140279  0.42032664  1
  O  O189  1  0.84321622  0.21660068  0.06530733  1
  O  O190  1  0.85412372  0.55499336  0.08659206  1
  O  O191  1  0.85125038  0.88726158  0.08512227  1
  O  O192  1  0.46001326  0.27483237  0.92847206  1
  O  O193  1  0.46091128  0.60828607  0.93959974  1
  O  O194  1  0.46106436  0.94093162  0.93828254  1
  O  O195  1  0.54083865  0.28035463  0.55981487  1
  O  O196  1  0.53779077  0.61515913  0.55750713  1
  O  O197  1  0.53992104  0.94836069  0.55880624  1
  O  O198  1  0.53992104  0.05163931  0.05880624  1
  O  O199  1  0.53779077  0.38484087  0.05750713  1
  O  O200  1  0.54083865  0.71964537  0.05981487  1
  O  O201  1  0.46106436  0.05906838  0.43828254  1
  O  O202  1  0.46091128  0.39171393  0.43959974  1
  O  O203  1  0.46001326  0.72516763  0.42847206  1
  O  O204  1  0.96091128  0.10828607  0.93959974  1
  O  O205  1  0.96106436  0.44093162  0.93828254  1
  O  O206  1  0.96001326  0.77483237  0.92847206  1
  O  O207  1  0.03779077  0.11515913  0.55750713  1
  O  O208  1  0.03992104  0.44836069  0.55880624  1
  O  O209  1  0.04083865  0.78035463  0.55981487  1
  O  O210  1  0.04083865  0.21964537  0.05981487  1
  O  O211  1  0.03992104  0.55163931  0.05880624  1
  O  O212  1  0.03779077  0.88484087  0.05750713  1
  O  O213  1  0.96001326  0.22516763  0.42847206  1
  O  O214  1  0.96106436  0.55906838  0.43828254  1
  O  O215  1  0.96091128  0.89171393  0.43959974  1
  O  O216  1  0.08409083  0.28613923  0.74828372  1
  O  O217  1  0.08741574  0.62275316  0.74893628  1
  O  O218  1  0.08459425  0.95450181  0.74639415  1
  O  O219  1  0.92988651  0.28633274  0.76196089  1
  O  O220  1  0.93273831  0.61621261  0.75980813  1
  O  O221  1  0.93006992  0.95287327  0.76045926  1
  O  O222  1  0.93006992  0.04712673  0.26045926  1
  O  O223  1  0.93273831  0.38378739  0.25980813  1
  O  O224  1  0.92988651  0.71366726  0.26196089  1
  O  O225  1  0.08459425  0.04549819  0.24639415  1
  O  O226  1  0.08741574  0.37724684  0.24893628  1
  O  O227  1  0.08409083  0.71386077  0.24828372  1
  O  O228  1  0.58741574  0.12275316  0.74893628  1
  O  O229  1  0.58459425  0.45450181  0.74639415  1
  O  O230  1  0.58409083  0.78613923  0.74828372  1
  O  O231  1  0.43273831  0.11621261  0.75980813  1
  O  O232  1  0.43006992  0.45287327  0.76045926  1
  O  O233  1  0.42988651  0.78633274  0.76196089  1
  O  O234  1  0.42988651  0.21366726  0.26196089  1
  O  O235  1  0.43006992  0.54712673  0.26045926  1
  O  O236  1  0.43273831  0.88378739  0.25980813  1
  O  O237  1  0.58409083  0.21386077  0.24828372  1
  O  O238  1  0.58459425  0.54549819  0.24639415  1
  O  O239  1  0.58741574  0.87724684  0.24893628  1
