# generated using pymatgen
data_Na6Al8Si3(S3O16)3
_symmetry_space_group_name_H-M   'P 1'
_cell_length_a   16.93060176
_cell_length_b   8.42019438
_cell_length_c   21.73423598
_cell_angle_alpha   90.08826583
_cell_angle_beta   89.76921692
_cell_angle_gamma   119.79646683
_symmetry_Int_Tables_number   1
_chemical_formula_structural   Na6Al8Si3(S3O16)3
_chemical_formula_sum   'Na18 Al24 Si9 S27 O144'
_cell_volume   2688.76594286
_cell_formula_units_Z   3
loop_
 _symmetry_equiv_pos_site_id
 _symmetry_equiv_pos_as_xyz
  1  'x, y, z'
loop_
 _atom_site_type_symbol
 _atom_site_label
 _atom_site_symmetry_multiplicity
 _atom_site_fract_x
 _atom_site_fract_y
 _atom_site_fract_z
 _atom_site_occupancy
  Na  Na0  1  0.00483631  0.64600760  0.25382780  1
  Na  Na1  1  0.50312992  0.36368701  0.74532180  1
  Na  Na2  1  0.16222914  0.30367345  0.91174825  1
  Na  Na3  1  0.66214009  0.30313865  0.91224000  1
  Na  Na4  1  0.16282095  0.02288124  0.41628433  1
  Na  Na5  1  0.66149543  0.01822133  0.41572940  1
  Na  Na6  1  0.99593437  0.99083220  0.50022828  1
  Na  Na7  1  0.49494575  0.99964328  0.50202839  1
  Na  Na8  1  0.99664539  0.00228658  0.99790011  1
  Na  Na9  1  0.49562019  0.00054352  0.99871826  1
  Na  Na10  1  0.33223955  0.33261923  0.83061012  1
  Na  Na11  1  0.83898214  0.33501752  0.83048696  1
  Na  Na12  1  0.33978584  0.34398835  0.33361969  1
  Na  Na13  1  0.83086382  0.32985072  0.33451319  1
  Na  Na14  1  0.17237359  0.67706042  0.16836351  1
  Na  Na15  1  0.66405642  0.67392555  0.16999533  1
  Na  Na16  1  0.16707375  0.65696336  0.66860238  1
  Na  Na17  1  0.66536484  0.65763116  0.66436757  1
  Al  Al18  1  0.00393608  0.99500954  0.35395060  1
  Al  Al19  1  0.50403406  0.99338168  0.35229429  1
  Al  Al20  1  0.00413736  0.01837412  0.84903346  1
  Al  Al21  1  0.50338591  0.01501844  0.85030244  1
  Al  Al22  1  0.00394880  0.00890151  0.64988639  1
  Al  Al23  1  0.50326858  0.02007920  0.64662989  1
  Al  Al24  1  0.00356411  0.99601026  0.15015009  1
  Al  Al25  1  0.50226533  0.99467019  0.15200330  1
  Al  Al26  1  0.33040156  0.33598745  0.68350347  1
  Al  Al27  1  0.83098242  0.33479369  0.68755758  1
  Al  Al28  1  0.33216141  0.32841155  0.18927015  1
  Al  Al29  1  0.82516800  0.31908682  0.18750533  1
  Al  Al30  1  0.33933262  0.33357057  0.97953556  1
  Al  Al31  1  0.83896880  0.33354250  0.97960831  1
  Al  Al32  1  0.34714356  0.34793740  0.48261836  1
  Al  Al33  1  0.83882658  0.34471094  0.48095979  1
  Al  Al34  1  0.16404585  0.65631312  0.01580629  1
  Al  Al35  1  0.66268658  0.65512537  0.01660065  1
  Al  Al36  1  0.16479794  0.67196107  0.51799883  1
  Al  Al37  1  0.65202977  0.65616607  0.52144119  1
  Al  Al38  1  0.16468010  0.67461780  0.31519838  1
  Al  Al39  1  0.65755607  0.67008205  0.31351510  1
  Al  Al40  1  0.15680731  0.64467962  0.81013358  1
  Al  Al41  1  0.66206974  0.65475175  0.81192970  1
  Si  Si42  1  0.14875873  0.00715470  0.24991907  1
  Si  Si43  1  0.64586045  -0.00006714  0.24978785  1
  Si  Si44  1  0.14822697  0.29109296  0.74855546  1
  Si  Si45  1  0.64972766  0.29065671  0.75059043  1
  Si  Si46  1  0.47698907  0.32998945  0.58561948  1
  Si  Si47  1  0.01862165  0.37659595  0.91710477  1
  Si  Si48  1  0.51850679  0.37616215  0.91634279  1
  Si  Si49  1  0.01868323  0.65898687  0.41698590  1
  Si  Si50  1  0.51765046  0.66168554  0.41674585  1
  S  S51  1  0.35535997  0.71203745  0.24947424  1
  S  S52  1  0.85419932  0.71327465  0.24889805  1
  S  S53  1  0.00040674  0.28303095  0.24924126  1
  S  S54  1  0.50041732  0.28533465  0.24948441  1
  S  S55  1  0.00025700  0.71563466  0.74971450  1
  S  S56  1  0.50061046  0.72188109  0.75033075  1
  S  S57  1  0.35227429  0.99154545  0.75081805  1
  S  S58  1  0.85537557  0.99840007  0.74924982  1
  S  S59  1  0.97651327  0.33142537  0.58404759  1
  S  S60  1  0.18787085  0.04238165  0.58219010  1
  S  S61  1  0.69249088  0.04749360  0.58286063  1
  S  S62  1  0.33127850  0.62309376  0.58286969  1
  S  S63  1  0.83525057  0.62630558  0.58395716  1
  S  S64  1  0.47649943  0.62173272  0.08393270  1
  S  S65  1  0.97687584  0.62217532  0.08419123  1
  S  S66  1  0.33323547  0.04203778  0.08359273  1
  S  S67  1  0.83329592  0.04122515  0.08338458  1
  S  S68  1  0.19013480  0.33539358  0.08314185  1
  S  S69  1  0.68966419  0.33553159  0.08245165  1
  S  S70  1  0.31261374  0.67182893  0.91736867  1
  S  S71  1  0.81256500  0.67216265  0.91758420  1
  S  S72  1  0.16633110  0.94879513  0.91719474  1
  S  S73  1  0.66636694  0.94879239  0.91749787  1
  S  S74  1  0.31273771  0.95382375  0.41668818  1
  S  S75  1  0.81242092  0.95136386  0.41752258  1
  S  S76  1  0.16600507  0.38375475  0.41680797  1
  S  S77  1  0.66642479  0.38469125  0.41648879  1
  O  O78  1  0.10196210  0.03783250  0.31079582  1
  O  O79  1  0.60316829  0.04007714  0.31082691  1
  O  O80  1  0.41128639  0.79529881  0.30443622  1
  O  O81  1  0.91254766  0.79358940  0.30347774  1
  O  O82  1  0.48100877  0.16966514  0.30449854  1
  O  O83  1  0.98113406  0.16936575  0.30448876  1
  O  O84  1  0.10667709  0.16930560  0.81154618  1
  O  O85  1  0.60650130  0.17196963  0.81339239  1
  O  O86  1  0.48503448  0.80273870  0.80664037  1
  O  O87  1  0.98127158  0.79373444  0.80547656  1
  O  O88  1  0.41149501  0.02718020  0.80592415  1
  O  O89  1  0.91108899  0.02774751  0.80519892  1
  O  O90  1  0.39131869  0.95499207  0.69550208  1
  O  O91  1  0.89365419  0.95842064  0.69385062  1
  O  O92  1  0.08134870  0.19766812  0.69051514  1
  O  O93  1  0.57920101  0.19807637  0.69448772  1
  O  O94  1  0.01230357  0.82433437  0.69365468  1
  O  O95  1  0.51182815  0.82799363  0.69416259  1
  O  O96  1  0.39307173  0.82719115  0.19322232  1
  O  O97  1  0.89331114  0.82788263  0.19295918  1
  O  O98  1  0.01180317  0.19789635  0.19269965  1
  O  O99  1  0.51215334  0.20008473  0.19266885  1
  O  O100  1  0.07889299  0.95376836  0.19178086  1
  O  O101  1  0.58275291  0.96349091  0.18954918  1
  O  O102  1  0.43136244  0.36486774  0.64749349  1
  O  O103  1  0.93522193  0.36371333  0.63920173  1
  O  O104  1  0.24390556  0.12711507  0.63667228  1
  O  O105  1  0.75004388  0.13626475  0.63698971  1
  O  O106  1  0.31200035  0.50797821  0.63813354  1
  O  O107  1  0.82012754  0.51127189  0.63890356  1
  O  O108  1  0.43513357  0.50651038  0.13895371  1
  O  O109  1  0.93600882  0.50946853  0.14039262  1
  O  O110  1  0.31809664  0.12633497  0.13864036  1
  O  O111  1  0.81860401  0.12609281  0.13860926  1
  O  O112  1  0.24769162  0.36332527  0.13714163  1
  O  O113  1  0.74787410  0.36472349  0.13652302  1
  O  O114  1  0.23034617  0.30381696  0.02648990  1
  O  O115  1  0.73096423  0.30444698  0.02617118  1
  O  O116  1  0.41964456  0.53710749  0.02886322  1
  O  O117  1  0.91896514  0.53545097  0.02995796  1
  O  O118  1  0.34825603  0.15579427  0.02812322  1
  O  O119  1  0.84846312  0.15561589  0.02817559  1
  O  O120  1  0.22577494  0.15282358  0.52520394  1
  O  O121  1  0.73273607  0.16266911  0.52617071  1
  O  O122  1  0.34429745  0.53887797  0.52673865  1
  O  O123  1  0.85118262  0.54265975  0.52830506  1
  O  O124  1  0.41339824  0.29386817  0.52645186  1
  O  O125  1  0.91989467  0.30196956  0.52871049  1
  O  O126  1  0.27404138  0.70863870  0.97398391  1
  O  O127  1  0.77368358  0.70861172  0.97388589  1
  O  O128  1  0.08654478  0.45938411  0.97660540  1
  O  O129  1  0.58753330  0.46187007  0.97501397  1
  O  O130  1  0.15493620  0.84098225  0.97407160  1
  O  O131  1  0.65514408  0.84092344  0.97406912  1
  O  O132  1  0.27395289  0.83973450  0.47224379  1
  O  O133  1  0.77445098  0.83891205  0.47281965  1
  O  O134  1  0.15349035  0.46828357  0.47274598  1
  O  O135  1  0.65602229  0.47074258  0.47225342  1
  O  O136  1  0.08882732  0.70992411  0.47420872  1
  O  O137  1  0.58888985  0.71922871  0.47389733  1
  O  O138  1  0.06292530  0.62705434  0.35459478  1
  O  O139  1  0.56343941  0.62415698  0.35728678  1
  O  O140  1  0.25444063  0.86961871  0.36167829  1
  O  O141  1  0.75529525  0.87232220  0.36176337  1
  O  O142  1  0.18385156  0.49674580  0.36095478  1
  O  O143  1  0.68609191  0.49699497  0.36031798  1
  O  O144  1  0.06654519  0.50667590  0.85897733  1
  O  O145  1  0.56515067  0.50141398  0.85607127  1
  O  O146  1  0.18592824  0.87526826  0.86223176  1
  O  O147  1  0.68584216  0.87438243  0.86230245  1
  O  O148  1  0.25502653  0.63635681  0.86322015  1
  O  O149  1  0.75442601  0.63608233  0.86321415  1
  O  O150  1  0.00967594  0.84452354  0.41020207  1
  O  O151  1  0.50862576  0.84738457  0.40994573  1
  O  O152  1  0.40440171  0.98150992  0.40702647  1
  O  O153  1  0.90534200  0.98203047  0.40746403  1
  O  O154  1  0.08095283  0.20268073  0.41087631  1
  O  O155  1  0.58248093  0.20359567  0.41045384  1
  O  O156  1  0.00890201  0.17269176  0.90970748  1
  O  O157  1  0.50885313  0.17240787  0.90992311  1
  O  O158  1  0.08223153  0.96185788  0.91236698  1
  O  O159  1  0.58241335  0.96134682  0.91256575  1
  O  O160  1  0.40492068  0.82681560  0.90930049  1
  O  O161  1  0.90454580  0.82687467  0.90894617  1
  O  O162  1  0.48542201  0.14613291  0.59006535  1
  O  O163  1  0.98351004  0.16249594  0.58959524  1
  O  O164  1  0.09428981  0.01666374  0.58892483  1
  O  O165  1  0.60025231  0.02165610  0.58968624  1
  O  O166  1  0.41427049  0.80107998  0.59112777  1
  O  O167  1  0.91857225  0.80903654  0.59169138  1
  O  O168  1  0.48366682  0.80483033  0.08958773  1
  O  O169  1  0.98369560  0.80522675  0.08945074  1
  O  O170  1  0.41547967  0.02270864  0.09088798  1
  O  O171  1  0.91571732  0.02279696  0.09077506  1
  O  O172  1  0.09745275  0.17246582  0.08971789  1
  O  O173  1  0.59759198  0.17382365  0.08866025  1
  O  O174  1  0.34703678  0.16122598  0.74459793  1
  O  O175  1  0.85057537  0.16729109  0.74066286  1
  O  O176  1  0.24827191  0.30992044  0.73992992  1
  O  O177  1  0.74914977  0.31161555  0.74214973  1
  O  O178  1  0.42133749  0.53431789  0.74650565  1
  O  O179  1  0.92172452  0.52871436  0.74220466  1
  O  O180  1  0.35042248  0.53307373  0.24019839  1
  O  O181  1  0.85123112  0.53364953  0.23989392  1
  O  O182  1  0.42129530  0.31433817  0.24127938  1
  O  O183  1  0.92210817  0.31695077  0.24135495  1
  O  O184  1  0.24755281  0.18507196  0.24105713  1
  O  O185  1  0.74635380  0.18241297  0.24216709  1
  O  O186  1  0.31625679  0.49882301  0.92689453  1
  O  O187  1  0.81603393  0.49905012  0.92677338  1
  O  O188  1  0.41937379  0.35596940  0.92511009  1
  O  O189  1  0.91898603  0.35523615  0.92564496  1
  O  O190  1  0.24463476  0.14019899  0.92589685  1
  O  O191  1  0.74477133  0.13950829  0.92561028  1
  O  O192  1  0.31494506  0.13183170  0.42317995  1
  O  O193  1  0.81704949  0.13339676  0.42559137  1
  O  O194  1  0.24317655  0.34912547  0.42375340  1
  O  O195  1  0.74471271  0.34904887  0.42395871  1
  O  O196  1  0.41698204  0.48669462  0.42322284  1
  O  O197  1  0.91920858  0.48136144  0.42515390  1
  O  O198  1  0.18285076  0.50427623  0.07762023  1
  O  O199  1  0.68336281  0.50538996  0.07709078  1
  O  O200  1  0.06909300  0.64442315  0.07733785  1
  O  O201  1  0.56915009  0.64386882  0.07682399  1
  O  O202  1  0.25082726  0.85842502  0.07594966  1
  O  O203  1  0.75102578  0.85826231  0.07593512  1
  O  O204  1  0.18098580  0.85866667  0.57673074  1
  O  O205  1  0.68901806  0.86933021  0.57640187  1
  O  O206  1  0.24935556  0.64578337  0.57469298  1
  O  O207  1  0.75524435  0.64833631  0.57585608  1
  O  O208  1  0.06884057  0.49406132  0.57698696  1
  O  O209  1  0.57825121  0.51070328  0.57881246  1
  O  O210  1  0.15772140  0.82174803  0.25664801  1
  O  O211  1  0.65973848  0.82292966  0.25633284  1
  O  O212  1  0.26277425  0.68438406  0.25784252  1
  O  O213  1  0.76227725  0.68349816  0.25768006  1
  O  O214  1  0.08436961  0.46332581  0.25458835  1
  O  O215  1  0.58523908  0.46289839  0.25537442  1
  O  O216  1  0.15938622  0.49341380  0.75598136  1
  O  O217  1  0.65786475  0.49352898  0.75680588  1
  O  O218  1  0.08512095  0.70789143  0.75629209  1
  O  O219  1  0.58514084  0.70807635  0.75604426  1
  O  O220  1  0.26092373  0.83509708  0.76050662  1
  O  O221  1  0.76312335  0.84094682  0.75875443  1
