# generated using pymatgen
data_BiSbO4
_symmetry_space_group_name_H-M   'P 1'
_cell_length_a   4.91983925
_cell_length_b   5.49144798
_cell_length_c   6.49561198
_cell_angle_alpha   104.15499391
_cell_angle_beta   112.25347074
_cell_angle_gamma   89.99999483
_symmetry_Int_Tables_number   1
_chemical_formula_structural   BiSbO4
_chemical_formula_sum   'Bi2 Sb2 O8'
_cell_volume   156.64881274
_cell_formula_units_Z   2
loop_
 _symmetry_equiv_pos_site_id
 _symmetry_equiv_pos_as_xyz
  1  'x, y, z'
loop_
 _atom_site_type_symbol
 _atom_site_label
 _atom_site_symmetry_multiplicity
 _atom_site_fract_x
 _atom_site_fract_y
 _atom_site_fract_z
 _atom_site_occupancy
  Bi  Bi0  1  0.75848714  0.25000000  0.50000000  1
  Bi  Bi1  1  0.24151286  0.75000000  0.50000000  1
  Sb  Sb2  1  -0.00000000  0.00000000  -0.00000000  1
  Sb  Sb3  1  0.50000000  0.50000000  -0.00000000  1
  O  O4  1  0.81080192  0.53790753  0.30772523  1
  O  O5  1  0.00307568  0.96209247  0.69227477  1
  O  O6  1  0.18919808  0.46209247  0.69227477  1
  O  O7  1  0.99692432  0.03790753  0.30772523  1
  O  O8  1  0.35580893  0.82067700  0.12599627  1
  O  O9  1  0.72981266  0.67932300  0.87400373  1
  O  O10  1  0.64419107  0.17932300  0.87400373  1
  O  O11  1  0.27018734  0.32067700  0.12599627  1
