# generated using pymatgen
data_Na7Y2Zr2Si3(PO8)3
_symmetry_space_group_name_H-M   'P 1'
_cell_length_a   9.37876032
_cell_length_b   9.36455897
_cell_length_c   23.46056514
_cell_angle_alpha   90.03111836
_cell_angle_beta   90.02410857
_cell_angle_gamma   120.03378494
_symmetry_Int_Tables_number   1
_chemical_formula_structural   Na7Y2Zr2Si3(PO8)3
_chemical_formula_sum   'Na21 Y6 Zr6 Si9 P9 O72'
_cell_volume   1783.83102306
_cell_formula_units_Z   3
loop_
 _symmetry_equiv_pos_site_id
 _symmetry_equiv_pos_as_xyz
  1  'x, y, z'
loop_
 _atom_site_type_symbol
 _atom_site_label
 _atom_site_symmetry_multiplicity
 _atom_site_fract_x
 _atom_site_fract_y
 _atom_site_fract_z
 _atom_site_occupancy
  Na  Na0  1  0.63563515  0.00370640  0.25242595  1
  Na  Na1  1  0.36417400  0.36805435  0.24802090  1
  Na  Na2  1  0.00020008  0.62535774  0.25005068  1
  Na  Na3  1  0.63461313  0.63718026  0.74955065  1
  Na  Na4  1  0.99252597  0.36108354  0.74837510  1
  Na  Na5  1  0.37309861  0.00154513  0.74721129  1
  Na  Na6  1  0.03330474  0.69593284  0.58285232  1
  Na  Na7  1  0.66247122  0.97048791  0.58278398  1
  Na  Na8  1  0.66783385  0.69105430  0.08251756  1
  Na  Na9  1  0.03135478  0.33762499  0.08548615  1
  Na  Na10  1  0.96026445  0.66437803  0.91964871  1
  Na  Na11  1  0.69902869  0.02939315  0.91635694  1
  Na  Na12  1  0.34039949  0.30582292  0.91864451  1
  Na  Na13  1  0.96694285  0.30551664  0.41630659  1
  Na  Na14  1  0.33549243  0.02863298  0.41799576  1
  Na  Na15  1  0.00066646  0.99914023  0.50000410  1
  Na  Na16  1  0.00568336  0.99454935  0.00158304  1
  Na  Na17  1  0.66672557  0.33335384  0.83332205  1
  Na  Na18  1  0.67387754  0.33968068  0.33543451  1
  Na  Na19  1  0.32538138  0.66489942  0.16569859  1
  Na  Na20  1  0.33436217  0.66352168  0.66414326  1
  Y  Y21  1  0.99447759  0.99830196  0.85081101  1
  Y  Y22  1  0.66644991  0.32918820  0.67923670  1
  Y  Y23  1  0.66928980  0.33521928  0.18105336  1
  Y  Y24  1  0.66339986  0.33663044  0.98716916  1
  Y  Y25  1  0.33059208  0.66488843  0.31922109  1
  Y  Y26  1  0.33869712  0.66834511  0.81570848  1
  Zr  Zr27  1  0.98883201  0.99439206  0.35442776  1
  Zr  Zr28  1  0.00284497  0.00812332  0.64586744  1
  Zr  Zr29  1  0.01078568  0.00500380  0.14732938  1
  Zr  Zr30  1  0.66725799  0.33212440  0.48367409  1
  Zr  Zr31  1  0.33530276  0.66949900  0.01932589  1
  Zr  Zr32  1  0.33239565  0.66801055  0.51619886  1
  Si  Si33  1  0.99972314  0.29049998  0.25033930  1
  Si  Si34  1  0.70536214  0.00191178  0.74870749  1
  Si  Si35  1  0.96696647  0.33604063  0.58261859  1
  Si  Si36  1  0.36751996  0.03472127  0.58216679  1
  Si  Si37  1  0.96987852  0.63654842  0.08343956  1
  Si  Si38  1  0.36504422  0.33347491  0.08326780  1
  Si  Si39  1  0.62878338  0.66470668  0.91750982  1
  Si  Si40  1  0.62904593  0.96370196  0.41736550  1
  Si  Si41  1  0.03385069  0.66581548  0.41709374  1
  P  P42  1  0.28786947  0.00014615  0.25149043  1
  P  P43  1  0.71219583  0.71240692  0.24915509  1
  P  P44  1  0.29218166  0.29179820  0.74976306  1
  P  P45  1  0.99860433  0.70700856  0.74861052  1
  P  P46  1  0.66527533  0.62913953  0.58352413  1
  P  P47  1  0.66702511  0.03170160  0.08377209  1
  P  P48  1  0.04061857  0.37438490  0.91750515  1
  P  P49  1  0.33464603  0.95989708  0.91697353  1
  P  P50  1  0.33511977  0.37071317  0.41657455  1
  O  O51  1  0.20282667  0.02182517  0.30509428  1
  O  O52  1  0.82425802  0.80065293  0.30197827  1
  O  O53  1  0.97881825  0.17267845  0.30642270  1
  O  O54  1  0.21925406  0.18987668  0.80469053  1
  O  O55  1  0.97656236  0.78605592  0.80351521  1
  O  O56  1  0.81573919  0.03163548  0.80622387  1
  O  O57  1  0.80391800  0.97662724  0.69374382  1
  O  O58  1  0.17705087  0.19703331  0.69821336  1
  O  O59  1  0.02327628  0.81953125  0.69599689  1
  O  O60  1  0.79632862  0.81838137  0.19550273  1
  O  O61  1  0.02055356  0.19501203  0.19431955  1
  O  O62  1  0.17665561  0.97629920  0.19866934  1
  O  O63  1  0.89447721  0.37520519  0.63997271  1
  O  O64  1  0.47867472  0.10676875  0.63958152  1
  O  O65  1  0.63818334  0.53206011  0.63919447  1
  O  O66  1  0.89255726  0.51840561  0.13987601  1
  O  O67  1  0.63786338  0.10879024  0.13741447  1
  O  O68  1  0.48026028  0.37337433  0.14008642  1
  O  O69  1  0.44035694  0.30064494  0.02576087  1
  O  O70  1  0.85470921  0.55860091  0.02675362  1
  O  O71  1  0.70200122  0.14052694  0.03030000  1
  O  O72  1  0.46022313  0.15371077  0.52675946  1
  O  O73  1  0.69545406  0.53998825  0.53295188  1
  O  O74  1  0.84089665  0.30301925  0.52807850  1
  O  O75  1  0.53168449  0.69074106  0.97235536  1
  O  O76  1  0.15212740  0.46565202  0.97004839  1
  O  O77  1  0.30975535  0.84392278  0.96811023  1
  O  O78  1  0.53837328  0.84581117  0.47293686  1
  O  O79  1  0.30371557  0.45864414  0.46713142  1
  O  O80  1  0.15883919  0.69653205  0.47188165  1
  O  O81  1  0.10775219  0.62617272  0.35990690  1
  O  O82  1  0.51953691  0.89131413  0.35953154  1
  O  O83  1  0.36295510  0.46960849  0.36109027  1
  O  O84  1  0.11537368  0.47795779  0.86291846  1
  O  O85  1  0.35746964  0.88303755  0.86166588  1
  O  O86  1  0.51780478  0.63531708  0.86017699  1
  O  O87  1  0.03165601  0.84114901  0.41022115  1
  O  O88  1  0.81905112  0.99271104  0.41141602  1
  O  O89  1  0.17485631  0.19509921  0.41072221  1
  O  O90  1  0.03191851  0.20367344  0.91481657  1
  O  O91  1  0.17867542  0.97828368  0.91424315  1
  O  O92  1  0.81193607  0.83384787  0.91632764  1
  O  O93  1  0.97084563  0.16079323  0.58929302  1
  O  O94  1  0.17776956  0.00327936  0.58953932  1
  O  O95  1  0.82722592  0.80401256  0.58883020  1
  O  O96  1  0.97546164  0.81456693  0.09251576  1
  O  O97  1  0.82290029  0.01203389  0.09166652  1
  O  O98  1  0.17495771  0.17523737  0.09070839  1
  O  O99  1  0.68646917  0.16767772  0.74570848  1
  O  O100  1  0.46751430  0.31585764  0.74346366  1
  O  O101  1  0.84054091  0.53454048  0.74429304  1
  O  O102  1  0.69468273  0.53802135  0.24669095  1
  O  O103  1  0.83070654  0.30388230  0.24842728  1
  O  O104  1  0.46035231  0.15772072  0.24615146  1
  O  O105  1  0.64775337  0.49898503  0.92037135  1
  O  O106  1  0.86452451  0.34941677  0.92324984  1
  O  O107  1  0.49307221  0.13142531  0.92241289  1
  O  O108  1  0.64826690  0.15004251  0.42575278  1
  O  O109  1  0.48386234  0.34313433  0.42565014  1
  O  O110  1  0.85279361  0.49938918  0.42735139  1
  O  O111  1  0.34658082  0.50145332  0.07504980  1
  O  O112  1  0.15036267  0.64833741  0.07434134  1
  O  O113  1  0.51491848  0.85507948  0.07604149  1
  O  O114  1  0.35164031  0.84952994  0.57387177  1
  O  O115  1  0.51726944  0.65778931  0.57418812  1
  O  O116  1  0.14815437  0.50113122  0.57251792  1
  O  O117  1  0.30568269  0.84350124  0.25366514  1
  O  O118  1  0.53976589  0.69711253  0.25414993  1
  O  O119  1  0.16858086  0.47332848  0.25182145  1
  O  O120  1  0.30052134  0.46220611  0.75179077  1
  O  O121  1  0.15460704  0.68840491  0.75216574  1
  O  O122  1  0.52239761  0.83263666  0.75007288  1
