# generated using pymatgen
data_Na14Hf4Ti4Si11SO48
_symmetry_space_group_name_H-M   'P 1'
_cell_length_a   18.16317457
_cell_length_b   9.08188441
_cell_length_c   22.30351450
_cell_angle_alpha   89.95237789
_cell_angle_beta   90.04918759
_cell_angle_gamma   119.99654838
_symmetry_Int_Tables_number   1
_chemical_formula_structural   Na14Hf4Ti4Si11SO48
_chemical_formula_sum   'Na42 Hf12 Ti12 Si33 S3 O144'
_cell_volume   3186.29923317
_cell_formula_units_Z   3
loop_
 _symmetry_equiv_pos_site_id
 _symmetry_equiv_pos_as_xyz
  1  'x, y, z'
loop_
 _atom_site_type_symbol
 _atom_site_label
 _atom_site_symmetry_multiplicity
 _atom_site_fract_x
 _atom_site_fract_y
 _atom_site_fract_z
 _atom_site_occupancy
  Na  Na0  1  0.31766189  0.00034747  0.25003572  1
  Na  Na1  1  0.81698925  0.99972330  0.24992631  1
  Na  Na2  1  0.31744301  0.63050143  0.74974854  1
  Na  Na3  1  0.81380986  0.62816436  0.74929678  1
  Na  Na4  1  0.49721372  0.36679821  0.75035268  1
  Na  Na5  1  0.68469618  0.00134139  0.74928614  1
  Na  Na6  1  0.15072163  0.33541312  0.58270491  1
  Na  Na7  1  0.64630665  0.32703455  0.58572113  1
  Na  Na8  1  0.02071445  0.69975530  0.58295721  1
  Na  Na9  1  0.51551228  0.70422040  0.58415095  1
  Na  Na10  1  0.33221173  0.95467587  0.58321813  1
  Na  Na11  1  0.83419918  0.97514417  0.58428972  1
  Na  Na12  1  0.14972948  0.96772012  0.08361334  1
  Na  Na13  1  0.64735947  0.96610329  0.08405383  1
  Na  Na14  1  0.33224796  0.69631011  0.08324087  1
  Na  Na15  1  0.83290915  0.69424582  0.08464186  1
  Na  Na16  1  0.01754078  0.33609062  0.08361243  1
  Na  Na17  1  0.51557759  0.33671582  0.08346923  1
  Na  Na18  1  0.48080046  0.66519614  0.91621227  1
  Na  Na19  1  0.98772399  0.66712786  0.91590963  1
  Na  Na20  1  0.34969481  0.03363964  0.91651197  1
  Na  Na21  1  0.84898950  0.03372924  0.91550877  1
  Na  Na22  1  0.16836526  0.30310528  0.91741698  1
  Na  Na23  1  0.66237039  0.29352435  0.91453711  1
  Na  Na24  1  0.48111245  0.30305584  0.41739037  1
  Na  Na25  1  0.98642823  0.30670996  0.41612551  1
  Na  Na26  1  0.16839633  0.03991421  0.41776253  1
  Na  Na27  1  0.66334390  0.02880721  0.41571214  1
  Na  Na28  1  0.34736644  0.65947220  0.41782647  1
  Na  Na29  1  0.84925595  0.66362520  0.41580403  1
  Na  Na30  1  0.00300291  0.00389368  0.49996590  1
  Na  Na31  1  0.50133689  0.99925493  0.50245790  1
  Na  Na32  1  0.00348113  0.00339325  0.00002182  1
  Na  Na33  1  0.50081381  0.99885094  0.99692223  1
  Na  Na34  1  0.33009552  0.32187491  0.83342005  1
  Na  Na35  1  0.84005410  0.33488658  0.83235172  1
  Na  Na36  1  0.33847845  0.35244661  0.33509127  1
  Na  Na37  1  0.83861007  0.35265651  0.33289971  1
  Na  Na38  1  0.16240136  0.64709978  0.16743656  1
  Na  Na39  1  0.66194344  0.64691497  0.16751345  1
  Na  Na40  1  0.16251471  0.67600611  0.66560816  1
  Na  Na41  1  0.66672610  0.66732453  0.66584415  1
  Hf  Hf42  1  0.83842990  0.33663188  0.68904631  1
  Hf  Hf43  1  0.33829615  0.34661172  0.18878529  1
  Hf  Hf44  1  0.83813813  0.34618251  0.18876004  1
  Hf  Hf45  1  0.83303663  0.33417969  0.98139892  1
  Hf  Hf46  1  0.83435188  0.33208523  0.48159756  1
  Hf  Hf47  1  0.16660113  0.66660394  0.01794785  1
  Hf  Hf48  1  0.66641658  0.66628718  0.01849141  1
  Hf  Hf49  1  0.66477235  0.66521192  0.51879981  1
  Hf  Hf50  1  0.16631863  0.65417227  0.31257935  1
  Hf  Hf51  1  0.66363720  0.65279826  0.31208983  1
  Hf  Hf52  1  0.16652596  0.67777205  0.81269685  1
  Hf  Hf53  1  0.66496895  0.66505621  0.81218050  1
  Ti  Ti54  1  0.99363319  0.99768130  0.35548751  1
  Ti  Ti55  1  0.48977035  0.99519505  0.35644245  1
  Ti  Ti56  1  0.99466583  0.99002668  0.85491233  1
  Ti  Ti57  1  0.49677566  0.99766223  0.85096388  1
  Ti  Ti58  1  0.99648281  0.98814148  0.64484442  1
  Ti  Ti59  1  0.49818378  0.99734784  0.64759060  1
  Ti  Ti60  1  0.99470697  0.00341813  0.14522468  1
  Ti  Ti61  1  0.49240929  0.00366283  0.14385778  1
  Ti  Ti62  1  0.33587859  0.32736055  0.68316171  1
  Ti  Ti63  1  0.33302975  0.33603156  0.98135535  1
  Ti  Ti64  1  0.33234507  0.33318846  0.48218853  1
  Ti  Ti65  1  0.16667910  0.66454894  0.51869484  1
  Si  Si66  1  0.35662531  0.71267010  0.25002642  1
  Si  Si67  1  0.85678839  0.71298758  0.25074474  1
  Si  Si68  1  0.00125679  0.28804041  0.25002236  1
  Si  Si69  1  0.50009624  0.28668692  0.25010359  1
  Si  Si70  1  0.64205868  0.28345987  0.74947198  1
  Si  Si71  1  0.00315143  0.71692105  0.74968402  1
  Si  Si72  1  0.49611051  0.70817927  0.74871735  1
  Si  Si73  1  0.35473423  0.00158727  0.74808764  1
  Si  Si74  1  0.85855671  0.00239730  0.75010379  1
  Si  Si75  1  0.47646009  0.32858815  0.58278766  1
  Si  Si76  1  0.98396683  0.33540168  0.58309977  1
  Si  Si77  1  0.18966916  0.04400824  0.58318556  1
  Si  Si78  1  0.68471424  0.03990474  0.58546034  1
  Si  Si79  1  0.33240934  0.61980434  0.58464734  1
  Si  Si80  1  0.83351705  0.62774555  0.58500848  1
  Si  Si81  1  0.47845957  0.62781726  0.08226475  1
  Si  Si82  1  0.98187849  0.63256815  0.08373857  1
  Si  Si83  1  0.33209473  0.04598725  0.08451534  1
  Si  Si84  1  0.83258732  0.03997194  0.08628511  1
  Si  Si85  1  0.18782188  0.33041751  0.08341188  1
  Si  Si86  1  0.68479718  0.32867133  0.08473049  1
  Si  Si87  1  0.31429819  0.66524462  0.91434990  1
  Si  Si88  1  0.81459209  0.66684016  0.91533750  1
  Si  Si89  1  0.02027192  0.37010698  0.91535669  1
  Si  Si90  1  0.51646199  0.36708603  0.91626425  1
  Si  Si91  1  0.16773513  0.96751108  0.91754651  1
  Si  Si92  1  0.66452468  0.96219640  0.91485650  1
  Si  Si93  1  0.30929839  0.95811146  0.41673515  1
  Si  Si94  1  0.81239822  0.95922380  0.41397668  1
  Si  Si95  1  0.16740754  0.37323865  0.41881551  1
  Si  Si96  1  0.66468907  0.36662303  0.41692947  1
  Si  Si97  1  0.02401641  0.67193340  0.41723290  1
  Si  Si98  1  0.51750953  0.66594735  0.41630378  1
  S  S99  1  0.14316406  0.99989604  0.25041010  1
  S  S100  1  0.64258461  0.99950643  0.25000838  1
  S  S101  1  0.14530719  0.28744088  0.74945975  1
  O  O102  1  0.10162953  0.01357387  0.30564971  1
  O  O103  1  0.60120877  0.01275630  0.30523925  1
  O  O104  1  0.41212875  0.81162223  0.31044039  1
  O  O105  1  0.91403755  0.81152775  0.31111916  1
  O  O106  1  0.49158798  0.16811990  0.30912317  1
  O  O107  1  0.99421926  0.16940331  0.30895439  1
  O  O108  1  0.10309835  0.19052918  0.80484377  1
  O  O109  1  0.59468807  0.16628546  0.80867063  1
  O  O110  1  0.48370326  0.80248250  0.80768472  1
  O  O111  1  0.99453267  0.81808971  0.80860588  1
  O  O112  1  0.41450673  0.02994643  0.80781211  1
  O  O113  1  0.91371409  0.01527205  0.81038023  1
  O  O114  1  0.40325006  0.97776807  0.68929152  1
  O  O115  1  0.90822778  0.98374085  0.69101128  1
  O  O116  1  0.09527577  0.20363772  0.69446165  1
  O  O117  1  0.58338737  0.19117906  0.68971297  1
  O  O118  1  0.01041993  0.82998881  0.68929891  1
  O  O119  1  0.51014421  0.82914986  0.68981752  1
  O  O120  1  0.40721958  0.83024647  0.19067002  1
  O  O121  1  0.90837933  0.83210971  0.19197478  1
  O  O122  1  0.00892800  0.19083767  0.18955448  1
  O  O123  1  0.50660356  0.18770477  0.18966285  1
  O  O124  1  0.09507311  0.98686689  0.19517816  1
  O  O125  1  0.59468025  0.98610460  0.19457542  1
  O  O126  1  0.43247058  0.36367994  0.64216889  1
  O  O127  1  0.93669905  0.37323390  0.63798720  1
  O  O128  1  0.25470627  0.14390306  0.63951338  1
  O  O129  1  0.74643763  0.12921805  0.64319641  1
  O  O130  1  0.31757628  0.49763116  0.64345916  1
  O  O131  1  0.81742683  0.50907759  0.64337595  1
  O  O132  1  0.43634037  0.50047774  0.13937367  1
  O  O133  1  0.93536081  0.50055930  0.13904736  1
  O  O134  1  0.31572048  0.12592096  0.14461688  1
  O  O135  1  0.81696083  0.12688536  0.14473304  1
  O  O136  1  0.25086308  0.36601988  0.13987922  1
  O  O137  1  0.75068348  0.36486276  0.13949360  1
  O  O138  1  0.23332237  0.30257517  0.02350370  1
  O  O139  1  0.72589644  0.29621231  0.02393138  1
  O  O140  1  0.41740167  0.53650027  0.02334736  1
  O  O141  1  0.92260538  0.55196457  0.02361635  1
  O  O142  1  0.34812910  0.17008744  0.02638114  1
  O  O143  1  0.85041543  0.15949420  0.02695855  1
  O  O144  1  0.23280517  0.16481047  0.52376498  1
  O  O145  1  0.72975195  0.15800094  0.52610262  1
  O  O146  1  0.34763770  0.52706862  0.52594088  1
  O  O147  1  0.85093460  0.54340436  0.52586299  1
  O  O148  1  0.41686868  0.30513206  0.52423660  1
  O  O149  1  0.92343486  0.29174352  0.52332441  1
  O  O150  1  0.27088436  0.70146810  0.97302771  1
  O  O151  1  0.77277185  0.70184699  0.97447778  1
  O  O152  1  0.07707346  0.45082145  0.97643810  1
  O  O153  1  0.57909959  0.45562953  0.97417268  1
  O  O154  1  0.14561183  0.84385271  0.97639803  1
  O  O155  1  0.65062964  0.84317313  0.97386166  1
  O  O156  1  0.26410031  0.83028823  0.47453548  1
  O  O157  1  0.76975231  0.83937613  0.47318230  1
  O  O158  1  0.14985754  0.46517212  0.47678925  1
  O  O159  1  0.64605328  0.44836190  0.47691574  1
  O  O160  1  0.08343623  0.69890717  0.47739765  1
  O  O161  1  0.57732036  0.70491891  0.47638385  1
  O  O162  1  0.06864492  0.63328607  0.36121469  1
  O  O163  1  0.56551242  0.62981804  0.36142102  1
  O  O164  1  0.25237773  0.87705919  0.35670397  1
  O  O165  1  0.75265533  0.87264945  0.35574226  1
  O  O166  1  0.18902791  0.50119202  0.36171818  1
  O  O167  1  0.68479790  0.49916904  0.36165492  1
  O  O168  1  0.06798035  0.50328452  0.86097137  1
  O  O169  1  0.56122437  0.49022174  0.85773702  1
  O  O170  1  0.18808545  0.87473571  0.86235501  1
  O  O171  1  0.68142252  0.87339154  0.85644691  1
  O  O172  1  0.25338521  0.62876185  0.85584972  1
  O  O173  1  0.75389699  0.63588089  0.85729563  1
  O  O174  1  0.01617509  0.84429799  0.41105590  1
  O  O175  1  0.50885007  0.83683352  0.40842058  1
  O  O176  1  0.40525466  0.97669971  0.41271344  1
  O  O177  1  0.90841759  0.97851820  0.41038621  1
  O  O178  1  0.08231694  0.18528739  0.41144936  1
  O  O179  1  0.58095634  0.17752274  0.40851434  1
  O  O180  1  0.01218805  0.18276931  0.90784831  1
  O  O181  1  0.50703333  0.17855861  0.91035859  1
  O  O182  1  0.08396598  0.98892225  0.90799006  1
  O  O183  1  0.57927783  0.97893269  0.90975169  1
  O  O184  1  0.40834469  0.83642548  0.90901120  1
  O  O185  1  0.91024904  0.83751401  0.91058029  1
  O  O186  1  0.48458112  0.15769961  0.58699896  1
  O  O187  1  0.99598614  0.16893174  0.59227154  1
  O  O188  1  0.09556481  0.02701420  0.59055403  1
  O  O189  1  0.59036078  0.02212581  0.58916784  1
  O  O190  1  0.41764674  0.80924794  0.58860533  1
  O  O191  1  0.91969328  0.82007056  0.58905010  1
  O  O192  1  0.48760447  0.81617190  0.08897816  1
  O  O193  1  0.99259231  0.82138799  0.09245373  1
  O  O194  1  0.41862691  0.02699047  0.08785977  1
  O  O195  1  0.91875486  0.02019232  0.08987787  1
  O  O196  1  0.09345294  0.15915404  0.08952180  1
  O  O197  1  0.59105428  0.15696771  0.09203891  1
  O  O198  1  0.34827458  0.17556566  0.74295221  1
  O  O199  1  0.84479328  0.16582668  0.74852526  1
  O  O200  1  0.23150761  0.30716894  0.74716524  1
  O  O201  1  0.73654093  0.30358223  0.74743907  1
  O  O202  1  0.41090240  0.51868548  0.74481279  1
  O  O203  1  0.91352903  0.53562396  0.74855635  1
  O  O204  1  0.34578276  0.52423885  0.24915179  1
  O  O205  1  0.84612213  0.52458034  0.24916415  1
  O  O206  1  0.41041508  0.28944978  0.24960778  1
  O  O207  1  0.91118085  0.28960320  0.24968615  1
  O  O208  1  0.23033893  0.15281807  0.24883399  1
  O  O209  1  0.73014649  0.15230863  0.24834315  1
  O  O210  1  0.32380431  0.49570461  0.92235569  1
  O  O211  1  0.82508213  0.49970307  0.91949248  1
  O  O212  1  0.42311859  0.35159005  0.92289403  1
  O  O213  1  0.92535737  0.34812571  0.92058154  1
  O  O214  1  0.25284678  0.15456828  0.92349432  1
  O  O215  1  0.75019692  0.14931246  0.92021110  1
  O  O216  1  0.32195391  0.14838778  0.42433038  1
  O  O217  1  0.82505397  0.14959823  0.41962516  1
  O  O218  1  0.25169893  0.35328757  0.42517120  1
  O  O219  1  0.75023815  0.34997001  0.42126168  1
  O  O220  1  0.42298278  0.49647540  0.42254223  1
  O  O221  1  0.92853277  0.50499242  0.42238881  1
  O  O222  1  0.17720816  0.49910320  0.07836472  1
  O  O223  1  0.67405307  0.49694872  0.07989926  1
  O  O224  1  0.07545455  0.64907041  0.07995897  1
  O  O225  1  0.57314858  0.64922065  0.07734093  1
  O  O226  1  0.25065990  0.85454566  0.07781883  1
  O  O227  1  0.74979986  0.84975745  0.08045411  1
  O  O228  1  0.18118103  0.85603188  0.57841363  1
  O  O229  1  0.67555977  0.85118646  0.58024637  1
  O  O230  1  0.24758022  0.63939426  0.57800842  1
  O  O231  1  0.74981239  0.64997411  0.57986464  1
  O  O232  1  0.07732681  0.50798781  0.57717515  1
  O  O233  1  0.57055905  0.49918884  0.58007102  1
  O  O234  1  0.15359249  0.84667980  0.25214412  1
  O  O235  1  0.65345780  0.84635588  0.25181069  1
  O  O236  1  0.26576373  0.71116339  0.25098236  1
  O  O237  1  0.76570380  0.71021985  0.25152542  1
  O  O238  1  0.08449459  0.47651690  0.25222610  1
  O  O239  1  0.58365319  0.47526223  0.25116413  1
  O  O240  1  0.15524602  0.46131500  0.75134112  1
  O  O241  1  0.64988052  0.47161280  0.75200787  1
  O  O242  1  0.08627447  0.69486225  0.75159870  1
  O  O243  1  0.58243509  0.69237422  0.75146325  1
  O  O244  1  0.26465758  0.82277996  0.75143590  1
  O  O245  1  0.76428609  0.82767607  0.75105146  1
