# generated using pymatgen
data_Na3Zr2SiGe2P5O24
_symmetry_space_group_name_H-M   'P 1'
_cell_length_a   8.72732863
_cell_length_b   8.70813713
_cell_length_c   22.43205896
_cell_angle_alpha   90.03124684
_cell_angle_beta   89.84514172
_cell_angle_gamma   119.83173812
_symmetry_Int_Tables_number   1
_chemical_formula_structural   Na3Zr2SiGe2P5O24
_chemical_formula_sum   'Na9 Zr6 Si3 Ge6 P15 O72'
_cell_volume   1478.89876995
_cell_formula_units_Z   3
loop_
 _symmetry_equiv_pos_site_id
 _symmetry_equiv_pos_as_xyz
  1  'x, y, z'
loop_
 _atom_site_type_symbol
 _atom_site_label
 _atom_site_symmetry_multiplicity
 _atom_site_fract_x
 _atom_site_fract_y
 _atom_site_fract_z
 _atom_site_occupancy
  Na  Na0  1  0.37082715  0.00116377  0.74798828  1
  Na  Na1  1  0.66484819  0.96487295  0.58642670  1
  Na  Na2  1  0.66858507  0.70237908  0.08172056  1
  Na  Na3  1  0.01189741  0.00115688  0.50159540  1
  Na  Na4  1  0.00870300  0.00515038  0.99597916  1
  Na  Na5  1  0.67667601  0.34147728  0.83400559  1
  Na  Na6  1  0.66686042  0.33356143  0.33369496  1
  Na  Na7  1  0.32033224  0.66530004  0.16762822  1
  Na  Na8  1  0.32550611  0.65249059  0.66732623  1
  Zr  Zr9  1  0.00044883  0.00023530  0.35206833  1
  Zr  Zr10  1  0.00713206  0.00284416  0.14378503  1
  Zr  Zr11  1  0.32150795  0.66567591  0.01863724  1
  Zr  Zr12  1  0.32729154  0.66516609  0.52345492  1
  Zr  Zr13  1  0.33269059  0.66608521  0.31533380  1
  Zr  Zr14  1  0.33861696  0.66487674  0.81334104  1
  Si  Si15  1  0.72722238  0.01074438  0.74694929  1
  Si  Si16  1  0.37700400  0.05958627  0.58676240  1
  Si  Si17  1  0.94336908  0.60515298  0.08329552  1
  Ge  Ge18  1  0.99458307  0.00008987  0.85060444  1
  Ge  Ge19  1  0.00390675  0.99870143  0.64696345  1
  Ge  Ge20  1  0.67118500  0.33237692  0.68705752  1
  Ge  Ge21  1  0.67098256  0.33395758  0.18566107  1
  Ge  Ge22  1  0.66939599  0.33586295  0.97992330  1
  Ge  Ge23  1  0.65938873  0.33083969  0.48347074  1
  P  P24  1  0.30729380  0.01194698  0.24752460  1
  P  P25  1  0.70484602  0.69502340  0.24675282  1
  P  P26  1  0.98898070  0.29438680  0.24778435  1
  P  P27  1  0.28282904  0.27898921  0.74780933  1
  P  P28  1  0.98839360  0.71234324  0.74857429  1
  P  P29  1  0.94467951  0.32804664  0.58576165  1
  P  P30  1  0.67618487  0.61551101  0.58607063  1
  P  P31  1  0.66506640  0.05770310  0.08265263  1
  P  P32  1  0.39208614  0.33216957  0.08183385  1
  P  P33  1  0.63965574  0.66703572  0.91792394  1
  P  P34  1  0.02831433  0.36072144  0.91570605  1
  P  P35  1  0.33295306  0.97437026  0.91471937  1
  P  P36  1  0.62802031  0.97207812  0.42043676  1
  P  P37  1  0.34456789  0.37253816  0.41949502  1
  P  P38  1  0.02514208  0.65341502  0.41976406  1
  O  O39  1  0.22075783  0.03923739  0.30334915  1
  O  O40  1  0.82119991  0.78512295  0.30168674  1
  O  O41  1  0.96483910  0.18178060  0.30373916  1
  O  O42  1  0.20537966  0.15981367  0.80424865  1
  O  O43  1  0.96114835  0.79534820  0.80587129  1
  O  O44  1  0.84318110  0.03878733  0.80689711  1
  O  O45  1  0.80704792  0.97113928  0.68623896  1
  O  O46  1  0.16867437  0.19708111  0.69207495  1
  O  O47  1  0.03576816  0.83496554  0.69320628  1
  O  O48  1  0.78645332  0.80829590  0.19061336  1
  O  O49  1  0.02135445  0.20959979  0.19319540  1
  O  O50  1  0.18895319  0.97822378  0.19319357  1
  O  O51  1  0.86629916  0.36460715  0.64200406  1
  O  O52  1  0.50446514  0.13845373  0.64576771  1
  O  O53  1  0.64227159  0.50062624  0.64203920  1
  O  O54  1  0.85801552  0.49237138  0.14371967  1
  O  O55  1  0.63213470  0.13384132  0.14025946  1
  O  O56  1  0.50319804  0.36469881  0.13893806  1
  O  O57  1  0.47051613  0.30112932  0.02457356  1
  O  O58  1  0.82140197  0.52427405  0.02392772  1
  O  O59  1  0.69186169  0.16572669  0.02545000  1
  O  O60  1  0.46684656  0.17532081  0.52651127  1
  O  O61  1  0.70687206  0.53663760  0.52834762  1
  O  O62  1  0.82828374  0.29299642  0.52944253  1
  O  O63  1  0.55890382  0.69951640  0.97431513  1
  O  O64  1  0.14583504  0.44651438  0.97088271  1
  O  O65  1  0.29853528  0.85220197  0.96909422  1
  O  O66  1  0.54623664  0.85772195  0.47642455  1
  O  O67  1  0.31221262  0.45862535  0.47380583  1
  O  O68  1  0.14570858  0.68816126  0.47373579  1
  O  O69  1  0.11149301  0.62632655  0.36373297  1
  O  O70  1  0.51222175  0.88309871  0.36530303  1
  O  O71  1  0.36995208  0.48483362  0.36330638  1
  O  O72  1  0.11542641  0.48130831  0.86150479  1
  O  O73  1  0.36654588  0.89099291  0.85879674  1
  O  O74  1  0.51767211  0.63703418  0.86389391  1
  O  O75  1  0.00759184  0.81949788  0.41261880  1
  O  O76  1  0.81101240  0.98917945  0.41260989  1
  O  O77  1  0.18035820  0.18827022  0.41255923  1
  O  O78  1  0.01647809  0.17797290  0.90814562  1
  O  O79  1  0.16375110  0.98832917  0.90642048  1
  O  O80  1  0.82328671  0.83400034  0.90815143  1
  O  O81  1  0.96012360  0.15737272  0.59029676  1
  O  O82  1  0.17759952  0.03273688  0.59297861  1
  O  O83  1  0.83940622  0.80662401  0.59073137  1
  O  O84  1  0.96186739  0.80201501  0.08604170  1
  O  O85  1  0.82887106  0.03399657  0.08684740  1
  O  O86  1  0.20580727  0.17224359  0.08596128  1
  O  O87  1  0.69710861  0.18481760  0.74250066  1
  O  O88  1  0.47136417  0.30081552  0.74239723  1
  O  O89  1  0.82166302  0.52781740  0.74128527  1
  O  O90  1  0.68620050  0.50990607  0.24174971  1
  O  O91  1  0.81863240  0.30557487  0.24270514  1
  O  O92  1  0.48910244  0.17961369  0.24007145  1
  O  O93  1  0.65162641  0.49552001  0.92292682  1
  O  O94  1  0.84335351  0.34229066  0.92411304  1
  O  O95  1  0.50120824  0.15634721  0.92432663  1
  O  O96  1  0.64443102  0.15604421  0.42675060  1
  O  O97  1  0.51468973  0.36110505  0.42554893  1
  O  O98  1  0.84394528  0.48581884  0.42818196  1
  O  O99  1  0.37753480  0.50206021  0.07703099  1
  O  O100  1  0.14081080  0.63163117  0.07987904  1
  O  O101  1  0.50548652  0.86716085  0.07766130  1
  O  O102  1  0.36380652  0.86445397  0.58143646  1
  O  O103  1  0.51277748  0.64114745  0.58081716  1
  O  O104  1  0.13016816  0.48903723  0.58079122  1
  O  O105  1  0.32569581  0.84643250  0.25448548  1
  O  O106  1  0.52176323  0.67829717  0.25436905  1
  O  O107  1  0.15327183  0.47887800  0.25452575  1
  O  O108  1  0.30140914  0.46290402  0.75436649  1
  O  O109  1  0.15612822  0.69464744  0.75535861  1
  O  O110  1  0.52466132  0.83966491  0.75345042  1
