# generated using pymatgen
data_P4N3Cl11
_symmetry_space_group_name_H-M   'P 1'
_cell_length_a   7.88512712
_cell_length_b   7.88512787
_cell_length_c   7.88512730
_cell_angle_alpha   86.22372669
_cell_angle_beta   86.22371970
_cell_angle_gamma   86.22372550
_symmetry_Int_Tables_number   1
_chemical_formula_structural   P4N3Cl11
_chemical_formula_sum   'P4 N3 Cl11'
_cell_volume   487.20030699
_cell_formula_units_Z   1
loop_
 _symmetry_equiv_pos_site_id
 _symmetry_equiv_pos_as_xyz
  1  'x, y, z'
loop_
 _atom_site_type_symbol
 _atom_site_label
 _atom_site_symmetry_multiplicity
 _atom_site_fract_x
 _atom_site_fract_y
 _atom_site_fract_z
 _atom_site_occupancy
  P  P0  1  0.37719084  0.37719084  0.37719084  1
  P  P1  1  0.50780420  0.58532791  0.08567055  1
  P  P2  1  0.08567055  0.50780420  0.58532791  1
  P  P3  1  0.58532791  0.08567055  0.50780420  1
  N  N4  1  0.47152301  0.25223751  0.51229284  1
  N  N5  1  0.51229284  0.47152301  0.25223751  1
  N  N6  1  0.25223751  0.51229284  0.47152301  1
  Cl  Cl7  1  0.23760097  0.23760097  0.23760097  1
  Cl  Cl8  1  0.05391529  0.71232542  0.71820115  1
  Cl  Cl9  1  0.71820115  0.05391529  0.71232542  1
  Cl  Cl10  1  0.71232542  0.71820115  0.05391529  1
  Cl  Cl11  1  0.06532539  0.30952850  0.75218411  1
  Cl  Cl12  1  0.75218411  0.06532539  0.30952850  1
  Cl  Cl13  1  0.30952850  0.75218411  0.06532539  1
  Cl  Cl14  1  0.87758283  0.51035044  0.45315758  1
  Cl  Cl15  1  0.45315758  0.87758283  0.51035044  1
  Cl  Cl16  1  0.51035044  0.45315758  0.87758283  1
  Cl  Cl17  1  0.99115148  0.99115148  0.99115148  1
