# generated using pymatgen
data_Na14La4Nb4Si11SO48
_symmetry_space_group_name_H-M   'P 1'
_cell_length_a   18.92800612
_cell_length_b   9.45361017
_cell_length_c   22.88857642
_cell_angle_alpha   89.84296852
_cell_angle_beta   90.03545601
_cell_angle_gamma   119.97494201
_symmetry_Int_Tables_number   1
_chemical_formula_structural   Na14La4Nb4Si11SO48
_chemical_formula_sum   'Na42 La12 Nb12 Si33 S3 O144'
_cell_volume   3547.80532726
_cell_formula_units_Z   3
loop_
 _symmetry_equiv_pos_site_id
 _symmetry_equiv_pos_as_xyz
  1  'x, y, z'
loop_
 _atom_site_type_symbol
 _atom_site_label
 _atom_site_symmetry_multiplicity
 _atom_site_fract_x
 _atom_site_fract_y
 _atom_site_fract_z
 _atom_site_occupancy
  Na  Na0  1  0.32447613  0.99936696  0.24977807  1
  Na  Na1  1  0.82544186  0.00093413  0.24965246  1
  Na  Na2  1  0.32540589  0.64529455  0.74783948  1
  Na  Na3  1  0.82028418  0.63908099  0.74761402  1
  Na  Na4  1  0.49386434  0.36112470  0.74575780  1
  Na  Na5  1  0.67829745  0.00752575  0.74985735  1
  Na  Na6  1  0.14901906  0.32990048  0.57999518  1
  Na  Na7  1  0.65491580  0.32729038  0.58226580  1
  Na  Na8  1  0.01323113  0.70025541  0.58540107  1
  Na  Na9  1  0.51239353  0.69170665  0.58339245  1
  Na  Na10  1  0.33058388  0.97991720  0.58228688  1
  Na  Na11  1  0.83886318  0.97199580  0.58731656  1
  Na  Na12  1  0.14598269  0.95629256  0.07886216  1
  Na  Na13  1  0.64583906  0.95607647  0.07826023  1
  Na  Na14  1  0.33210005  0.71175474  0.08320290  1
  Na  Na15  1  0.83243264  0.71163643  0.08415952  1
  Na  Na16  1  0.02359952  0.33659423  0.08363668  1
  Na  Na17  1  0.52303220  0.33600318  0.08349704  1
  Na  Na18  1  0.48472072  0.67875815  0.91280667  1
  Na  Na19  1  0.98464168  0.67269389  0.91380449  1
  Na  Na20  1  0.35487711  0.02713285  0.91340149  1
  Na  Na21  1  0.85366598  0.03159213  0.91355569  1
  Na  Na22  1  0.16092533  0.29969979  0.91902786  1
  Na  Na23  1  0.66197597  0.29456675  0.91410138  1
  Na  Na24  1  0.47568062  0.28540512  0.41485688  1
  Na  Na25  1  0.97712489  0.28962726  0.41668200  1
  Na  Na26  1  0.16798379  0.04435306  0.42226368  1
  Na  Na27  1  0.66665308  0.04258721  0.42026891  1
  Na  Na28  1  0.35492009  0.66513624  0.41543448  1
  Na  Na29  1  0.85645474  0.66258557  0.41649588  1
  Na  Na30  1  0.00119493  0.99833605  0.50127454  1
  Na  Na31  1  0.49917116  0.99994837  0.49639054  1
  Na  Na32  1  0.99986004  0.00196559  0.99985752  1
  Na  Na33  1  0.49938839  0.99898945  0.99808531  1
  Na  Na34  1  0.33543896  0.32470449  0.83064868  1
  Na  Na35  1  0.84027912  0.33337221  0.83216457  1
  Na  Na36  1  0.33956203  0.35319483  0.33312046  1
  Na  Na37  1  0.84091415  0.35594276  0.33292224  1
  Na  Na38  1  0.16311820  0.64582274  0.16778615  1
  Na  Na39  1  0.66303924  0.64603651  0.16766650  1
  Na  Na40  1  0.16230743  0.68120348  0.66932496  1
  Na  Na41  1  0.66684080  0.66626926  0.66769362  1
  La  La42  1  0.99518576  0.99457798  0.34778641  1
  La  La43  1  0.49483160  0.99397010  0.34716026  1
  La  La44  1  0.99406681  0.99100955  0.84084879  1
  La  La45  1  0.50397246  0.00666258  0.84196813  1
  La  La46  1  0.00008635  0.99173828  0.65881585  1
  La  La47  1  0.99785699  0.00559042  0.15162668  1
  La  La48  1  0.49765681  0.00550679  0.15113950  1
  La  La49  1  0.33050326  0.32459876  0.67418147  1
  La  La50  1  0.33805099  0.33856027  0.48424746  1
  La  La51  1  0.83112347  0.32601498  0.48368729  1
  La  La52  1  0.16692630  0.66665827  0.01839398  1
  La  La53  1  0.66816167  0.66634069  0.01997501  1
  Nb  Nb54  1  0.49891337  0.99834164  0.65439217  1
  Nb  Nb55  1  0.83518695  0.33390565  0.68030068  1
  Nb  Nb56  1  0.33807367  0.34846078  0.18466578  1
  Nb  Nb57  1  0.83860357  0.34935914  0.18477071  1
  Nb  Nb58  1  0.33367803  0.33556744  0.97768336  1
  Nb  Nb59  1  0.83338558  0.33267499  0.97769388  1
  Nb  Nb60  1  0.16459630  0.66696239  0.51848402  1
  Nb  Nb61  1  0.66841814  0.66541589  0.52037120  1
  Nb  Nb62  1  0.16416183  0.65085179  0.31552631  1
  Nb  Nb63  1  0.66385437  0.65107489  0.31493710  1
  Nb  Nb64  1  0.16754286  0.67845722  0.82126926  1
  Nb  Nb65  1  0.66530827  0.66985424  0.81796260  1
  Si  Si66  1  0.33861268  0.68116043  0.25040747  1
  Si  Si67  1  0.83874433  0.68153447  0.25038837  1
  Si  Si68  1  0.99810495  0.31883886  0.24968128  1
  Si  Si69  1  0.49772793  0.31847456  0.24962881  1
  Si  Si70  1  0.65557626  0.31192147  0.74871372  1
  Si  Si71  1  0.00028815  0.67014111  0.74947830  1
  Si  Si72  1  0.50173079  0.69381333  0.75313266  1
  Si  Si73  1  0.34376384  0.99152140  0.75396289  1
  Si  Si74  1  0.83798071  0.99961545  0.75065399  1
  Si  Si75  1  0.49251685  0.32939319  0.58356703  1
  Si  Si76  1  0.98641463  0.33754775  0.58130429  1
  Si  Si77  1  0.17639611  0.01840378  0.57634660  1
  Si  Si78  1  0.67881610  0.02606406  0.58483704  1
  Si  Si79  1  0.33421920  0.65372938  0.58467163  1
  Si  Si80  1  0.83141997  0.63341913  0.58062645  1
  Si  Si81  1  0.47477499  0.62054101  0.08085319  1
  Si  Si82  1  0.97465671  0.62053848  0.08037195  1
  Si  Si83  1  0.33414907  0.05672321  0.08438953  1
  Si  Si84  1  0.83447883  0.05654987  0.08497024  1
  Si  Si85  1  0.19210882  0.32762203  0.08263326  1
  Si  Si86  1  0.69255698  0.32691640  0.08267422  1
  Si  Si87  1  0.31568093  0.65920423  0.91766332  1
  Si  Si88  1  0.81400736  0.65629301  0.91680424  1
  Si  Si89  1  0.01580883  0.36996453  0.91916571  1
  Si  Si90  1  0.51407242  0.37201680  0.91815700  1
  Si  Si91  1  0.17099301  0.97700855  0.91895637  1
  Si  Si92  1  0.67126213  0.97257346  0.91976689  1
  Si  Si93  1  0.30675925  0.94807970  0.41411455  1
  Si  Si94  1  0.80665178  0.94513585  0.41508083  1
  Si  Si95  1  0.16589906  0.37782854  0.41986377  1
  Si  Si96  1  0.66558764  0.37855147  0.41778460  1
  Si  Si97  1  0.02522264  0.66778956  0.41522796  1
  Si  Si98  1  0.52867790  0.67219706  0.41780100  1
  S  S99  1  0.16184080  0.00009654  0.24996641  1
  S  S100  1  0.66194406  0.00048329  0.25036954  1
  S  S101  1  0.15962201  0.33232174  0.75412131  1
  O  O102  1  0.12284696  0.02093967  0.30246432  1
  O  O103  1  0.62273527  0.02064952  0.30278253  1
  O  O104  1  0.39309701  0.75338802  0.30944155  1
  O  O105  1  0.89311285  0.75370921  0.30921093  1
  O  O106  1  0.47722477  0.19721444  0.30608783  1
  O  O107  1  0.97665995  0.19705857  0.30594179  1
  O  O108  1  0.11740306  0.23315531  0.80550632  1
  O  O109  1  0.63435536  0.21213399  0.80918276  1
  O  O110  1  0.48882722  0.76102264  0.81399160  1
  O  O111  1  0.97414925  0.73937820  0.80535503  1
  O  O112  1  0.39089944  0.01832755  0.81482911  1
  O  O113  1  0.89019808  0.03692365  0.80977216  1
  O  O114  1  0.40522865  0.97747479  0.70107119  1
  O  O115  1  0.87376916  0.94805539  0.69526937  1
  O  O116  1  0.11627290  0.25398477  0.69932143  1
  O  O117  1  0.58476744  0.19325611  0.69955092  1
  O  O118  1  0.01884599  0.77770398  0.69042086  1
  O  O119  1  0.50974997  0.82866122  0.70053255  1
  O  O120  1  0.37918088  0.80436674  0.19459408  1
  O  O121  1  0.87865745  0.80379519  0.19424438  1
  O  O122  1  0.01558057  0.24473642  0.19090810  1
  O  O123  1  0.51585222  0.24495101  0.19103061  1
  O  O124  1  0.11236620  0.97960281  0.19695292  1
  O  O125  1  0.61202391  0.97928938  0.19723240  1
  O  O126  1  0.45800250  0.38132568  0.63915108  1
  O  O127  1  0.92431261  0.35130928  0.63191610  1
  O  O128  1  0.23965642  0.08829238  0.63055582  1
  O  O129  1  0.74699276  0.13781513  0.63516161  1
  O  O130  1  0.30978687  0.53761039  0.64179632  1
  O  O131  1  0.82281315  0.50268287  0.63387847  1
  O  O132  1  0.41929469  0.51185418  0.13797736  1
  O  O133  1  0.91942917  0.51214706  0.13760988  1
  O  O134  1  0.33554679  0.16189479  0.14226751  1
  O  O135  1  0.83608544  0.16262167  0.14242764  1
  O  O136  1  0.24746626  0.32341357  0.13751934  1
  O  O137  1  0.74785362  0.32300107  0.13742510  1
  O  O138  1  0.24329030  0.32715732  0.02205175  1
  O  O139  1  0.74414641  0.32711394  0.02191496  1
  O  O140  1  0.42011002  0.51538006  0.02245809  1
  O  O141  1  0.92026048  0.51505239  0.02173417  1
  O  O142  1  0.33592134  0.16560733  0.02488265  1
  O  O143  1  0.83589302  0.16495185  0.02505357  1
  O  O144  1  0.21626545  0.13313326  0.51907556  1
  O  O145  1  0.70279783  0.12898556  0.52437522  1
  O  O146  1  0.36221311  0.58546880  0.52925860  1
  O  O147  1  0.84613602  0.56495736  0.52020552  1
  O  O148  1  0.43326644  0.27577302  0.52684537  1
  O  O149  1  0.93609928  0.29660029  0.52068748  1
  O  O150  1  0.28108429  0.68919321  0.97793246  1
  O  O151  1  0.78181913  0.69059544  0.97692714  1
  O  O152  1  0.06212986  0.42883866  0.98102898  1
  O  O153  1  0.56405741  0.44222111  0.97781364  1
  O  O154  1  0.14999123  0.87340529  0.97849998  1
  O  O155  1  0.65713680  0.87472195  0.97989672  1
  O  O156  1  0.25123923  0.83693096  0.47138394  1
  O  O157  1  0.75501230  0.84090251  0.47558124  1
  O  O158  1  0.16240836  0.47707640  0.47900734  1
  O  O159  1  0.66761849  0.49144902  0.47467992  1
  O  O160  1  0.07649655  0.66217343  0.47387018  1
  O  O161  1  0.57920477  0.67079333  0.47856467  1
  O  O162  1  0.08316675  0.67112969  0.36069934  1
  O  O163  1  0.58490516  0.67365880  0.36280422  1
  O  O164  1  0.25517803  0.84394881  0.35615511  1
  O  O165  1  0.75405249  0.83784638  0.35808501  1
  O  O166  1  0.16609971  0.48974319  0.36283700  1
  O  O167  1  0.66367966  0.48577679  0.36057843  1
  O  O168  1  0.07786942  0.50933572  0.86865349  1
  O  O169  1  0.57027805  0.49777048  0.86162369  1
  O  O170  1  0.18085410  0.86076664  0.86546896  1
  O  O171  1  0.67485304  0.85208194  0.86504998  1
  O  O172  1  0.25093594  0.64388413  0.86318588  1
  O  O173  1  0.74982093  0.64389039  0.86141860  1
  O  O174  1  0.02294199  0.83705592  0.41833294  1
  O  O175  1  0.52431570  0.83959822  0.41998571  1
  O  O176  1  0.39488032  0.95570524  0.41948313  1
  O  O177  1  0.89494510  0.95542275  0.41961385  1
  O  O178  1  0.08340034  0.20143672  0.41906992  1
  O  O179  1  0.58160902  0.20450956  0.42066734  1
  O  O180  1  0.00056471  0.18765931  0.90796670  1
  O  O181  1  0.49926539  0.18930858  0.91100187  1
  O  O182  1  0.09731233  0.01196469  0.90528578  1
  O  O183  1  0.59671870  0.00803442  0.91291217  1
  O  O184  1  0.40776440  0.80994573  0.91067464  1
  O  O185  1  0.90634214  0.80786730  0.90904992  1
  O  O186  1  0.50614214  0.17085467  0.59716032  1
  O  O187  1  0.00368830  0.19004742  0.59554759  1
  O  O188  1  0.08602574  0.99669932  0.58378244  1
  O  O189  1  0.58722699  0.99584801  0.60301388  1
  O  O190  1  0.41606303  0.83900654  0.59739662  1
  O  O191  1  0.90677074  0.81638628  0.59039045  1
  O  O192  1  0.47898343  0.79582703  0.07958009  1
  O  O193  1  0.97844538  0.79547907  0.07911192  1
  O  O194  1  0.41773098  0.04698424  0.07967248  1
  O  O195  1  0.91796405  0.04693872  0.07956143  1
  O  O196  1  0.10441564  0.15946862  0.08000392  1
  O  O197  1  0.60478660  0.15962788  0.07993699  1
  O  O198  1  0.33756495  0.15284268  0.74267893  1
  O  O199  1  0.82135990  0.15365924  0.73737143  1
  O  O200  1  0.24401405  0.35818611  0.75388011  1
  O  O201  1  0.74594343  0.34128703  0.72938658  1
  O  O202  1  0.42467792  0.51418506  0.74287989  1
  O  O203  1  0.91529253  0.48954248  0.73697100  1
  O  O204  1  0.32540443  0.49618090  0.23963830  1
  O  O205  1  0.82534660  0.49641562  0.23946765  1
  O  O206  1  0.41331625  0.33056987  0.24224075  1
  O  O207  1  0.91388348  0.33193932  0.24202397  1
  O  O208  1  0.24533460  0.14579132  0.24527640  1
  O  O209  1  0.74521127  0.14566185  0.24544531  1
  O  O210  1  0.31401840  0.48055962  0.91807292  1
  O  O211  1  0.81405770  0.48021652  0.91674023  1
  O  O212  1  0.42634841  0.37322745  0.91802302  1
  O  O213  1  0.92757530  0.37058163  0.91841759  1
  O  O214  1  0.26024812  0.14831948  0.91914911  1
  O  O215  1  0.76114026  0.14581100  0.91805111  1
  O  O216  1  0.31474831  0.12749490  0.41240217  1
  O  O217  1  0.81009980  0.12015802  0.41222087  1
  O  O218  1  0.25119155  0.37711557  0.41518486  1
  O  O219  1  0.74838840  0.37007761  0.41206891  1
  O  O220  1  0.44078843  0.50536069  0.41366949  1
  O  O221  1  0.93679527  0.50247529  0.41182979  1
  O  O222  1  0.18735887  0.49348550  0.08854847  1
  O  O223  1  0.68814468  0.49290206  0.08890010  1
  O  O224  1  0.06095583  0.62689540  0.08779261  1
  O  O225  1  0.56088654  0.62617454  0.08837165  1
  O  O226  1  0.25159072  0.87989695  0.08836607  1
  O  O227  1  0.75217842  0.88003951  0.08964410  1
  O  O228  1  0.16500815  0.83265175  0.57057645  1
  O  O229  1  0.67313485  0.84449721  0.58140035  1
  O  O230  1  0.25462841  0.67872542  0.57301866  1
  O  O231  1  0.74516650  0.64145644  0.58058737  1
  O  O232  1  0.07496063  0.51112240  0.58085852  1
  O  O233  1  0.58385212  0.49180104  0.57347089  1
  O  O234  1  0.17251758  0.85426609  0.25433064  1
  O  O235  1  0.67253961  0.85448686  0.25476630  1
  O  O236  1  0.24817906  0.66935804  0.25802623  1
  O  O237  1  0.74811500  0.66967774  0.25808882  1
  O  O238  1  0.07827657  0.50298085  0.26046919  1
  O  O239  1  0.57723577  0.50362897  0.26045576  1
  O  O240  1  0.16477815  0.49472763  0.75715766  1
  O  O241  1  0.65869914  0.49018687  0.75343641  1
  O  O242  1  0.08363795  0.65948182  0.76444637  1
  O  O243  1  0.58877777  0.68984563  0.75478378  1
  O  O244  1  0.25639777  0.81406872  0.75610569  1
  O  O245  1  0.74692697  0.83210226  0.76200112  1
