# generated using pymatgen
data_Na5Y2Sc2P5SO24
_symmetry_space_group_name_H-M   'P 1'
_cell_length_a   9.14581727
_cell_length_b   9.15597707
_cell_length_c   23.12957354
_cell_angle_alpha   90.17191463
_cell_angle_beta   89.96600674
_cell_angle_gamma   119.98416155
_symmetry_Int_Tables_number   1
_chemical_formula_structural   Na5Y2Sc2P5SO24
_chemical_formula_sum   'Na15 Y6 Sc6 P15 S3 O72'
_cell_volume   1677.61604749
_cell_formula_units_Z   3
loop_
 _symmetry_equiv_pos_site_id
 _symmetry_equiv_pos_as_xyz
  1  'x, y, z'
loop_
 _atom_site_type_symbol
 _atom_site_label
 _atom_site_symmetry_multiplicity
 _atom_site_fract_x
 _atom_site_fract_y
 _atom_site_fract_z
 _atom_site_occupancy
  Na  Na0  1  0.64245440  0.00112065  0.25021473  1
  Na  Na1  1  0.99689343  0.35909420  0.74965271  1
  Na  Na2  1  0.36018026  0.99885056  0.75030697  1
  Na  Na3  1  0.02990988  0.69637625  0.57910504  1
  Na  Na4  1  0.66424419  0.96887446  0.58217283  1
  Na  Na5  1  0.30470965  0.97527030  0.08431844  1
  Na  Na6  1  0.02644758  0.33145692  0.08623658  1
  Na  Na7  1  0.97821940  0.66436873  0.91880994  1
  Na  Na8  1  0.70290958  0.67291565  0.41675397  1
  Na  Na9  1  0.02361465  0.02064734  0.49659423  1
  Na  Na10  1  0.99698423  0.00965984  0.00220843  1
  Na  Na11  1  0.65335051  0.32197089  0.83401181  1
  Na  Na12  1  0.68758182  0.34105864  0.33309742  1
  Na  Na13  1  0.33944732  0.64303626  0.16877001  1
  Na  Na14  1  0.35069406  0.65035145  0.66605501  1
  Y  Y15  1  0.00051889  0.00933669  0.85421434  1
  Y  Y16  1  0.00312064  0.00181092  0.64712897  1
  Y  Y17  1  0.66422808  0.34399919  0.68159677  1
  Y  Y18  1  0.66034187  0.32462111  0.98731204  1
  Y  Y19  1  0.32787422  0.66407918  0.51041923  1
  Y  Y20  1  0.34173020  0.66906455  0.81816366  1
  Sc  Sc21  1  0.99124701  0.99552285  0.34726354  1
  Sc  Sc22  1  0.98997917  0.99568728  0.15248048  1
  Sc  Sc23  1  0.67414823  0.35105413  0.18405828  1
  Sc  Sc24  1  0.66917802  0.32500642  0.47971333  1
  Sc  Sc25  1  0.33449209  0.66684783  0.02119224  1
  Sc  Sc26  1  0.31974794  0.66173731  0.31533826  1
  P  P27  1  0.70042497  0.70381363  0.25201240  1
  P  P28  1  0.99864029  0.29439402  0.24858443  1
  P  P29  1  0.29959947  0.29945590  0.75068985  1
  P  P30  1  0.00102095  0.69822270  0.75216682  1
  P  P31  1  0.69783833  0.00241931  0.74657665  1
  P  P32  1  0.96177617  0.33418328  0.58215153  1
  P  P33  1  0.37228250  0.03686000  0.58072145  1
  P  P34  1  0.66712159  0.63254983  0.57584571  1
  P  P35  1  0.96860548  0.63723618  0.08317386  1
  P  P36  1  0.66548025  0.03331540  0.08937424  1
  P  P37  1  0.36356250  0.33064115  0.08774187  1
  P  P38  1  0.03742565  0.37338012  0.92065663  1
  P  P39  1  0.33070273  0.96143709  0.92016019  1
  P  P40  1  0.63359316  0.96653716  0.41211020  1
  P  P41  1  0.02787750  0.66852139  0.41514731  1
  S  S42  1  0.29650389  0.00050463  0.24942972  1
  S  S43  1  0.63321529  0.66610374  0.92125288  1
  S  S44  1  0.33280943  0.36374365  0.41217073  1
  O  O45  1  0.20700513  0.01692315  0.29977174  1
  O  O46  1  0.80432117  0.78261753  0.30793669  1
  O  O47  1  0.97225690  0.17212002  0.29901178  1
  O  O48  1  0.21025593  0.19254116  0.80436384  1
  O  O49  1  0.98978332  0.78789492  0.80715973  1
  O  O50  1  0.81076585  0.01767024  0.79833965  1
  O  O51  1  0.77725794  0.98901199  0.68919524  1
  O  O52  1  0.19306393  0.21292004  0.69645569  1
  O  O53  1  0.01565224  0.80099591  0.69707794  1
  O  O54  1  0.79563468  0.82571695  0.20128809  1
  O  O55  1  0.02348626  0.21674128  0.19218086  1
  O  O56  1  0.20028083  0.98053194  0.19544739  1
  O  O57  1  0.88879307  0.35308655  0.64037306  1
  O  O58  1  0.46259825  0.11017506  0.63915556  1
  O  O59  1  0.65341680  0.53581126  0.63164172  1
  O  O60  1  0.87103891  0.51044809  0.13259159  1
  O  O61  1  0.63541089  0.11966323  0.14241933  1
  O  O62  1  0.48147924  0.35562142  0.13915176  1
  O  O63  1  0.43613734  0.29395141  0.03287991  1
  O  O64  1  0.87181711  0.57038655  0.02581210  1
  O  O65  1  0.70549514  0.14960014  0.03622310  1
  O  O66  1  0.47630148  0.15021721  0.53007101  1
  O  O67  1  0.67689441  0.53740412  0.52187356  1
  O  O68  1  0.84415828  0.32294407  0.53193681  1
  O  O69  1  0.53789825  0.67333191  0.97155611  1
  O  O70  1  0.14720701  0.47475805  0.97329953  1
  O  O71  1  0.32810244  0.85295876  0.97242619  1
  O  O72  1  0.56060502  0.85794436  0.46750388  1
  O  O73  1  0.30321027  0.43126004  0.46659829  1
  O  O74  1  0.11907327  0.69154110  0.47366960  1
  O  O75  1  0.13103903  0.64707909  0.36599746  1
  O  O76  1  0.51782084  0.86934111  0.36008977  1
  O  O77  1  0.35607348  0.48027870  0.36383023  1
  O  O78  1  0.12229240  0.46673124  0.86366809  1
  O  O79  1  0.34238460  0.88025747  0.86274541  1
  O  O80  1  0.54550826  0.65469615  0.86647338  1
  O  O81  1  0.00760076  0.82588082  0.40624788  1
  O  O82  1  0.81109048  0.98266603  0.40497987  1
  O  O83  1  0.18740975  0.19274634  0.40357370  1
  O  O84  1  0.01249634  0.19423245  0.92190884  1
  O  O85  1  0.15914551  0.95909727  0.92161065  1
  O  O86  1  0.80359742  0.81955118  0.92156315  1
  O  O87  1  0.96933050  0.16926812  0.58090798  1
  O  O88  1  0.19075631  0.00856763  0.57998322  1
  O  O89  1  0.83434317  0.80693893  0.57796383  1
  O  O90  1  0.00185996  0.81797303  0.09461083  1
  O  O91  1  0.82419277  0.01433579  0.09597455  1
  O  O92  1  0.18502990  0.17084679  0.09546312  1
  O  O93  1  0.68276802  0.16441311  0.74774065  1
  O  O94  1  0.47306798  0.31051831  0.74869777  1
  O  O95  1  0.84964195  0.51672058  0.75023512  1
  O  O96  1  0.68170664  0.52787478  0.24309451  1
  O  O97  1  0.83207977  0.30321665  0.24415029  1
  O  O98  1  0.46976781  0.15056762  0.24648684  1
  O  O99  1  0.65696415  0.51758556  0.92303430  1
  O  O100  1  0.86566367  0.36964393  0.92239108  1
  O  O101  1  0.48241175  0.14160974  0.92227463  1
  O  O102  1  0.65071171  0.14250779  0.41831284  1
  O  O103  1  0.49272333  0.35834173  0.41653680  1
  O  O104  1  0.84656275  0.51070737  0.41726286  1
  O  O105  1  0.33743528  0.48508749  0.08123739  1
  O  O106  1  0.14586806  0.64893293  0.07979377  1
  O  O107  1  0.50288211  0.86070237  0.08026958  1
  O  O108  1  0.35798790  0.86002657  0.57591061  1
  O  O109  1  0.51748503  0.66600546  0.57460186  1
  O  O110  1  0.13664092  0.49417789  0.57631931  1
  O  O111  1  0.31712957  0.84787777  0.25484002  1
  O  O112  1  0.52559610  0.69511654  0.25653708  1
  O  O113  1  0.15414423  0.47199196  0.25787171  1
  O  O114  1  0.31338955  0.47428797  0.75333058  1
  O  O115  1  0.16479858  0.68479020  0.75296491  1
  O  O116  1  0.51710683  0.84954636  0.75061199  1
