# generated using pymatgen
data_Na42Ca8Ta16Si33(SO48)3
_symmetry_space_group_name_H-M   'P 1'
_cell_length_a   18.45332942
_cell_length_b   9.22739119
_cell_length_c   22.59228905
_cell_angle_alpha   89.83979202
_cell_angle_beta   90.38409600
_cell_angle_gamma   119.91132023
_symmetry_Int_Tables_number   1
_chemical_formula_structural   Na42Ca8Ta16Si33(SO48)3
_chemical_formula_sum   'Na42 Ca8 Ta16 Si33 S3 O144'
_cell_volume   3334.43365407
_cell_formula_units_Z   1
loop_
 _symmetry_equiv_pos_site_id
 _symmetry_equiv_pos_as_xyz
  1  'x, y, z'
loop_
 _atom_site_type_symbol
 _atom_site_label
 _atom_site_symmetry_multiplicity
 _atom_site_fract_x
 _atom_site_fract_y
 _atom_site_fract_z
 _atom_site_occupancy
  Na  Na0  1  0.31715033  0.97920277  0.25497098  1
  Na  Na1  1  0.81895995  0.98104445  0.25568739  1
  Na  Na2  1  0.17682875  0.38236821  0.25437802  1
  Na  Na3  1  0.67792108  0.38322152  0.25464607  1
  Na  Na4  1  0.00367556  0.63634995  0.26103438  1
  Na  Na5  1  0.50316652  0.63436506  0.26016999  1
  Na  Na6  1  0.31848054  0.65718155  0.75659424  1
  Na  Na7  1  0.81073532  0.64451135  0.75476961  1
  Na  Na8  1  0.00257498  0.37663688  0.75836424  1
  Na  Na9  1  0.51359003  0.37437181  0.75811854  1
  Na  Na10  1  0.17660639  0.97126661  0.75501574  1
  Na  Na11  1  0.67719657  0.97710426  0.75463227  1
  Na  Na12  1  0.14276389  0.32012397  0.58175942  1
  Na  Na13  1  0.64275972  0.31667864  0.59158096  1
  Na  Na14  1  0.01619723  0.71672141  0.58994019  1
  Na  Na15  1  0.51920262  0.72205565  0.59020487  1
  Na  Na16  1  0.34190188  0.96210787  0.58939630  1
  Na  Na17  1  0.84212469  0.96798694  0.59093285  1
  Na  Na18  1  0.34135917  0.72110566  0.09012020  1
  Na  Na19  1  0.84167165  0.72134240  0.09053916  1
  Na  Na20  1  0.01759676  0.31694569  0.08986205  1
  Na  Na21  1  0.51601513  0.31410467  0.08905039  1
  Na  Na22  1  0.48748057  0.66147880  0.91438031  1
  Na  Na23  1  0.99069287  0.65565942  0.91461521  1
  Na  Na24  1  0.34373419  0.02366461  0.91565143  1
  Na  Na25  1  0.84036526  0.02422166  0.91394255  1
  Na  Na26  1  0.66611543  0.31017167  0.91363637  1
  Na  Na27  1  0.49000669  0.32350616  0.41465880  1
  Na  Na28  1  0.33878478  0.65534002  0.41380948  1
  Na  Na29  1  0.84162011  0.65585200  0.41482636  1
  Na  Na30  1  0.00417717  0.00653811  0.50325931  1
  Na  Na31  1  0.50625948  0.00033735  0.50524862  1
  Na  Na32  1  0.01234986  0.01035264  0.00745756  1
  Na  Na33  1  0.50474151  0.99837108  0.00603738  1
  Na  Na34  1  0.32990136  0.33460296  0.83633538  1
  Na  Na35  1  0.83223951  0.33252893  0.83151890  1
  Na  Na36  1  0.32725187  0.32238372  0.33425785  1
  Na  Na37  1  0.83693248  0.32417325  0.33773452  1
  Na  Na38  1  0.16578935  0.65926222  0.17151595  1
  Na  Na39  1  0.66688231  0.65922347  0.17204353  1
  Na  Na40  1  0.16688024  0.68426557  0.67285859  1
  Na  Na41  1  0.66624069  0.66475445  0.67895725  1
  Ca  Ca42  1  0.99907612  0.99679155  0.64567757  1
  Ca  Ca43  1  0.49983420  0.00002376  0.64690661  1
  Ca  Ca44  1  0.00323472  0.00096071  0.14404548  1
  Ca  Ca45  1  0.50325345  0.00090980  0.14316640  1
  Ca  Ca46  1  0.16460131  0.66228060  0.32336326  1
  Ca  Ca47  1  0.66680476  0.66501392  0.32273292  1
  Ca  Ca48  1  0.16685715  0.66845504  0.82417292  1
  Ca  Ca49  1  0.66631179  0.66755130  0.82144682  1
  Ta  Ta50  1  0.99178897  0.99958721  0.35764111  1
  Ta  Ta51  1  0.49261460  0.99719818  0.35633022  1
  Ta  Ta52  1  0.99354480  0.98889598  0.85605065  1
  Ta  Ta53  1  0.49820858  0.99850794  0.85073162  1
  Ta  Ta54  1  0.33991053  0.33565214  0.68446045  1
  Ta  Ta55  1  0.83285139  0.33339176  0.68807703  1
  Ta  Ta56  1  0.33802887  0.33974764  0.18400747  1
  Ta  Ta57  1  0.83917822  0.34206198  0.18441627  1
  Ta  Ta58  1  0.33048674  0.33221348  0.98103695  1
  Ta  Ta59  1  0.83319879  0.33124563  0.98211432  1
  Ta  Ta60  1  0.33087551  0.33119425  0.48011928  1
  Ta  Ta61  1  0.83438404  0.33125606  0.48018021  1
  Ta  Ta62  1  0.16751056  0.66891055  0.01843247  1
  Ta  Ta63  1  0.66653474  0.66905191  0.02051073  1
  Ta  Ta64  1  0.16419032  0.66464766  0.51689459  1
  Ta  Ta65  1  0.66685301  0.66750798  0.51782553  1
  Si  Si66  1  0.35181247  0.69923713  0.24661158  1
  Si  Si67  1  0.85253425  0.70094093  0.24718737  1
  Si  Si68  1  0.99770167  0.29349627  0.24687059  1
  Si  Si69  1  0.49754382  0.29466742  0.24698551  1
  Si  Si70  1  0.64958008  0.29390469  0.74719067  1
  Si  Si71  1  0.99913414  0.70190103  0.74727481  1
  Si  Si72  1  0.49563633  0.69791014  0.74701693  1
  Si  Si73  1  0.35039072  0.00281594  0.74630724  1
  Si  Si74  1  0.85311384  0.00618885  0.74695186  1
  Si  Si75  1  0.48291534  0.34615361  0.57930923  1
  Si  Si76  1  0.98134085  0.34864964  0.58356448  1
  Si  Si77  1  0.19281737  0.03929091  0.58276461  1
  Si  Si78  1  0.69323703  0.04042666  0.58185865  1
  Si  Si79  1  0.32691374  0.61568440  0.58181856  1
  Si  Si80  1  0.82772716  0.61512485  0.58107935  1
  Si  Si81  1  0.48206426  0.61840777  0.07990788  1
  Si  Si82  1  0.98381892  0.62114803  0.08028239  1
  Si  Si83  1  0.32596440  0.03831335  0.08191375  1
  Si  Si84  1  0.82593501  0.03712260  0.08320924  1
  Si  Si85  1  0.19161036  0.34529066  0.08246472  1
  Si  Si86  1  0.69157139  0.34399436  0.08177548  1
  Si  Si87  1  0.31662883  0.66525009  0.91479555  1
  Si  Si88  1  0.81450215  0.66118048  0.91789543  1
  Si  Si89  1  0.01696322  0.36315236  0.91725427  1
  Si  Si90  1  0.51562508  0.36492748  0.91756857  1
  Si  Si91  1  0.16643157  0.96880774  0.91565325  1
  Si  Si92  1  0.66632126  0.96737925  0.91634468  1
  Si  Si93  1  0.31320700  0.96758021  0.41528293  1
  Si  Si94  1  0.81344928  0.96853650  0.41486629  1
  Si  Si95  1  0.16421624  0.36255622  0.41575804  1
  Si  Si96  1  0.66617513  0.36246373  0.41629433  1
  Si  Si97  1  0.01556721  0.66948165  0.41514582  1
  Si  Si98  1  0.51615805  0.66935569  0.41663466  1
  S  S99  1  0.14891075  0.00998191  0.25131184  1
  S  S100  1  0.64790831  0.01016094  0.25158183  1
  S  S101  1  0.14872449  0.28766105  0.75007200  1
  O  O102  1  0.10519916  0.02832375  0.30389668  1
  O  O103  1  0.60273357  0.02679534  0.30431768  1
  O  O104  1  0.41555251  0.80642298  0.30649009  1
  O  O105  1  0.91533395  0.80489298  0.30679220  1
  O  O106  1  0.48737717  0.16626571  0.30620598  1
  O  O107  1  0.98698464  0.16061526  0.30393313  1
  O  O108  1  0.10147727  0.17735196  0.80135718  1
  O  O109  1  0.59527357  0.16535949  0.80568203  1
  O  O110  1  0.48452013  0.80467148  0.80520116  1
  O  O111  1  0.98970568  0.81151179  0.80589375  1
  O  O112  1  0.41496098  0.02636682  0.80512650  1
  O  O113  1  0.91674892  0.02327588  0.80608765  1
  O  O114  1  0.38857185  0.98241625  0.68634655  1
  O  O115  1  0.89254044  0.98442614  0.68788992  1
  O  O116  1  0.10457734  0.22012191  0.69403391  1
  O  O117  1  0.59907726  0.22306739  0.68715272  1
  O  O118  1  0.01859510  0.81031712  0.68855420  1
  O  O119  1  0.50796673  0.79539014  0.68672044  1
  O  O120  1  0.39469129  0.79992356  0.18823481  1
  O  O121  1  0.89386830  0.79946837  0.18798684  1
  O  O122  1  0.01356164  0.22192635  0.18761066  1
  O  O123  1  0.51425733  0.22026503  0.18887161  1
  O  O124  1  0.10229017  0.98747357  0.19706579  1
  O  O125  1  0.60141082  0.98764726  0.19755619  1
  O  O126  1  0.43302446  0.36409517  0.64027925  1
  O  O127  1  0.93348671  0.36846363  0.64350442  1
  O  O128  1  0.25055048  0.13664492  0.64340165  1
  O  O129  1  0.75170827  0.13515443  0.64235396  1
  O  O130  1  0.31676017  0.49551858  0.64124766  1
  O  O131  1  0.81688103  0.49756857  0.64107910  1
  O  O132  1  0.43241330  0.49795991  0.14057940  1
  O  O133  1  0.93301562  0.49954807  0.14059185  1
  O  O134  1  0.31828218  0.13734330  0.14219564  1
  O  O135  1  0.81868993  0.13758015  0.14267468  1
  O  O136  1  0.25035155  0.36286002  0.14296522  1
  O  O137  1  0.75077129  0.36061302  0.14164254  1
  O  O138  1  0.24887175  0.34228266  0.02841689  1
  O  O139  1  0.74722971  0.34343915  0.02574259  1
  O  O140  1  0.42512521  0.50576942  0.02490941  1
  O  O141  1  0.92510361  0.50517431  0.02584437  1
  O  O142  1  0.33176371  0.15606636  0.02649450  1
  O  O143  1  0.82913764  0.15169772  0.02679475  1
  O  O144  1  0.24963061  0.15767305  0.52869940  1
  O  O145  1  0.74837490  0.16183878  0.52843594  1
  O  O146  1  0.33120879  0.50770393  0.52636806  1
  O  O147  1  0.83385169  0.51194450  0.52542769  1
  O  O148  1  0.42427980  0.34129784  0.52497970  1
  O  O149  1  0.92154969  0.33623445  0.52871813  1
  O  O150  1  0.26299799  0.69530842  0.96913172  1
  O  O151  1  0.76566169  0.69735206  0.97266607  1
  O  O152  1  0.08137984  0.47014805  0.97303140  1
  O  O153  1  0.58397884  0.46974634  0.97290663  1
  O  O154  1  0.15032457  0.82677492  0.96861696  1
  O  O155  1  0.65263089  0.82933257  0.97028390  1
  O  O156  1  0.26295695  0.83215477  0.47037407  1
  O  O157  1  0.76182111  0.82902330  0.46916631  1
  O  O158  1  0.15315395  0.47069894  0.47228746  1
  O  O159  1  0.64954357  0.46895195  0.47092941  1
  O  O160  1  0.08219216  0.69109783  0.47120416  1
  O  O161  1  0.58100950  0.69094803  0.47276269  1
  O  O162  1  0.04467984  0.63332328  0.35433032  1
  O  O163  1  0.54239179  0.61324888  0.35794245  1
  O  O164  1  0.26999977  0.91114438  0.35282588  1
  O  O165  1  0.77029041  0.91215496  0.35226282  1
  O  O166  1  0.19534907  0.47398192  0.35757123  1
  O  O167  1  0.69108617  0.46908234  0.35693288  1
  O  O168  1  0.04150553  0.47121232  0.85815649  1
  O  O169  1  0.54281179  0.47536690  0.85916816  1
  O  O170  1  0.19283500  0.91740237  0.85589803  1
  O  O171  1  0.69669251  0.91879085  0.85786859  1
  O  O172  1  0.27072626  0.62714520  0.85266373  1
  O  O173  1  0.76242248  0.60982696  0.85828742  1
  O  O174  1  0.00744765  0.84160415  0.41136269  1
  O  O175  1  0.50848761  0.84017468  0.40983064  1
  O  O176  1  0.40707490  0.97388114  0.41194673  1
  O  O177  1  0.90547762  0.97023008  0.41233974  1
  O  O178  1  0.07838194  0.18026559  0.40835875  1
  O  O179  1  0.57654400  0.18270746  0.40941900  1
  O  O180  1  0.00894068  0.17657996  0.90912017  1
  O  O181  1  0.51313676  0.18273758  0.91036436  1
  O  O182  1  0.07702399  0.97031513  0.90913611  1
  O  O183  1  0.57796913  0.97179692  0.91032550  1
  O  O184  1  0.40897069  0.84417676  0.91114380  1
  O  O185  1  0.90697027  0.83904100  0.91063503  1
  O  O186  1  0.49102490  0.18248277  0.57691301  1
  O  O187  1  0.99512290  0.19072836  0.58164522  1
  O  O188  1  0.10332118  0.02656069  0.57965258  1
  O  O189  1  0.60182642  0.01870573  0.57938328  1
  O  O190  1  0.40813220  0.79695331  0.57809861  1
  O  O191  1  0.90836041  0.79868181  0.57920381  1
  O  O192  1  0.48491957  0.79228212  0.07876899  1
  O  O193  1  0.98498535  0.79344469  0.07810775  1
  O  O194  1  0.40796492  0.02087024  0.07969299  1
  O  O195  1  0.90842912  0.02221921  0.07925076  1
  O  O196  1  0.09937216  0.19186241  0.07936334  1
  O  O197  1  0.59904100  0.19097963  0.07753382  1
  O  O198  1  0.34800721  0.18470537  0.74562248  1
  O  O199  1  0.85477803  0.19024868  0.74694890  1
  O  O200  1  0.23214648  0.29324816  0.74955516  1
  O  O201  1  0.74018754  0.29078099  0.74589762  1
  O  O202  1  0.40260441  0.51458846  0.74555509  1
  O  O203  1  0.90625062  0.52402770  0.74557481  1
  O  O204  1  0.34884082  0.51140939  0.24630404  1
  O  O205  1  0.84826150  0.51120949  0.24552821  1
  O  O206  1  0.40409454  0.28976751  0.24563947  1
  O  O207  1  0.90432999  0.29005206  0.24532995  1
  O  O208  1  0.23313861  0.17243662  0.24887145  1
  O  O209  1  0.73172769  0.17157726  0.24984273  1
  O  O210  1  0.33929798  0.51584707  0.92800070  1
  O  O211  1  0.83902460  0.51405679  0.92903242  1
  O  O212  1  0.41876021  0.32348962  0.92903108  1
  O  O213  1  0.91917549  0.32263886  0.92923834  1
  O  O214  1  0.24498289  0.15583566  0.92982345  1
  O  O215  1  0.74256386  0.16130989  0.92942138  1
  O  O216  1  0.33906090  0.16307277  0.42782782  1
  O  O217  1  0.83384562  0.15794701  0.42911291  1
  O  O218  1  0.24396651  0.33308365  0.43057468  1
  O  O219  1  0.74585473  0.33651303  0.43034618  1
  O  O220  1  0.41940091  0.51386568  0.42885361  1
  O  O221  1  0.91987521  0.51485117  0.42850028  1
  O  O222  1  0.19054396  0.52456878  0.07660166  1
  O  O223  1  0.69017611  0.52345368  0.07735897  1
  O  O224  1  0.07330738  0.62275627  0.07708422  1
  O  O225  1  0.57249923  0.62152194  0.07714826  1
  O  O226  1  0.24186220  0.85094625  0.07495981  1
  O  O227  1  0.74169182  0.84984680  0.07690793  1
  O  O228  1  0.18738851  0.85503270  0.57657282  1
  O  O229  1  0.68873588  0.85606427  0.57505129  1
  O  O230  1  0.23944744  0.62501503  0.57667873  1
  O  O231  1  0.74033552  0.62556980  0.57512049  1
  O  O232  1  0.07346787  0.52408321  0.57715277  1
  O  O233  1  0.57383345  0.52145032  0.57734861  1
  O  O234  1  0.16405083  0.86779889  0.25661230  1
  O  O235  1  0.66166034  0.86644520  0.25776974  1
  O  O236  1  0.25948413  0.67547218  0.25179600  1
  O  O237  1  0.75954786  0.67513872  0.25171947  1
  O  O238  1  0.07299335  0.48328121  0.25388756  1
  O  O239  1  0.57268939  0.48472001  0.25373801  1
  O  O240  1  0.16131299  0.45743057  0.75662631  1
  O  O241  1  0.66557182  0.47984727  0.75542711  1
  O  O242  1  0.07467286  0.66325361  0.75463888  1
  O  O243  1  0.57244965  0.66527801  0.75474089  1
  O  O244  1  0.25834459  0.84292213  0.75287148  1
  O  O245  1  0.76045822  0.85085180  0.75354148  1
