# generated using pymatgen
data_Na4CaTiSi2SO12
_symmetry_space_group_name_H-M   'P 1'
_cell_length_a   9.44202702
_cell_length_b   9.36104629
_cell_length_c   22.44764971
_cell_angle_alpha   92.37874067
_cell_angle_beta   90.00000000
_cell_angle_gamma   120.28658181
_symmetry_Int_Tables_number   1
_chemical_formula_structural   Na4CaTiSi2SO12
_chemical_formula_sum   'Na24 Ca6 Ti6 Si12 S6 O72'
_cell_volume   1711.30526044
_cell_formula_units_Z   6
loop_
 _symmetry_equiv_pos_site_id
 _symmetry_equiv_pos_as_xyz
  1  'x, y, z'
loop_
 _atom_site_type_symbol
 _atom_site_label
 _atom_site_symmetry_multiplicity
 _atom_site_fract_x
 _atom_site_fract_y
 _atom_site_fract_z
 _atom_site_occupancy
  Na  Na0  1  0.65170746  0.02273420  0.25349979  1
  Na  Na1  1  0.36565135  0.35718660  0.24605406  1
  Na  Na2  1  0.99010529  0.62148482  0.24070184  1
  Na  Na3  1  0.63137953  0.62148482  0.74070184  1
  Na  Na4  1  0.99153524  0.35718660  0.74605406  1
  Na  Na5  1  0.37102674  0.02273420  0.75349979  1
  Na  Na6  1  0.31837446  0.35606720  0.58683279  1
  Na  Na7  1  0.03231835  0.69051960  0.57938706  1
  Na  Na8  1  0.65677229  0.95481782  0.57403484  1
  Na  Na9  1  0.29804653  0.95481782  0.07403484  1
  Na  Na10  1  0.65820224  0.69051960  0.07938706  1
  Na  Na11  1  0.03769374  0.35606720  0.08683279  1
  Na  Na12  1  0.98504046  0.68940120  0.92016679  1
  Na  Na13  1  0.69898435  0.02385360  0.91272106  1
  Na  Na14  1  0.32343829  0.28815182  0.90736884  1
  Na  Na15  1  0.96471253  0.28815182  0.40736884  1
  Na  Na16  1  0.32486824  0.02385360  0.41272106  1
  Na  Na17  1  0.70435974  0.68940120  0.42016679  1
  Na  Na18  1  0.98245988  0.98248121  0.49662952  1
  Na  Na19  1  0.00002134  0.98248121  0.99662952  1
  Na  Na20  1  0.64912688  0.31581421  0.82996252  1
  Na  Na21  1  0.66668834  0.31581421  0.32996252  1
  Na  Na22  1  0.31579288  0.64914821  0.16329652  1
  Na  Na23  1  0.33335434  0.64914821  0.66329652  1
  Ca  Ca24  1  0.99921696  0.00124260  0.34842908  1
  Ca  Ca25  1  0.00202565  0.00124260  0.84842908  1
  Ca  Ca26  1  0.66588396  0.33457560  0.68176208  1
  Ca  Ca27  1  0.66869265  0.33457560  0.18176208  1
  Ca  Ca28  1  0.33254996  0.66790960  0.01509608  1
  Ca  Ca29  1  0.33535865  0.66790960  0.51509608  1
  Ti  Ti30  1  0.97500075  0.01657774  0.64762953  1
  Ti  Ti31  1  0.04157699  0.01657774  0.14762953  1
  Ti  Ti32  1  0.64166775  0.34991074  0.98096253  1
  Ti  Ti33  1  0.70824399  0.34991074  0.48096253  1
  Ti  Ti34  1  0.30833375  0.68324474  0.31429653  1
  Ti  Ti35  1  0.37490999  0.68324474  0.81429653  1
  Si  Si36  1  0.30219141  0.99830795  0.25346875  1
  Si  Si37  1  0.01167846  0.30276142  0.25273756  1
  Si  Si38  1  0.29108296  0.30276142  0.75273756  1
  Si  Si39  1  0.69611655  0.99830795  0.75346875  1
  Si  Si40  1  0.96885841  0.33164095  0.58680175  1
  Si  Si41  1  0.67834546  0.63609442  0.58607056  1
  Si  Si42  1  0.95774996  0.63609442  0.08607056  1
  Si  Si43  1  0.36278355  0.33164095  0.08680175  1
  Si  Si44  1  0.63552441  0.66497495  0.92013575  1
  Si  Si45  1  0.34501146  0.96942842  0.91940456  1
  Si  Si46  1  0.62441596  0.96942842  0.41940456  1
  Si  Si47  1  0.02944955  0.66497495  0.42013575  1
  S  S48  1  0.69400151  0.70606972  0.24865803  1
  S  S49  1  0.01206821  0.70606972  0.74865803  1
  S  S50  1  0.36066851  0.03940272  0.58199103  1
  S  S51  1  0.67873521  0.03940272  0.08199103  1
  S  S52  1  0.02733451  0.37273672  0.91532503  1
  S  S53  1  0.34540121  0.37273672  0.41532503  1
  O  O54  1  0.22324847  0.02299721  0.31243533  1
  O  O55  1  0.78771241  0.78086266  0.30477003  1
  O  O56  1  0.97554407  0.19855179  0.31088704  1
  O  O57  1  0.22300772  0.19855179  0.81088704  1
  O  O58  1  0.99315025  0.78086266  0.80477003  1
  O  O59  1  0.79974875  0.02299721  0.81243533  1
  O  O60  1  0.79771904  0.97743754  0.69291108  1
  O  O61  1  0.15360250  0.18935865  0.69402714  1
  O  O62  1  0.02441052  0.80719697  0.69704205  1
  O  O63  1  0.78278645  0.80719697  0.19704205  1
  O  O64  1  0.03575615  0.18935865  0.19402714  1
  O  O65  1  0.17971850  0.97743754  0.19291108  1
  O  O66  1  0.88991547  0.35633021  0.64576833  1
  O  O67  1  0.45437941  0.11419566  0.63810303  1
  O  O68  1  0.64221107  0.53188479  0.64422004  1
  O  O69  1  0.88967472  0.53188479  0.14422004  1
  O  O70  1  0.65981725  0.11419566  0.13810303  1
  O  O71  1  0.46641575  0.35633021  0.14576833  1
  O  O72  1  0.46438604  0.31077054  0.02624408  1
  O  O73  1  0.82026950  0.52269165  0.02736014  1
  O  O74  1  0.69107752  0.14052997  0.03037505  1
  O  O75  1  0.44945345  0.14052997  0.53037505  1
  O  O76  1  0.70242315  0.52269165  0.52736014  1
  O  O77  1  0.84638550  0.31077054  0.52624408  1
  O  O78  1  0.55658147  0.68966421  0.97910233  1
  O  O79  1  0.12104541  0.44752966  0.97143703  1
  O  O80  1  0.30887707  0.86521879  0.97755404  1
  O  O81  1  0.55634072  0.86521879  0.47755404  1
  O  O82  1  0.32648325  0.44752966  0.47143703  1
  O  O83  1  0.13308175  0.68966421  0.47910233  1
  O  O84  1  0.13105204  0.64410454  0.35957808  1
  O  O85  1  0.48693550  0.85602565  0.36069414  1
  O  O86  1  0.35774352  0.47386397  0.36370905  1
  O  O87  1  0.11611945  0.47386397  0.86370905  1
  O  O88  1  0.36908915  0.85602565  0.86069414  1
  O  O89  1  0.51305150  0.64410454  0.85957808  1
  O  O90  1  0.99146558  0.81314129  0.41395942  1
  O  O91  1  0.80902644  0.00342646  0.41134380  1
  O  O92  1  0.20012499  0.20344736  0.41132141  1
  O  O93  1  0.00332237  0.20344736  0.91132141  1
  O  O94  1  0.19440001  0.00342646  0.91134380  1
  O  O95  1  0.82167571  0.81314129  0.91395942  1
  O  O96  1  0.96216494  0.14643253  0.58767896  1
  O  O97  1  0.19686349  0.02979702  0.58425999  1
  O  O98  1  0.85936944  0.81850427  0.59155558  1
  O  O99  1  0.95913482  0.81850427  0.09155558  1
  O  O100  1  0.83293353  0.02979702  0.08425999  1
  O  O101  1  0.18426759  0.14643253  0.08767896  1
  O  O102  1  0.65813258  0.14647429  0.74729242  1
  O  O103  1  0.47569344  0.33675946  0.74467680  1
  O  O104  1  0.86679199  0.53678036  0.74465441  1
  O  O105  1  0.66998937  0.53678036  0.24465441  1
  O  O106  1  0.86106701  0.33675946  0.24467680  1
  O  O107  1  0.48834271  0.14647429  0.24729242  1
  O  O108  1  0.62883194  0.47976553  0.92101196  1
  O  O109  1  0.86353049  0.36313002  0.91759299  1
  O  O110  1  0.52603644  0.15183727  0.92488858  1
  O  O111  1  0.62580182  0.15183727  0.42488858  1
  O  O112  1  0.49960053  0.36313002  0.41759299  1
  O  O113  1  0.85093459  0.47976553  0.42101196  1
  O  O114  1  0.32479858  0.47980829  0.08062642  1
  O  O115  1  0.14235944  0.67009346  0.07801080  1
  O  O116  1  0.53345799  0.87011436  0.07798841  1
  O  O117  1  0.33665537  0.87011436  0.57798841  1
  O  O118  1  0.52773301  0.67009346  0.57801080  1
  O  O119  1  0.15500871  0.47980829  0.58062642  1
  O  O120  1  0.29549794  0.81309953  0.25434596  1
  O  O121  1  0.53019649  0.69646402  0.25092699  1
  O  O122  1  0.19270244  0.48517127  0.25822258  1
  O  O123  1  0.29246782  0.48517127  0.75822258  1
  O  O124  1  0.16626653  0.69646402  0.75092699  1
  O  O125  1  0.51760059  0.81309953  0.75434596  1
