# generated using pymatgen
data_Li3BiO3
_symmetry_space_group_name_H-M   'P 1'
_cell_length_a   8.91808915
_cell_length_b   9.15708053
_cell_length_c   9.68247747
_cell_angle_alpha   114.41308398
_cell_angle_beta   107.43651220
_cell_angle_gamma   88.61805650
_symmetry_Int_Tables_number   1
_chemical_formula_structural   Li3BiO3
_chemical_formula_sum   'Li24 Bi8 O24'
_cell_volume   682.38276178
_cell_formula_units_Z   8
loop_
 _symmetry_equiv_pos_site_id
 _symmetry_equiv_pos_as_xyz
  1  'x, y, z'
loop_
 _atom_site_type_symbol
 _atom_site_label
 _atom_site_symmetry_multiplicity
 _atom_site_fract_x
 _atom_site_fract_y
 _atom_site_fract_z
 _atom_site_occupancy
  Li  Li0  1  0.65011857  0.10526458  0.34143611  1
  Li  Li1  1  0.34988143  0.89473542  0.65856389  1
  Li  Li2  1  0.47154128  0.27528063  0.94624026  1
  Li  Li3  1  0.52845872  0.72471937  0.05375974  1
  Li  Li4  1  0.31026277  0.15006281  0.59421648  1
  Li  Li5  1  0.68973723  0.84993719  0.40578352  1
  Li  Li6  1  0.10189909  0.91593542  0.50075377  1
  Li  Li7  1  0.89810091  0.08406458  0.49924623  1
  Li  Li8  1  0.32349080  0.53451173  0.15949279  1
  Li  Li9  1  0.67650920  0.46548827  0.84050721  1
  Li  Li10  1  0.52159968  0.27649256  0.55178068  1
  Li  Li11  1  0.47840032  0.72350744  0.44821932  1
  Li  Li12  1  0.16035904  0.62519440  0.35924567  1
  Li  Li13  1  0.83964096  0.37480560  0.64075433  1
  Li  Li14  1  0.49433374  0.12660093  0.10939430  1
  Li  Li15  1  0.50566626  0.87339907  0.89060570  1
  Li  Li16  1  0.92124606  0.50714162  0.08548488  1
  Li  Li17  1  0.07875394  0.49285838  0.91451512  1
  Li  Li18  1  0.57487314  0.42358247  0.37211019  1
  Li  Li19  1  0.42512686  0.57641753  0.62788981  1
  Li  Li20  1  0.07637702  0.33295306  0.56740871  1
  Li  Li21  1  0.92362298  0.66704694  0.43259129  1
  Li  Li22  1  0.65552322  0.56320099  0.21153290  1
  Li  Li23  1  0.34447678  0.43679901  0.78846710  1
  Bi  Bi24  1  0.16333898  0.74694100  0.80093182  1
  Bi  Bi25  1  0.83666102  0.25305900  0.19906818  1
  Bi  Bi26  1  0.28446503  0.86283769  0.22997591  1
  Bi  Bi27  1  0.75486615  0.70641383  0.69434148  1
  Bi  Bi28  1  0.24513385  0.29358617  0.30565852  1
  Bi  Bi29  1  0.14998328  0.16088389  0.86082135  1
  Bi  Bi30  1  0.85001672  0.83911611  0.13917865  1
  Bi  Bi31  1  0.71553497  0.13716231  0.77002409  1
  O  O32  1  0.30466425  0.91966280  0.46433746  1
  O  O33  1  0.03134578  0.52561179  0.72402839  1
  O  O34  1  0.96865422  0.47438821  0.27597161  1
  O  O35  1  0.52307301  0.27300974  0.76412067  1
  O  O36  1  0.69533575  0.08033720  0.53566254  1
  O  O37  1  0.47692699  0.72699026  0.23587933  1
  O  O38  1  0.11051207  0.13978070  0.63228348  1
  O  O39  1  0.88948793  0.86021930  0.36771652  1
  O  O40  1  0.85817756  0.24441296  0.41638334  1
  O  O41  1  0.14182244  0.75558704  0.58361666  1
  O  O42  1  0.12165289  0.65328099  0.14165388  1
  O  O43  1  0.87834711  0.34671901  0.85834612  1
  O  O44  1  0.53762368  0.79952138  0.68474036  1
  O  O45  1  0.46237632  0.20047862  0.31525964  1
  O  O46  1  0.72170706  0.61620263  0.05256883  1
  O  O47  1  0.27829294  0.38379737  0.94743117  1
  O  O48  1  0.63319340  0.94925370  0.11564209  1
  O  O49  1  0.36680660  0.05074630  0.88435791  1
  O  O50  1  0.35343716  0.51816236  0.36164838  1
  O  O51  1  0.64656284  0.48183764  0.63835162  1
  O  O52  1  0.61455930  0.33582571  0.15820892  1
  O  O53  1  0.38544070  0.66417429  0.84179108  1
  O  O54  1  0.28601280  0.33984228  0.54327482  1
  O  O55  1  0.71398720  0.66015772  0.45672518  1
