# generated using pymatgen
data_Ba3MgMn2O8
_symmetry_space_group_name_H-M   'P 1'
_cell_length_a   8.36320285
_cell_length_b   8.36342656
_cell_length_c   8.36320324
_cell_angle_alpha   40.75787930
_cell_angle_beta   40.75783308
_cell_angle_gamma   40.75787615
_symmetry_Int_Tables_number   1
_chemical_formula_structural   Ba3MgMn2O8
_chemical_formula_sum   'Ba3 Mg1 Mn2 O8'
_cell_volume   224.98319377
_cell_formula_units_Z   1
loop_
 _symmetry_equiv_pos_site_id
 _symmetry_equiv_pos_as_xyz
  1  'x, y, z'
loop_
 _atom_site_type_symbol
 _atom_site_label
 _atom_site_symmetry_multiplicity
 _atom_site_fract_x
 _atom_site_fract_y
 _atom_site_fract_z
 _atom_site_occupancy
  Ba  Ba0  1  0.79362600  0.79364700  0.79362600  1
  Ba  Ba1  1  0.20636600  0.20637600  0.20636600  1
  Ba  Ba2  1  0.99999000  0.00002400  0.99999000  1
  Mg  Mg3  1  0.49999100  0.50000300  0.49999100  1
  Mn  Mn4  1  0.60672800  0.60670200  0.60672800  1
  Mn  Mn5  1  0.39328100  0.39329400  0.39328100  1
  O  O6  1  0.68347100  0.68343800  0.68347100  1
  O  O7  1  0.31655100  0.31651900  0.31655100  1
  O  O8  1  0.28478300  0.74179200  0.28478300  1
  O  O9  1  0.74176700  0.28479800  0.28479100  1
  O  O10  1  0.28479100  0.28479800  0.74176700  1
  O  O11  1  0.71520200  0.71519700  0.25825100  1
  O  O12  1  0.25825100  0.71519700  0.71520200  1
  O  O13  1  0.71520500  0.25821600  0.71520500  1
