# generated using pymatgen
data_NaSc2Ti2P3(SO8)3
_symmetry_space_group_name_H-M   'P 1'
_cell_length_a   8.70907509
_cell_length_b   8.71706824
_cell_length_c   22.67419844
_cell_angle_alpha   90.29581047
_cell_angle_beta   89.99826246
_cell_angle_gamma   120.10501308
_symmetry_Int_Tables_number   1
_chemical_formula_structural   NaSc2Ti2P3(SO8)3
_chemical_formula_sum   'Na3 Sc6 Ti6 P9 S9 O72'
_cell_volume   1489.14446393
_cell_formula_units_Z   3
loop_
 _symmetry_equiv_pos_site_id
 _symmetry_equiv_pos_as_xyz
  1  'x, y, z'
loop_
 _atom_site_type_symbol
 _atom_site_label
 _atom_site_symmetry_multiplicity
 _atom_site_fract_x
 _atom_site_fract_y
 _atom_site_fract_z
 _atom_site_occupancy
  Na  Na0  1  0.67536758  0.33443350  0.83417681  1
  Na  Na1  1  0.66428541  0.33894797  0.33147645  1
  Na  Na2  1  0.34256300  0.67387151  0.16871036  1
  Sc  Sc3  1  0.67177252  0.33332259  0.68817006  1
  Sc  Sc4  1  0.65328299  0.32805361  0.18702695  1
  Sc  Sc5  1  0.66487704  0.32237729  0.98382525  1
  Sc  Sc6  1  0.66384553  0.33513444  0.48009519  1
  Sc  Sc7  1  0.33598963  0.66672403  0.31063063  1
  Sc  Sc8  1  0.32679087  0.66765761  0.80749813  1
  Ti  Ti9  1  0.01026469  0.99159990  0.35595776  1
  Ti  Ti10  1  0.99133835  0.00164405  0.85669434  1
  Ti  Ti11  1  0.99328469  0.98911305  0.64866078  1
  Ti  Ti12  1  0.99586395  0.99791142  0.14479408  1
  Ti  Ti13  1  0.33183442  0.65412853  0.02103411  1
  Ti  Ti14  1  0.32179831  0.65737742  0.51535942  1
  P  P15  1  0.28223046  0.99867550  0.24911361  1
  P  P16  1  0.72064840  0.71839681  0.25010989  1
  P  P17  1  0.99573010  0.71809851  0.75183612  1
  P  P18  1  0.71809108  0.00101655  0.75073943  1
  P  P19  1  0.66379397  0.03504522  0.08398629  1
  P  P20  1  0.36966846  0.32930164  0.08347667  1
  P  P21  1  0.04585298  0.37896373  0.91496501  1
  P  P22  1  0.32831810  0.37427554  0.41464750  1
  P  P23  1  0.04410908  0.66546668  0.41518437  1
  S  S24  1  0.99782995  0.28108412  0.25035930  1
  S  S25  1  0.28240485  0.27932405  0.75035004  1
  S  S26  1  0.96393907  0.33209762  0.58336445  1
  S  S27  1  0.36975882  0.03539974  0.58371030  1
  S  S28  1  0.66342401  0.62906718  0.58366767  1
  S  S29  1  0.96316460  0.62858434  0.08363773  1
  S  S30  1  0.62260631  0.66707699  0.91586951  1
  S  S31  1  0.32860868  0.95359512  0.91591416  1
  S  S32  1  0.62527454  0.95408568  0.41705048  1
  O  O33  1  0.19192692  0.02109140  0.30629126  1
  O  O34  1  0.83320831  0.81545871  0.30615540  1
  O  O35  1  0.97738859  0.17731143  0.30384445  1
  O  O36  1  0.20095139  0.17112653  0.80364806  1
  O  O37  1  0.97353407  0.81330044  0.80600054  1
  O  O38  1  0.83757900  0.03052942  0.80605875  1
  O  O39  1  0.81449150  0.98322785  0.69503506  1
  O  O40  1  0.17565690  0.19521384  0.69617762  1
  O  O41  1  0.01737094  0.83087411  0.69500535  1
  O  O42  1  0.81267204  0.83124847  0.19467152  1
  O  O43  1  0.01985275  0.19791091  0.19605263  1
  O  O44  1  0.16921002  0.98236979  0.19469844  1
  O  O45  1  0.88581135  0.36921436  0.63581271  1
  O  O46  1  0.48422223  0.11740474  0.63618165  1
  O  O47  1  0.63184601  0.51724913  0.63602809  1
  O  O48  1  0.88752822  0.51684898  0.13594576  1
  O  O49  1  0.62533331  0.11508620  0.13828435  1
  O  O50  1  0.48957197  0.37674572  0.13785645  1
  O  O51  1  0.45128675  0.29993234  0.02816770  1
  O  O52  1  0.85449916  0.55016110  0.03026073  1
  O  O53  1  0.70169434  0.15003489  0.02901374  1
  O  O54  1  0.44893281  0.14967383  0.53164638  1
  O  O55  1  0.70135623  0.55171295  0.53146869  1
  O  O56  1  0.85039775  0.29796329  0.53113909  1
  O  O57  1  0.54087335  0.69574846  0.96974779  1
  O  O58  1  0.16487824  0.47093574  0.97077928  1
  O  O59  1  0.30492876  0.84599066  0.96910340  1
  O  O60  1  0.53673443  0.84225660  0.47030494  1
  O  O61  1  0.30513168  0.47158784  0.47090085  1
  O  O62  1  0.16377626  0.69387485  0.47162117  1
  O  O63  1  0.12903680  0.63657717  0.36133561  1
  O  O64  1  0.51414433  0.87833704  0.36404365  1
  O  O65  1  0.36556154  0.49272390  0.36150824  1
  O  O66  1  0.13288831  0.49180983  0.86083321  1
  O  O67  1  0.36165855  0.87567967  0.86298534  1
  O  O68  1  0.51456268  0.63993154  0.86322457  1
  O  O69  1  0.03070490  0.83552438  0.40906734  1
  O  O70  1  0.79989157  0.97008297  0.41033640  1
  O  O71  1  0.15768694  0.19383020  0.40725176  1
  O  O72  1  0.03281748  0.19428463  0.90609920  1
  O  O73  1  0.16763503  0.96931516  0.90779697  1
  O  O74  1  0.80065466  0.83127470  0.90941732  1
  O  O75  1  0.98738764  0.17799994  0.59381433  1
  O  O76  1  0.19226542  0.01646222  0.59410643  1
  O  O77  1  0.82421304  0.80820639  0.59348358  1
  O  O78  1  0.98480792  0.80661078  0.09193669  1
  O  O79  1  0.82543198  0.01095641  0.09596822  1
  O  O80  1  0.18396951  0.17125655  0.09559212  1
  O  O81  1  0.70359564  0.16890413  0.74471583  1
  O  O82  1  0.45986639  0.29596383  0.74439372  1
  O  O83  1  0.82678352  0.53617671  0.74503387  1
  O  O84  1  0.70946964  0.53733068  0.24634590  1
  O  O85  1  0.83896874  0.30034677  0.24530954  1
  O  O86  1  0.46575488  0.16772376  0.24743379  1
  O  O87  1  0.64775143  0.51308087  0.92314905  1
  O  O88  1  0.85976049  0.35252789  0.92324327  1
  O  O89  1  0.48545316  0.13504329  0.92189474  1
  O  O90  1  0.64508611  0.13228864  0.42555933  1
  O  O91  1  0.48806849  0.34893681  0.42576954  1
  O  O92  1  0.85972535  0.50492632  0.42541289  1
  O  O93  1  0.34659842  0.49679085  0.07246348  1
  O  O94  1  0.14529117  0.65216270  0.07486389  1
  O  O95  1  0.49911017  0.84681360  0.07128204  1
  O  O96  1  0.35058406  0.85867302  0.57307897  1
  O  O97  1  0.50925956  0.65254180  0.57306151  1
  O  O98  1  0.14210338  0.49284510  0.57326519  1
  O  O99  1  0.29595498  0.83070247  0.25313494  1
  O  O100  1  0.53696986  0.70256078  0.25347896  1
  O  O101  1  0.16032399  0.45915850  0.25327161  1
  O  O102  1  0.29975864  0.45479731  0.75553875  1
  O  O103  1  0.16241327  0.70505809  0.75566843  1
  O  O104  1  0.54143963  0.83317908  0.75716810  1
