# generated using pymatgen
data_Na3LaMgP2SO12
_symmetry_space_group_name_H-M   'P 1'
_cell_length_a   9.40902142
_cell_length_b   9.36070863
_cell_length_c   23.37457079
_cell_angle_alpha   88.58258842
_cell_angle_beta   90.00000000
_cell_angle_gamma   120.17087957
_symmetry_Int_Tables_number   1
_chemical_formula_structural   Na3LaMgP2SO12
_chemical_formula_sum   'Na18 La6 Mg6 P12 S6 O72'
_cell_volume   1779.09538338
_cell_formula_units_Z   6
loop_
 _symmetry_equiv_pos_site_id
 _symmetry_equiv_pos_as_xyz
  1  'x, y, z'
loop_
 _atom_site_type_symbol
 _atom_site_label
 _atom_site_symmetry_multiplicity
 _atom_site_fract_x
 _atom_site_fract_y
 _atom_site_fract_z
 _atom_site_occupancy
  Na  Na0  1  0.35327822  0.34896244  0.24492581  1
  Na  Na1  1  0.99934799  0.62626142  0.24353367  1
  Na  Na2  1  0.62691343  0.62626142  0.74353367  1
  Na  Na3  1  0.99568423  0.34896244  0.74492581  1
  Na  Na4  1  0.01994522  0.68229544  0.57825881  1
  Na  Na5  1  0.66601499  0.95959442  0.57686667  1
  Na  Na6  1  0.29358043  0.95959442  0.07686667  1
  Na  Na7  1  0.66235123  0.68229544  0.07825881  1
  Na  Na8  1  0.68661122  0.01562944  0.91159281  1
  Na  Na9  1  0.33268099  0.29292842  0.91020067  1
  Na  Na10  1  0.96024643  0.29292842  0.41020067  1
  Na  Na11  1  0.32901723  0.01562944  0.41159281  1
  Na  Na12  1  0.97264185  0.97846066  0.48979631  1
  Na  Na13  1  0.00581881  0.97846066  0.98979631  1
  Na  Na14  1  0.63930885  0.31179366  0.82312931  1
  Na  Na15  1  0.67248581  0.31179366  0.32312931  1
  Na  Na16  1  0.30597485  0.64512766  0.15646331  1
  Na  Na17  1  0.33915181  0.64512766  0.65646331  1
  La  La18  1  0.01540979  0.01921585  0.65172863  1
  La  La19  1  0.00380606  0.01921585  0.15172863  1
  La  La20  1  0.68207679  0.35254885  0.98506163  1
  La  La21  1  0.67047306  0.35254885  0.48506163  1
  La  La22  1  0.34874279  0.68588285  0.31839563  1
  La  La23  1  0.33713906  0.68588285  0.81839563  1
  Mg  Mg24  1  0.98635868  0.99237678  0.34806438  1
  Mg  Mg25  1  0.00601810  0.99237678  0.84806438  1
  Mg  Mg26  1  0.65302568  0.32570978  0.68139738  1
  Mg  Mg27  1  0.67268510  0.32570978  0.18139738  1
  Mg  Mg28  1  0.31969168  0.65904378  0.01473138  1
  Mg  Mg29  1  0.33935110  0.65904378  0.51473138  1
  P  P30  1  0.30715803  0.01854199  0.25093190  1
  P  P31  1  0.98961947  0.30176563  0.25631741  1
  P  P32  1  0.31214615  0.30176563  0.75631741  1
  P  P33  1  0.71138395  0.01854199  0.75093190  1
  P  P34  1  0.97382503  0.35187499  0.58426490  1
  P  P35  1  0.65628647  0.63509863  0.58965041  1
  P  P36  1  0.97881315  0.63509863  0.08965041  1
  P  P37  1  0.37805095  0.35187499  0.08426490  1
  P  P38  1  0.64049103  0.68520899  0.91759890  1
  P  P39  1  0.32295247  0.96843263  0.92298441  1
  P  P40  1  0.64547915  0.96843263  0.42298441  1
  P  P41  1  0.04471695  0.68520899  0.41759890  1
  S  S42  1  0.70591370  0.68650714  0.25003038  1
  S  S43  1  0.98059344  0.68650714  0.75003038  1
  S  S44  1  0.37258070  0.01984014  0.58336338  1
  S  S45  1  0.64726044  0.01984014  0.08336338  1
  S  S46  1  0.03924670  0.35317414  0.91669738  1
  S  S47  1  0.31392644  0.35317414  0.41669738  1
  O  O48  1  0.21205083  0.03081817  0.30325782  1
  O  O49  1  0.80915353  0.78788367  0.29711493  1
  O  O50  1  0.97656720  0.19824169  0.31068071  1
  O  O51  1  0.22167449  0.19824169  0.81068071  1
  O  O52  1  0.97873013  0.78788367  0.79711493  1
  O  O53  1  0.81876734  0.03081817  0.80325782  1
  O  O54  1  0.78905298  0.99477622  0.69600475  1
  O  O55  1  0.20826888  0.22247548  0.70298796  1
  O  O56  1  0.00648591  0.77421330  0.69420916  1
  O  O57  1  0.76772740  0.77421330  0.19420916  1
  O  O58  1  0.01420660  0.22247548  0.20298796  1
  O  O59  1  0.20572325  0.99477622  0.19600475  1
  O  O60  1  0.87871783  0.36415117  0.63659082  1
  O  O61  1  0.47582053  0.12121667  0.63044793  1
  O  O62  1  0.64323420  0.53157469  0.64401371  1
  O  O63  1  0.88834149  0.53157469  0.14401371  1
  O  O64  1  0.64539713  0.12121667  0.13044793  1
  O  O65  1  0.48543434  0.36415117  0.13659082  1
  O  O66  1  0.45571998  0.32810922  0.02933775  1
  O  O67  1  0.87493588  0.55580848  0.03632096  1
  O  O68  1  0.67315291  0.10754630  0.02754216  1
  O  O69  1  0.43439440  0.10754630  0.52754216  1
  O  O70  1  0.68087360  0.55580848  0.53632096  1
  O  O71  1  0.87239025  0.32810922  0.52933775  1
  O  O72  1  0.54538383  0.69748517  0.96992482  1
  O  O73  1  0.14248653  0.45455067  0.96378193  1
  O  O74  1  0.30990020  0.86490869  0.97734771  1
  O  O75  1  0.55500749  0.86490869  0.47734771  1
  O  O76  1  0.31206313  0.45455067  0.46378193  1
  O  O77  1  0.15210034  0.69748517  0.46992482  1
  O  O78  1  0.12238598  0.66144322  0.36267175  1
  O  O79  1  0.54160188  0.88914248  0.36965496  1
  O  O80  1  0.33981891  0.44088030  0.36087616  1
  O  O81  1  0.10106040  0.44088030  0.86087616  1
  O  O82  1  0.34753960  0.88914248  0.86965496  1
  O  O83  1  0.53905625  0.66144322  0.86267175  1
  O  O84  1  0.03608689  0.84677596  0.41161703  1
  O  O85  1  0.82012398  0.99242840  0.41614542  1
  O  O86  1  0.15517693  0.19303932  0.41709539  1
  O  O87  1  0.03786240  0.19303932  0.91709539  1
  O  O88  1  0.17230443  0.99242840  0.91614542  1
  O  O89  1  0.81068907  0.84677596  0.91161703  1
  O  O90  1  0.99193479  0.19575488  0.58726357  1
  O  O91  1  0.19799643  0.97997150  0.58853606  1
  O  O92  1  0.81596547  0.81152949  0.58975873  1
  O  O93  1  0.99556401  0.81152949  0.08975873  1
  O  O94  1  0.78197507  0.97997150  0.08853606  1
  O  O95  1  0.20382009  0.19575488  0.08726357  1
  O  O96  1  0.70275389  0.18010896  0.74495003  1
  O  O97  1  0.48679098  0.32576140  0.74947842  1
  O  O98  1  0.82184393  0.52637232  0.75042839  1
  O  O99  1  0.70452940  0.52637232  0.25042839  1
  O  O100  1  0.83897143  0.32576140  0.24947842  1
  O  O101  1  0.47735607  0.18010896  0.24495003  1
  O  O102  1  0.65860179  0.52908788  0.92059657  1
  O  O103  1  0.86466343  0.31330450  0.92186906  1
  O  O104  1  0.48263247  0.14486249  0.92309173  1
  O  O105  1  0.66223101  0.14486249  0.42309173  1
  O  O106  1  0.44864207  0.31330450  0.42186906  1
  O  O107  1  0.87048709  0.52908788  0.42059657  1
  O  O108  1  0.36941989  0.51344296  0.07828403  1
  O  O109  1  0.15345698  0.65909540  0.08281242  1
  O  O110  1  0.48850993  0.85970632  0.08376239  1
  O  O111  1  0.37119540  0.85970632  0.58376239  1
  O  O112  1  0.50563743  0.65909540  0.58281242  1
  O  O113  1  0.14402207  0.51344296  0.57828403  1
  O  O114  1  0.32526779  0.86242188  0.25393057  1
  O  O115  1  0.53132943  0.64663850  0.25520306  1
  O  O116  1  0.14929847  0.47819649  0.25642573  1
  O  O117  1  0.32889701  0.47819649  0.75642573  1
  O  O118  1  0.11530807  0.64663850  0.75520306  1
  O  O119  1  0.53715309  0.86242188  0.75393057  1
