# generated using pymatgen
data_InGeP(SO6)2
_symmetry_space_group_name_H-M   'P 1'
_cell_length_a   8.62721484
_cell_length_b   8.66447147
_cell_length_c   22.01067628
_cell_angle_alpha   89.34645424
_cell_angle_beta   90.00000000
_cell_angle_gamma   119.85786107
_symmetry_Int_Tables_number   1
_chemical_formula_structural   InGeP(SO6)2
_chemical_formula_sum   'In6 Ge6 P6 S12 O72'
_cell_volume   1426.78783144
_cell_formula_units_Z   6
loop_
 _symmetry_equiv_pos_site_id
 _symmetry_equiv_pos_as_xyz
  1  'x, y, z'
loop_
 _atom_site_type_symbol
 _atom_site_label
 _atom_site_symmetry_multiplicity
 _atom_site_fract_x
 _atom_site_fract_y
 _atom_site_fract_z
 _atom_site_occupancy
  In  In0  1  0.00865612  0.00450377  0.36086700  1
  In  In1  1  0.99584765  0.00450377  0.86086700  1
  In  In2  1  0.67222832  0.33814769  0.69494243  1
  In  In3  1  0.66592038  0.33814769  0.19494243  1
  In  In4  1  0.32798159  0.65470862  0.02751795  1
  In  In5  1  0.32672603  0.65470862  0.52751795  1
  Ge  Ge6  1  0.00004428  0.99852669  0.64489521  1
  Ge  Ge7  1  0.99848241  0.99852669  0.14489521  1
  Ge  Ge8  1  0.65936482  0.32974047  0.97891086  1
  Ge  Ge9  1  0.67037665  0.32974047  0.47891086  1
  Ge  Ge10  1  0.35252693  0.66293287  0.31182381  1
  Ge  Ge11  1  0.31040494  0.66293287  0.81182381  1
  P  P12  1  0.71303225  0.73390632  0.25052776  1
  P  P13  1  0.02087407  0.73390632  0.75052776  1
  P  P14  1  0.93625948  0.30178579  0.58427800  1
  P  P15  1  0.36552731  0.30178579  0.08427800  1
  P  P16  1  0.02645955  0.39027790  0.91688760  1
  P  P17  1  0.36381735  0.39027790  0.41688760  1
  S  S18  1  0.28282335  0.96913284  0.25059995  1
  S  S19  1  0.03096126  0.30464703  0.24919578  1
  S  S20  1  0.27368576  0.30464703  0.74919578  1
  S  S21  1  0.68630949  0.96913284  0.75059995  1
  S  S22  1  0.36688563  0.05728009  0.58339632  1
  S  S23  1  0.69258588  0.63493356  0.58255666  1
  S  S24  1  0.94234868  0.63493356  0.08255666  1
  S  S25  1  0.69039546  0.05728009  0.08339632  1
  S  S26  1  0.60370244  0.63965507  0.91674904  1
  S  S27  1  0.35783064  0.96716317  0.91703058  1
  S  S28  1  0.60933154  0.96716317  0.41703058  1
  S  S29  1  0.03595163  0.63965507  0.41674904  1
  O  O30  1  0.21906310  0.02294051  0.30339302  1
  O  O31  1  0.82261396  0.80992094  0.30687456  1
  O  O32  1  0.99040300  0.19953673  0.30517112  1
  O  O33  1  0.20913373  0.19953673  0.80517112  1
  O  O34  1  0.98730698  0.80992094  0.80687456  1
  O  O35  1  0.80387741  0.02294051  0.80339302  1
  O  O36  1  0.77353476  0.94889089  0.69469662  1
  O  O37  1  0.15939175  0.21693101  0.69470997  1
  O  O38  1  0.05378213  0.85655895  0.69240413  1
  O  O39  1  0.80277682  0.85655895  0.19240413  1
  O  O40  1  0.05753926  0.21693101  0.19470997  1
  O  O41  1  0.17535613  0.94889089  0.19469662  1
  O  O42  1  0.86127884  0.33700096  0.64075453  1
  O  O43  1  0.47063907  0.12841390  0.63854622  1
  O  O44  1  0.63432585  0.51797845  0.63600579  1
  O  O45  1  0.88365360  0.51797845  0.13600579  1
  O  O46  1  0.65777583  0.12841390  0.13854622  1
  O  O47  1  0.47572312  0.33700096  0.14075453  1
  O  O48  1  0.45770717  0.27467543  0.02616051  1
  O  O49  1  0.83171269  0.54704381  0.02759954  1
  O  O50  1  0.71643938  0.17047852  0.02741859  1
  O  O51  1  0.45404013  0.17047852  0.52741859  1
  O  O52  1  0.71533212  0.54704381  0.52759954  1
  O  O53  1  0.81696926  0.27467543  0.52616051  1
  O  O54  1  0.54613642  0.69007447  0.97191859  1
  O  O55  1  0.14757255  0.46299930  0.97088361  1
  O  O56  1  0.32740023  0.86129837  0.97203463  1
  O  O57  1  0.53389713  0.86129837  0.47203463  1
  O  O58  1  0.31542575  0.46299930  0.47088361  1
  O  O59  1  0.14393705  0.69007447  0.47191859  1
  O  O60  1  0.12850446  0.61807424  0.36272815  1
  O  O61  1  0.50006718  0.88098490  0.36117523  1
  O  O62  1  0.39487162  0.50923439  0.35760607  1
  O  O63  1  0.11436177  0.50923439  0.85760607  1
  O  O64  1  0.38091672  0.88098490  0.86117523  1
  O  O65  1  0.48956878  0.61807424  0.86272815  1
  O  O66  1  0.98111774  0.77294359  0.40716916  1
  O  O67  1  0.79423778  0.00642370  0.41063614  1
  O  O68  1  0.22000425  0.19795885  0.40724589  1
  O  O69  1  0.97795461  0.19795885  0.90724589  1
  O  O70  1  0.21218592  0.00642370  0.91063614  1
  O  O71  1  0.79182585  0.77294359  0.90716916  1
  O  O72  1  0.93326915  0.11885292  0.59176503  1
  O  O73  1  0.19485759  0.06176099  0.58800970  1
  O  O74  1  0.87416195  0.79478839  0.59136783  1
  O  O75  1  0.92062644  0.79478839  0.09136783  1
  O  O76  1  0.86690340  0.06176099  0.08800970  1
  O  O77  1  0.18558377  0.11885292  0.09176503  1
  O  O78  1  0.62471043  0.09837081  0.74241644  1
  O  O79  1  0.45852263  0.34600016  0.73995944  1
  O  O80  1  0.86934370  0.54536139  0.74235718  1
  O  O81  1  0.67601869  0.54536139  0.24235718  1
  O  O82  1  0.88747853  0.34600016  0.23995944  1
  O  O83  1  0.47366139  0.09837081  0.24241644  1
  O  O84  1  0.58735960  0.45912755  0.92439890  1
  O  O85  1  0.85098607  0.39941015  0.92672089  1
  O  O86  1  0.53390688  0.13842585  0.92097846  1
  O  O87  1  0.60451997  0.13842585  0.42097846  1
  O  O88  1  0.54842508  0.39941015  0.42672089  1
  O  O89  1  0.87176894  0.45912755  0.42439890  1
  O  O90  1  0.32398421  0.45153784  0.07658205  1
  O  O91  1  0.13295224  0.69690967  0.07289122  1
  O  O92  1  0.54457740  0.87477054  0.07537299  1
  O  O93  1  0.33019215  0.87477054  0.57537299  1
  O  O94  1  0.56395643  0.69690967  0.57289122  1
  O  O95  1  0.12755263  0.45153784  0.57658205  1
  O  O96  1  0.26066832  0.78651784  0.26099125  1
  O  O97  1  0.53214428  0.73581134  0.25603839  1
  O  O98  1  0.20615801  0.47465078  0.25483921  1
  O  O99  1  0.26849178  0.47465078  0.75483921  1
  O  O100  1  0.20366606  0.73581134  0.75603839  1
  O  O101  1  0.52584852  0.78651784  0.76099125  1
