# generated using pymatgen
data_Na4ZnSn3(PO4)6
_symmetry_space_group_name_H-M   'P 1'
_cell_length_a   8.85751012
_cell_length_b   8.86978858
_cell_length_c   22.62089853
_cell_angle_alpha   90.02963766
_cell_angle_beta   89.97914712
_cell_angle_gamma   120.00735089
_symmetry_Int_Tables_number   1
_chemical_formula_structural   Na4ZnSn3(PO4)6
_chemical_formula_sum   'Na12 Zn3 Sn9 P18 O72'
_cell_volume   1538.98070003
_cell_formula_units_Z   3
loop_
 _symmetry_equiv_pos_site_id
 _symmetry_equiv_pos_as_xyz
  1  'x, y, z'
loop_
 _atom_site_type_symbol
 _atom_site_label
 _atom_site_symmetry_multiplicity
 _atom_site_fract_x
 _atom_site_fract_y
 _atom_site_fract_z
 _atom_site_occupancy
  Na  Na0  1  0.64068730  0.01144276  0.24559188  1
  Na  Na1  1  0.37102460  0.35873754  0.24531974  1
  Na  Na2  1  0.98787262  0.62809628  0.24512987  1
  Na  Na3  1  0.98721492  0.36292519  0.74266848  1
  Na  Na4  1  0.37532251  0.00958248  0.74297234  1
  Na  Na5  1  0.70749435  0.67687523  0.41493657  1
  Na  Na6  1  0.01226415  0.01318126  0.49576797  1
  Na  Na7  1  0.99982035  0.99987017  0.00206629  1
  Na  Na8  1  0.66548540  0.34565989  0.83112293  1
  Na  Na9  1  0.66559417  0.32209790  0.33252936  1
  Na  Na10  1  0.33308448  0.66659853  0.16129871  1
  Na  Na11  1  0.34533033  0.66544064  0.66175766  1
  Zn  Zn12  1  0.00731194  0.00824987  0.35295986  1
  Zn  Zn13  1  0.66578729  0.34071377  0.67932112  1
  Zn  Zn14  1  0.66658524  0.33303146  0.17714816  1
  Sn  Sn15  1  0.99901269  0.99802160  0.85445160  1
  Sn  Sn16  1  0.99725609  0.99688329  0.64529870  1
  Sn  Sn17  1  0.00048087  0.00029935  0.14701094  1
  Sn  Sn18  1  0.66699922  0.33295173  0.98333037  1
  Sn  Sn19  1  0.66616274  0.32897547  0.48435653  1
  Sn  Sn20  1  0.33341269  0.66655315  0.01934594  1
  Sn  Sn21  1  0.33081401  0.66627614  0.52008521  1
  Sn  Sn22  1  0.33116435  0.66659113  0.31844696  1
  Sn  Sn23  1  0.33721981  0.66586048  0.81696549  1
  P  P24  1  0.29162872  -0.00097627  0.25154391  1
  P  P25  1  0.70643607  0.70761776  0.25297282  1
  P  P26  1  0.00012780  0.29186841  0.25165347  1
  P  P27  1  0.29159069  0.29218540  0.75080848  1
  P  P28  1  0.99846172  0.70723054  0.75146121  1
  P  P29  1  0.70710843  0.99670472  0.75073578  1
  P  P30  1  0.96185108  0.33282026  0.58606432  1
  P  P31  1  0.37180466  0.03784947  0.58601675  1
  P  P32  1  0.66599693  0.62764913  0.58305843  1
  P  P33  1  0.96198327  0.62916760  0.08477043  1
  P  P34  1  0.66688805  0.03774242  0.08478348  1
  P  P35  1  0.37096762  0.33310478  0.08471113  1
  P  P36  1  0.62773185  0.66483009  0.91773674  1
  P  P37  1  0.03758937  0.37224297  0.91643146  1
  P  P38  1  0.33533150  0.96249050  0.91655282  1
  P  P39  1  0.62788451  0.96397391  0.41701817  1
  P  P40  1  0.33267080  0.36996606  0.41798042  1
  P  P41  1  0.03631214  0.66547383  0.41753355  1
  O  O42  1  0.20988514  0.03064253  0.30525432  1
  O  O43  1  0.81296097  0.78503503  0.30887351  1
  O  O44  1  0.96636620  0.17737435  0.30522955  1
  O  O45  1  0.20841300  0.17678798  0.80657735  1
  O  O46  1  0.97303778  0.79020163  0.80782827  1
  O  O47  1  0.82251838  0.02954533  0.80623062  1
  O  O48  1  0.78773518  0.96293837  0.69544650  1
  O  O49  1  0.16837805  0.21133775  0.69666897  1
  O  O50  1  0.04233277  0.82973545  0.69729476  1
  O  O51  1  0.78651704  0.82915778  0.19772373  1
  O  O52  1  0.04470769  0.21789374  0.19528775  1
  O  O53  1  0.17346933  0.95561206  0.19514093  1
  O  O54  1  0.88622200  0.35742707  0.64330882  1
  O  O55  1  0.47304185  0.11224387  0.64317152  1
  O  O56  1  0.63792742  0.51816264  0.63737829  1
  O  O57  1  0.88830872  0.52918731  0.14223795  1
  O  O58  1  0.64071042  0.11170510  0.14216735  1
  O  O59  1  0.47123580  0.35960358  0.14216448  1
  O  O60  1  0.45601368  0.30499618  0.02898445  1
  O  O61  1  0.84908720  0.54422220  0.02903252  1
  O  O62  1  0.69570697  0.15076427  0.02898805  1
  O  O63  1  0.45522070  0.15085096  0.53004000  1
  O  O64  1  0.69398054  0.55093383  0.52431781  1
  O  O65  1  0.84955716  0.30499496  0.53007338  1
  O  O66  1  0.54315207  0.69612000  0.97191817  1
  O  O67  1  0.15598080  0.46010489  0.96983214  1
  O  O68  1  0.30497964  0.84422109  0.96990062  1
  O  O69  1  0.53460206  0.84042750  0.46949964  1
  O  O70  1  0.31085599  0.46473173  0.47136621  1
  O  O71  1  0.15316399  0.68968194  0.47085790  1
  O  O72  1  0.11034529  0.63119047  0.35894320  1
  O  O73  1  0.51875295  0.88857791  0.35833618  1
  O  O74  1  0.37481887  0.48661827  0.36023594  1
  O  O75  1  0.11420812  0.47838709  0.85808246  1
  O  O76  1  0.36413311  0.88560891  0.85813036  1
  O  O77  1  0.51776693  0.63289577  0.86069013  1
  O  O78  1  0.01134913  0.82248011  0.41369838  1
  O  O79  1  0.80445172  0.97560008  0.41287358  1
  O  O80  1  0.17412385  0.19185008  0.41325776  1
  O  O81  1  0.02064061  0.18985200  0.91221536  1
  O  O82  1  0.16968697  0.97956719  0.91264633  1
  O  O83  1  0.80984940  0.83063787  0.91289304  1
  O  O84  1  0.98175513  0.16768242  0.58725287  1
  O  O85  1  0.18684942  0.01864372  0.58763584  1
  O  O86  1  0.83251963  0.81168571  0.58616284  1
  O  O87  1  0.98102138  0.81382668  0.08696922  1
  O  O88  1  0.83243087  0.01809067  0.08705426  1
  O  O89  1  0.18605267  0.16745126  0.08679080  1
  O  O90  1  0.68595288  0.15760238  0.74650573  1
  O  O91  1  0.47020416  0.30913272  0.74516253  1
  O  O92  1  0.84408074  0.52362767  0.74598576  1
  O  O93  1  0.68067925  0.52420209  0.24452368  1
  O  O94  1  0.84344852  0.31991826  0.24384675  1
  O  O95  1  0.47635003  0.15601762  0.24392824  1
  O  O96  1  0.64613933  0.50090499  0.92281219  1
  O  O97  1  0.85573667  0.35530838  0.92202486  1
  O  O98  1  0.49998475  0.14442714  0.92206522  1
  O  O99  1  0.63951764  0.14377069  0.42280211  1
  O  O100  1  0.50789162  0.36651244  0.42289743  1
  O  O101  1  0.85232942  0.49702119  0.42248752  1
  O  O102  1  0.35143299  0.49761545  0.07755010  1
  O  O103  1  0.14623744  0.64858733  0.07747766  1
  O  O104  1  0.50183355  0.85407455  0.07756476  1
  O  O105  1  0.35199982  0.85406134  0.57862824  1
  O  O106  1  0.50296744  0.65028355  0.57743202  1
  O  O107  1  0.14581895  0.49747689  0.57911930  1
  O  O108  1  0.30639386  0.82781080  0.25538625  1
  O  O109  1  0.51979356  0.69213528  0.25558207  1
  O  O110  1  0.17160262  0.47776654  0.25594519  1
  O  O111  1  0.29783235  0.47180854  0.75645917  1
  O  O112  1  0.17203991  0.69634106  0.75627709  1
  O  O113  1  0.52107360  0.83141587  0.75582298  1
