# generated using pymatgen
data_Na8Ca3HfSi3(SO8)3
_symmetry_space_group_name_H-M   'P 1'
_cell_length_a   9.47513220
_cell_length_b   9.47652597
_cell_length_c   23.14068405
_cell_angle_alpha   90.06901247
_cell_angle_beta   89.86464295
_cell_angle_gamma   119.85478343
_symmetry_Int_Tables_number   1
_chemical_formula_structural   Na8Ca3HfSi3(SO8)3
_chemical_formula_sum   'Na24 Ca9 Hf3 Si9 S9 O72'
_cell_volume   1802.07844436
_cell_formula_units_Z   3
loop_
 _symmetry_equiv_pos_site_id
 _symmetry_equiv_pos_as_xyz
  1  'x, y, z'
loop_
 _atom_site_type_symbol
 _atom_site_label
 _atom_site_symmetry_multiplicity
 _atom_site_fract_x
 _atom_site_fract_y
 _atom_site_fract_z
 _atom_site_occupancy
  Na  Na0  1  0.62919979  0.99564266  0.26315620  1
  Na  Na1  1  0.37078402  0.36774736  0.24050109  1
  Na  Na2  1  0.00065761  0.62612698  0.25283060  1
  Na  Na3  1  0.64249424  0.65613310  0.73040342  1
  Na  Na4  1  0.97343067  0.33357627  0.75331490  1
  Na  Na5  1  0.38606213  0.01245489  0.73692090  1
  Na  Na6  1  0.32380687  0.33583586  0.58277799  1
  Na  Na7  1  0.04606225  0.72241671  0.56891521  1
  Na  Na8  1  0.64746818  0.94089705  0.58129744  1
  Na  Na9  1  0.27863846  0.95337226  0.07119167  1
  Na  Na10  1  0.66215811  0.67506759  0.08431158  1
  Na  Na11  1  0.06080456  0.35678155  0.07520277  1
  Na  Na12  1  0.99875346  0.67896998  0.92350533  1
  Na  Na13  1  0.71196876  0.04765386  0.90458779  1
  Na  Na14  1  0.30280490  0.28252356  0.92391433  1
  Na  Na15  1  0.96152544  0.30695710  0.41599204  1
  Na  Na16  1  0.32544010  0.99596672  0.42669951  1
  Na  Na17  1  0.71269194  0.69461134  0.43010191  1
  Na  Na18  1  0.98904660  0.97492489  0.50140443  1
  Na  Na19  1  0.02702033  0.01399477  0.00011790  1
  Na  Na20  1  0.66757020  0.30579110  0.83312447  1
  Na  Na21  1  0.68237838  0.33239146  0.34492307  1
  Na  Na22  1  0.31347046  0.64776748  0.15493123  1
  Na  Na23  1  0.36375689  0.69421741  0.65352425  1
  Ca  Ca24  1  0.99739609  0.99491383  0.35189587  1
  Ca  Ca25  1  0.99859004  0.00463419  0.84880747  1
  Ca  Ca26  1  0.98584480  0.98788906  0.64714364  1
  Ca  Ca27  1  0.00663612  0.99908638  0.14373927  1
  Ca  Ca28  1  0.66177094  0.32810307  0.67971087  1
  Ca  Ca29  1  0.66857641  0.33886561  0.17893575  1
  Ca  Ca30  1  0.32570970  0.66426365  0.01509231  1
  Ca  Ca31  1  0.34050268  0.67801587  0.51333336  1
  Ca  Ca32  1  0.33023358  0.67702189  0.32855860  1
  Hf  Hf33  1  0.66779958  0.33544642  0.98317491  1
  Hf  Hf34  1  0.66210572  0.33194462  0.48631562  1
  Hf  Hf35  1  0.33163510  0.67853684  0.82159303  1
  Si  Si36  1  0.68702213  0.99252657  0.75385735  1
  Si  Si37  1  0.36264684  0.03324829  0.58512293  1
  Si  Si38  1  0.66389115  0.62968927  0.58541034  1
  Si  Si39  1  0.96427115  0.63153109  0.08422079  1
  Si  Si40  1  0.37088073  0.33623706  0.08431550  1
  Si  Si41  1  0.03020651  0.36857233  0.91805472  1
  Si  Si42  1  0.33982852  0.97528725  0.92042875  1
  Si  Si43  1  0.64424155  0.98344694  0.41569687  1
  Si  Si44  1  0.01664625  0.65639810  0.41655087  1
  S  S45  1  0.30300577  0.99845497  0.24941844  1
  S  S46  1  0.69455619  0.69783551  0.24953886  1
  S  S47  1  0.00242642  0.30069070  0.24907680  1
  S  S48  1  0.30294553  0.31237576  0.75285222  1
  S  S49  1  0.00917366  0.69785269  0.75377348  1
  S  S50  1  0.96164479  0.33356425  0.58247584  1
  S  S51  1  0.66872532  0.04232148  0.08209157  1
  S  S52  1  0.62445987  0.65755701  0.91672147  1
  S  S53  1  0.34107199  0.36446318  0.41657644  1
  O  O54  1  0.22372970  0.01758408  0.30154566  1
  O  O55  1  0.79270374  0.78371104  0.30078988  1
  O  O56  1  0.99334030  0.20707522  0.30139716  1
  O  O57  1  0.22482032  0.20946789  0.80401048  1
  O  O58  1  0.98678528  0.77336452  0.80576315  1
  O  O59  1  0.79149111  0.01301560  0.81180809  1
  O  O60  1  0.76424303  0.95666930  0.69615688  1
  O  O61  1  0.20413238  0.23870665  0.70034719  1
  O  O62  1  0.03704998  0.79912828  0.70194840  1
  O  O63  1  0.77243722  0.79305269  0.19642595  1
  O  O64  1  0.01153976  0.21640614  0.19641622  1
  O  O65  1  0.20695726  0.98615512  0.19732077  1
  O  O66  1  0.89288237  0.35635175  0.63649529  1
  O  O67  1  0.46169553  0.11009854  0.64470639  1
  O  O68  1  0.65645473  0.54075516  0.64621116  1
  O  O69  1  0.88853620  0.53161161  0.14368509  1
  O  O70  1  0.64569869  0.11171352  0.13567013  1
  O  O71  1  0.46063386  0.34630833  0.14516243  1
  O  O72  1  0.48173657  0.32220467  0.02827170  1
  O  O73  1  0.84396612  0.51798544  0.02775730  1
  O  O74  1  0.68201336  0.14873259  0.03081633  1
  O  O75  1  0.47646021  0.15198852  0.52944042  1
  O  O76  1  0.67324047  0.51737427  0.53048857  1
  O  O77  1  0.85399075  0.32007765  0.53186501  1
  O  O78  1  0.55919882  0.68759312  0.96963542  1
  O  O79  1  0.13956427  0.44372022  0.97478262  1
  O  O80  1  0.31651481  0.87330487  0.97805792  1
  O  O81  1  0.56006535  0.85652164  0.46861911  1
  O  O82  1  0.31339191  0.44004564  0.46744619  1
  O  O83  1  0.13321152  0.68072557  0.47120535  1
  O  O84  1  0.08231583  0.61499633  0.35617266  1
  O  O85  1  0.53723425  0.91514192  0.35565659  1
  O  O86  1  0.36774636  0.46317840  0.36353273  1
  O  O87  1  0.13208331  0.49292899  0.86129657  1
  O  O88  1  0.36055553  0.86837271  0.86466355  1
  O  O89  1  0.51562976  0.63879308  0.86612964  1
  O  O90  1  0.00007286  0.82120043  0.41396512  1
  O  O91  1  0.83382989  0.02395382  0.41183417  1
  O  O92  1  0.20139788  0.19738455  0.41002707  1
  O  O93  1  0.99883187  0.18364233  0.91169948  1
  O  O94  1  0.17944742  0.99431372  0.91150435  1
  O  O95  1  0.79275522  0.79291321  0.90750662  1
  O  O96  1  0.96748715  0.17984699  0.58315568  1
  O  O97  1  0.19010300  0.03565373  0.58108876  1
  O  O98  1  0.82893145  0.80896960  0.57835944  1
  O  O99  1  0.96031270  0.80357182  0.07895371  1
  O  O100  1  0.82307185  0.03729239  0.08273575  1
  O  O101  1  0.18980513  0.17248042  0.07847553  1
  O  O102  1  0.66838239  0.15721853  0.75167903  1
  O  O103  1  0.47071411  0.33755993  0.74870627  1
  O  O104  1  0.86836585  0.53009245  0.74806474  1
  O  O105  1  0.68059296  0.53282953  0.24865535  1
  O  O106  1  0.85175068  0.31602581  0.24892229  1
  O  O107  1  0.47183327  0.14279954  0.24684702  1
  O  O108  1  0.62848691  0.50040862  0.91981529  1
  O  O109  1  0.84964940  0.36407030  0.92089866  1
  O  O110  1  0.51193118  0.15619819  0.92097078  1
  O  O111  1  0.65148008  0.16315354  0.42625682  1
  O  O112  1  0.49335751  0.35149509  0.42368888  1
  O  O113  1  0.82993130  0.49392310  0.42607420  1
  O  O114  1  0.36511556  0.50611525  0.08063649  1
  O  O115  1  0.15013773  0.66258525  0.08123736  1
  O  O116  1  0.52865760  0.87687914  0.07530979  1
  O  O117  1  0.33578131  0.84876079  0.58098495  1
  O  O118  1  0.49445532  0.63627133  0.58099881  1
  O  O119  1  0.12627668  0.47432711  0.57469404  1
  O  O120  1  0.31495484  0.84601410  0.25182865  1
  O  O121  1  0.52625107  0.67601113  0.25354019  1
  O  O122  1  0.15246358  0.46652267  0.25020990  1
  O  O123  1  0.31588301  0.47795209  0.76048624  1
  O  O124  1  0.16237044  0.68300786  0.75983696  1
  O  O125  1  0.49864063  0.82109879  0.76051959  1
