# generated using pymatgen
data_Na15Ta4Zn8P15(SO24)3
_symmetry_space_group_name_H-M   'P 1'
_cell_length_a   8.96018907
_cell_length_b   8.96237523
_cell_length_c   22.08618079
_cell_angle_alpha   90.22601719
_cell_angle_beta   89.95263177
_cell_angle_gamma   120.02407184
_symmetry_Int_Tables_number   1
_chemical_formula_structural   Na15Ta4Zn8P15(SO24)3
_chemical_formula_sum   'Na15 Ta4 Zn8 P15 S3 O72'
_cell_volume   1535.61517633
_cell_formula_units_Z   1
loop_
 _symmetry_equiv_pos_site_id
 _symmetry_equiv_pos_as_xyz
  1  'x, y, z'
loop_
 _atom_site_type_symbol
 _atom_site_label
 _atom_site_symmetry_multiplicity
 _atom_site_fract_x
 _atom_site_fract_y
 _atom_site_fract_z
 _atom_site_occupancy
  Na  Na0  1  0.99020980  0.64290671  0.24285600  1
  Na  Na1  1  0.65376336  0.63952460  0.74613789  1
  Na  Na2  1  0.35975585  0.01635472  0.74573210  1
  Na  Na3  1  0.29619358  0.33323859  0.58551811  1
  Na  Na4  1  0.04311859  0.71691558  0.58261054  1
  Na  Na5  1  0.66226467  0.95305354  0.58526593  1
  Na  Na6  1  0.29328974  0.95347932  0.08567647  1
  Na  Na7  1  0.67267946  0.71428771  0.07955439  1
  Na  Na8  1  0.03753385  0.33472297  0.08580826  1
  Na  Na9  1  0.99883067  0.99349792  0.48931261  1
  Na  Na10  1  0.99560497  0.99440028  0.98863259  1
  Na  Na11  1  0.68400925  0.33462631  0.82481784  1
  Na  Na12  1  0.65174173  0.30661731  0.32446316  1
  Na  Na13  1  0.34257750  0.67514464  0.16301509  1
  Na  Na14  1  0.32719220  0.66109581  0.66196703  1
  Ta  Ta15  1  0.67420255  0.33394709  0.97525776  1
  Ta  Ta16  1  0.66097134  0.33469815  0.47501096  1
  Ta  Ta17  1  0.33132656  0.66774445  0.31750085  1
  Ta  Ta18  1  0.33185956  0.66425621  0.81780391  1
  Zn  Zn19  1  0.01060948  0.01517448  0.35106091  1
  Zn  Zn20  1  0.99827681  0.00077802  0.84973529  1
  Zn  Zn21  1  0.00015481  0.99564876  0.66153272  1
  Zn  Zn22  1  0.00499237  0.00718211  0.15918347  1
  Zn  Zn23  1  0.66482219  0.33164293  0.68459478  1
  Zn  Zn24  1  0.67028989  0.31368018  0.18599278  1
  Zn  Zn25  1  0.33263903  0.67467103  0.00876752  1
  Zn  Zn26  1  0.34284117  0.67789538  0.50850608  1
  P  P27  1  0.29568095  0.00117099  0.25037006  1
  P  P28  1  0.00150104  0.29679832  0.25026642  1
  P  P29  1  0.29208699  0.29615492  0.74931200  1
  P  P30  1  0.00102081  0.70146377  0.74972564  1
  P  P31  1  0.70402731  0.00022037  0.75070057  1
  P  P32  1  0.37442097  0.03941419  0.58382325  1
  P  P33  1  0.66614871  0.62698960  0.58490565  1
  P  P34  1  0.95809591  0.62626413  0.08629434  1
  P  P35  1  0.66397984  0.03647099  0.08219472  1
  P  P36  1  0.63149037  0.66817304  0.92072024  1
  P  P37  1  0.04285693  0.36843136  0.92173465  1
  P  P38  1  0.32947427  0.96531683  0.91970819  1
  P  P39  1  0.63632708  0.96430504  0.41994315  1
  P  P40  1  0.32837385  0.37245628  0.42139807  1
  P  P41  1  0.03666899  0.66951426  0.42023268  1
  S  S42  1  0.69811563  0.70354495  0.25021644  1
  S  S43  1  0.95500417  0.33335489  0.58212682  1
  S  S44  1  0.38111079  0.33377400  0.08347244  1
  O  O45  1  0.19851529  0.01022891  0.30436195  1
  O  O46  1  0.81033319  0.79210670  0.30118637  1
  O  O47  1  0.97675298  0.18204780  0.30275887  1
  O  O48  1  0.20268270  0.17386731  0.80075496  1
  O  O49  1  0.96931139  0.79174884  0.80173300  1
  O  O50  1  0.81343851  0.01984041  0.80460467  1
  O  O51  1  0.76652269  0.95659383  0.69063536  1
  O  O52  1  0.19568862  0.23246636  0.68796145  1
  O  O53  1  0.05090058  0.80959795  0.69011578  1
  O  O54  1  0.76253686  0.79917900  0.19183901  1
  O  O55  1  0.03143242  0.23277183  0.18840888  1
  O  O56  1  0.18654729  0.95268425  0.19065809  1
  O  O57  1  0.87442549  0.35467580  0.63662943  1
  O  O58  1  0.47843335  0.11816357  0.64177443  1
  O  O59  1  0.64637529  0.52473303  0.64251191  1
  O  O60  1  0.87278869  0.52417991  0.14376514  1
  O  O61  1  0.62762883  0.11438187  0.13741430  1
  O  O62  1  0.48492544  0.35653769  0.13737221  1
  O  O63  1  0.47329067  0.31975192  0.02763539  1
  O  O64  1  0.83787527  0.51779119  0.03002840  1
  O  O65  1  0.67833393  0.15571737  0.02564281  1
  O  O66  1  0.48596026  0.15900682  0.52843547  1
  O  O67  1  0.67947850  0.51853356  0.52901888  1
  O  O68  1  0.84903857  0.32157001  0.52691505  1
  O  O69  1  0.54752211  0.68071128  0.97919437  1
  O  O70  1  0.13521235  0.44905790  0.98116319  1
  O  O71  1  0.31246658  0.87090179  0.97897811  1
  O  O72  1  0.56273480  0.87391114  0.48015796  1
  O  O73  1  0.31598530  0.45300279  0.48064170  1
  O  O74  1  0.13521050  0.68616761  0.47847314  1
  O  O75  1  0.13532112  0.64360888  0.36459381  1
  O  O76  1  0.50463707  0.85969908  0.36712491  1
  O  O77  1  0.35326469  0.49694810  0.36730623  1
  O  O78  1  0.14428737  0.49556843  0.86805675  1
  O  O79  1  0.35639211  0.86475967  0.86507695  1
  O  O80  1  0.50826165  0.64380180  0.86520836  1
  O  O81  1  0.00388548  0.81570539  0.40975925  1
  O  O82  1  0.81325682  0.99153492  0.40898826  1
  O  O83  1  0.18191592  0.19220055  0.41301190  1
  O  O84  1  0.01044904  0.18992302  0.91176925  1
  O  O85  1  0.18080847  0.99441843  0.90977637  1
  O  O86  1  0.80974532  0.81708872  0.91175507  1
  O  O87  1  0.96403203  0.17286896  0.58189509  1
  O  O88  1  0.20125491  0.03611944  0.58113822  1
  O  O89  1  0.83301675  0.80345775  0.58271305  1
  O  O90  1  0.96860835  0.80332222  0.08376776  1
  O  O91  1  0.83496271  0.03433650  0.08256205  1
  O  O92  1  0.21071467  0.17272534  0.08338876  1
  O  O93  1  0.66144729  0.14567038  0.74592429  1
  O  O94  1  0.48048354  0.33245886  0.74664301  1
  O  O95  1  0.84661423  0.51913753  0.74323471  1
  O  O96  1  0.67237175  0.52770027  0.24573040  1
  O  O97  1  0.85696667  0.34377390  0.24819955  1
  O  O98  1  0.47687234  0.15560624  0.24514703  1
  O  O99  1  0.63769150  0.49339522  0.92243280  1
  O  O100  1  0.86192589  0.36527565  0.92169971  1
  O  O101  1  0.50508213  0.14541939  0.92143492  1
  O  O102  1  0.64056751  0.14453470  0.42126464  1
  O  O103  1  0.50428601  0.36536230  0.42195665  1
  O  O104  1  0.85743536  0.49342532  0.42247395  1
  O  O105  1  0.35729551  0.48545285  0.07844395  1
  O  O106  1  0.13774132  0.64284896  0.08061642  1
  O  O107  1  0.50712870  0.85308203  0.07569466  1
  O  O108  1  0.35101293  0.85705344  0.57777789  1
  O  O109  1  0.50314661  0.64311767  0.57907507  1
  O  O110  1  0.12987447  0.48648535  0.57775422  1
  O  O111  1  0.31477580  0.83061761  0.26033072  1
  O  O112  1  0.52038547  0.68523140  0.25903030  1
  O  O113  1  0.17240212  0.48519997  0.26032951  1
  O  O114  1  0.31486485  0.48349121  0.76048274  1
  O  O115  1  0.16900100  0.68644661  0.76218048  1
  O  O116  1  0.51533045  0.82759275  0.76001765  1
