# generated using pymatgen
data_MgV2Zn4O8
_symmetry_space_group_name_H-M   'P 1'
_cell_length_a   6.27350793
_cell_length_b   6.27350646
_cell_length_c   6.18782000
_cell_angle_alpha   60.45079913
_cell_angle_beta   60.45080671
_cell_angle_gamma   57.35620040
_symmetry_Int_Tables_number   1
_chemical_formula_structural   MgV2Zn4O8
_chemical_formula_sum   'Mg1 V2 Zn4 O8'
_cell_volume   169.59911715
_cell_formula_units_Z   1
loop_
 _symmetry_equiv_pos_site_id
 _symmetry_equiv_pos_as_xyz
  1  'x, y, z'
loop_
 _atom_site_type_symbol
 _atom_site_label
 _atom_site_symmetry_multiplicity
 _atom_site_fract_x
 _atom_site_fract_y
 _atom_site_fract_z
 _atom_site_occupancy
  Mg  Mg0  1  0.24031200  0.24031200  0.75968800  1
  V  V1  1  0.63952600  0.63952600  0.10393000  1
  V  V2  1  0.63952600  0.63952600  0.61701800  1
  Zn  Zn3  1  0.95112000  0.95112000  0.04888000  1
  Zn  Zn4  1  0.29817700  0.29817700  0.20182300  1
  Zn  Zn5  1  0.16290800  0.73292700  0.55208300  1
  Zn  Zn6  1  0.73292700  0.16290800  0.55208300  1
  O  O7  1  0.40773500  0.40773500  0.37534700  1
  O  O8  1  0.42919600  0.88935800  0.34072300  1
  O  O9  1  0.40773500  0.40773500  0.80918000  1
  O  O10  1  0.37658300  0.85350600  0.88495600  1
  O  O11  1  0.88935800  0.42919500  0.34072300  1
  O  O12  1  0.86069500  0.86069500  0.42053800  1
  O  O13  1  0.85350500  0.37658300  0.88495600  1
  O  O14  1  0.86069500  0.86069500  0.85807300  1
