# generated using pymatgen
data_MgCo2(NiO2)4
_symmetry_space_group_name_H-M   'P 1'
_cell_length_a   5.85642700
_cell_length_b   5.84042777
_cell_length_c   6.16602412
_cell_angle_alpha   61.69242017
_cell_angle_beta   61.58905859
_cell_angle_gamma   59.99061501
_symmetry_Int_Tables_number   1
_chemical_formula_structural   MgCo2(NiO2)4
_chemical_formula_sum   'Mg1 Co2 Ni4 O8'
_cell_volume   152.71130512
_cell_formula_units_Z   1
loop_
 _symmetry_equiv_pos_site_id
 _symmetry_equiv_pos_as_xyz
  1  'x, y, z'
loop_
 _atom_site_type_symbol
 _atom_site_label
 _atom_site_symmetry_multiplicity
 _atom_site_fract_x
 _atom_site_fract_y
 _atom_site_fract_z
 _atom_site_occupancy
  Mg  Mg0  1  0.02065900  0.99607100  0.50000900  1
  Co  Co1  1  0.12440200  0.16367500  0.03736000  1
  Co  Co2  1  0.81966200  0.84613800  0.96311800  1
  Ni  Ni3  1  0.50226400  0.99831400  0.50101300  1
  Ni  Ni4  1  0.48810200  0.50184400  0.99992700  1
  Ni  Ni5  1  0.00866700  0.49819800  0.49590900  1
  Ni  Ni6  1  0.50348300  0.50004400  0.50362500  1
  O  O7  1  0.75690300  0.24620800  0.25275100  1
  O  O8  1  0.25096900  0.24493000  0.24791100  1
  O  O9  1  0.75802800  0.24405300  0.74764600  1
  O  O10  1  0.73969400  0.73108200  0.30430100  1
  O  O11  1  0.27521400  0.26643000  0.69569200  1
  O  O12  1  0.25118600  0.75642700  0.25033000  1
  O  O13  1  0.24412500  0.75306300  0.75277000  1
  O  O14  1  0.75664500  0.75352400  0.74763600  1
