# generated using pymatgen
data_Na3TaAl3P5SO24
_symmetry_space_group_name_H-M   'P 1'
_cell_length_a   8.51168914
_cell_length_b   8.48926006
_cell_length_c   21.90206757
_cell_angle_alpha   89.67309158
_cell_angle_beta   90.15190557
_cell_angle_gamma   119.97600079
_symmetry_Int_Tables_number   1
_chemical_formula_structural   Na3TaAl3P5SO24
_chemical_formula_sum   'Na9 Ta3 Al9 P15 S3 O72'
_cell_volume   1370.87934554
_cell_formula_units_Z   3
loop_
 _symmetry_equiv_pos_site_id
 _symmetry_equiv_pos_as_xyz
  1  'x, y, z'
loop_
 _atom_site_type_symbol
 _atom_site_label
 _atom_site_symmetry_multiplicity
 _atom_site_fract_x
 _atom_site_fract_y
 _atom_site_fract_z
 _atom_site_occupancy
  Na  Na0  1  0.63909126  0.63685475  0.74687099  1
  Na  Na1  1  0.30262197  0.96813214  0.08576495  1
  Na  Na2  1  0.33180455  0.02873560  0.41217834  1
  Na  Na3  1  0.98667806  0.99990956  0.50095699  1
  Na  Na4  1  0.99102556  0.00045182  0.99918593  1
  Na  Na5  1  0.66671375  0.32361383  0.82991839  1
  Na  Na6  1  0.66987361  0.33650898  0.32715913  1
  Na  Na7  1  0.33344421  0.66134126  0.16794470  1
  Na  Na8  1  0.32390734  0.66223186  0.66068541  1
  Ta  Ta9  1  0.66833401  0.33418395  0.98014002  1
  Ta  Ta10  1  0.67796590  0.34241792  0.47878309  1
  Ta  Ta11  1  0.32813500  0.66599236  0.81015029  1
  Al  Al12  1  0.00162937  0.00184911  0.35257410  1
  Al  Al13  1  0.00085374  0.00165017  0.85301049  1
  Al  Al14  1  0.99405240  0.00099078  0.64712367  1
  Al  Al15  1  0.00152002  0.99832016  0.14762829  1
  Al  Al16  1  0.67484637  0.33788852  0.68698065  1
  Al  Al17  1  0.65816374  0.32607871  0.18509042  1
  Al  Al18  1  0.33381038  0.66232395  0.02093395  1
  Al  Al19  1  0.33398655  0.65701281  0.51839566  1
  Al  Al20  1  0.33380367  0.67351959  0.31346500  1
  P  P21  1  0.28953082  0.99991297  0.25004277  1
  P  P22  1  0.28354166  0.27171101  0.74814613  1
  P  P23  1  0.99527192  0.71924092  0.74781487  1
  P  P24  1  0.72473576  0.01439148  0.74903750  1
  P  P25  1  0.96410796  0.33563713  0.58728380  1
  P  P26  1  0.66610092  0.62983228  0.58742667  1
  P  P27  1  0.95705622  0.62224633  0.08822242  1
  P  P28  1  0.67072434  0.03832898  0.08725835  1
  P  P29  1  0.37409298  0.33909077  0.08712045  1
  P  P30  1  0.62662978  0.67808868  0.91802843  1
  P  P31  1  0.05014343  0.37241102  0.91917450  1
  P  P32  1  0.32259280  0.95003663  0.91916227  1
  P  P33  1  0.62215210  0.94154451  0.41583369  1
  P  P34  1  0.32396553  0.38311327  0.41417011  1
  P  P35  1  0.05754648  0.67356703  0.41471037  1
  S  S36  1  0.71288647  0.71273432  0.25017948  1
  S  S37  1  0.00019950  0.28760857  0.24976203  1
  S  S38  1  0.37353978  0.03969937  0.58554563  1
  O  O39  1  0.20274040  0.03002828  0.30785110  1
  O  O40  1  0.82474453  0.79591718  0.30525189  1
  O  O41  1  0.96779066  0.17387869  0.30509435  1
  O  O42  1  0.20190598  0.16652257  0.80688026  1
  O  O43  1  0.96132762  0.79784331  0.80571519  1
  O  O44  1  0.83145568  0.03662030  0.80730859  1
  O  O45  1  0.79587275  0.96166482  0.69332252  1
  O  O46  1  0.16743247  0.19676259  0.69158391  1
  O  O47  1  0.03159460  0.83491152  0.69107556  1
  O  O48  1  0.79443154  0.82667992  0.19508339  1
  O  O49  1  0.02835379  0.20358500  0.19497785  1
  O  O50  1  0.17205754  0.97001136  0.19246663  1
  O  O51  1  0.86830937  0.36457252  0.64088122  1
  O  O52  1  0.49164246  0.12898303  0.63818199  1
  O  O53  1  0.63371745  0.50731076  0.64334168  1
  O  O54  1  0.86386871  0.49777839  0.14226700  1
  O  O55  1  0.62754351  0.12708344  0.14038497  1
  O  O56  1  0.49719925  0.36891857  0.14143059  1
  O  O57  1  0.45893254  0.29625436  0.02908279  1
  O  O58  1  0.83868440  0.53817663  0.02882849  1
  O  O59  1  0.70336217  0.15982563  0.02821340  1
  O  O60  1  0.45463089  0.15133440  0.52741771  1
  O  O61  1  0.69491415  0.53396947  0.52956997  1
  O  O62  1  0.84059650  0.30215135  0.52827378  1
  O  O63  1  0.53352748  0.70043410  0.97313868  1
  O  O64  1  0.16431615  0.46469635  0.97454226  1
  O  O65  1  0.30063911  0.83946869  0.97663959  1
  O  O66  1  0.53641966  0.83387886  0.47426616  1
  O  O67  1  0.29711455  0.46146535  0.47285508  1
  O  O68  1  0.17105650  0.70694887  0.47262076  1
  O  O69  1  0.13350244  0.63350175  0.35832776  1
  O  O70  1  0.49868066  0.86955364  0.35988240  1
  O  O71  1  0.36462641  0.50120607  0.35776043  1
  O  O72  1  0.13069898  0.49265727  0.86045019  1
  O  O73  1  0.36066309  0.86615354  0.86159156  1
  O  O74  1  0.51029950  0.63844426  0.85835028  1
  O  O75  1  0.02810783  0.83772017  0.40768408  1
  O  O76  1  0.81222338  0.97153912  0.40662982  1
  O  O77  1  0.16292992  0.18733316  0.40746350  1
  O  O78  1  0.02782887  0.18605776  0.90973254  1
  O  O79  1  0.15783203  0.97080591  0.90938973  1
  O  O80  1  0.81378279  0.84154722  0.90915585  1
  O  O81  1  0.97907456  0.16397242  0.59163515  1
  O  O82  1  0.19513011  0.02591146  0.59026879  1
  O  O83  1  0.83996267  0.81375879  0.59118327  1
  O  O84  1  0.97818151  0.81311402  0.09291091  1
  O  O85  1  0.83993606  0.02325047  0.09464015  1
  O  O86  1  0.18784573  0.16407137  0.09279067  1
  O  O87  1  0.69316111  0.17409675  0.74064366  1
  O  O88  1  0.47956291  0.30790551  0.74148673  1
  O  O89  1  0.82945511  0.52592625  0.74214893  1
  O  O90  1  0.69673940  0.53081513  0.24363604  1
  O  O91  1  0.83676269  0.30763113  0.24316914  1
  O  O92  1  0.48022261  0.17186934  0.24270242  1
  O  O93  1  0.64184176  0.50213344  0.92328968  1
  O  O94  1  0.85991767  0.35791018  0.92292797  1
  O  O95  1  0.49785604  0.14056375  0.92305360  1
  O  O96  1  0.63914393  0.13728886  0.42433954  1
  O  O97  1  0.49513700  0.35404794  0.42303791  1
  O  O98  1  0.86189441  0.50172900  0.42179521  1
  O  O99  1  0.35806307  0.50670329  0.07629440  1
  O  O100  1  0.14614706  0.64539557  0.07768373  1
  O  O101  1  0.49740097  0.85477172  0.07629760  1
  O  O102  1  0.35893199  0.86113692  0.57769031  1
  O  O103  1  0.49646278  0.64487927  0.57665194  1
  O  O104  1  0.14678525  0.50753385  0.57571828  1
  O  O105  1  0.30857762  0.82810119  0.25705491  1
  O  O106  1  0.52944664  0.69246330  0.25650476  1
  O  O107  1  0.16552713  0.46928173  0.25618227  1
  O  O108  1  0.31127310  0.47268379  0.75502528  1
  O  O109  1  0.16581029  0.69514786  0.75420311  1
  O  O110  1  0.52871063  0.83720640  0.75620818  1
