# generated using pymatgen
data_Na3ZrNb(SiO4)3
_symmetry_space_group_name_H-M   'P 1'
_cell_length_a   9.18828005
_cell_length_b   9.19276135
_cell_length_c   22.87257799
_cell_angle_alpha   89.99999999
_cell_angle_beta   90.09109029
_cell_angle_gamma   120.01613733
_symmetry_Int_Tables_number   1
_chemical_formula_structural   Na3ZrNb(SiO4)3
_chemical_formula_sum   'Na18 Zr6 Nb6 Si18 O72'
_cell_volume   1672.84068427
_cell_formula_units_Z   6
loop_
 _symmetry_equiv_pos_site_id
 _symmetry_equiv_pos_as_xyz
  1  'x, y, z'
loop_
 _atom_site_type_symbol
 _atom_site_label
 _atom_site_symmetry_multiplicity
 _atom_site_fract_x
 _atom_site_fract_y
 _atom_site_fract_z
 _atom_site_occupancy
  Na  Na0  1  0.99249556  0.98330021  0.49845835  1
  Na  Na1  1  0.99249556  0.00919536  0.99845835  1
  Na  Na2  1  0.66644864  0.33451056  0.83180074  1
  Na  Na3  1  0.66644864  0.33193709  0.33180074  1
  Na  Na4  1  0.33140125  0.66536755  0.16518705  1
  Na  Na5  1  0.33140125  0.66603471  0.66518705  1
  Na  Na6  1  0.36853799  0.36512958  0.24968209  1
  Na  Na7  1  0.99426115  0.63161368  0.24916184  1
  Na  Na8  1  0.99426115  0.36264747  0.74916184  1
  Na  Na9  1  0.36853799  0.00340840  0.74968209  1
  Na  Na10  1  0.30289136  0.33887659  0.58282070  1
  Na  Na11  1  0.66378421  0.96613255  0.58243669  1
  Na  Na12  1  0.30289136  0.96401377  0.08282070  1
  Na  Na13  1  0.66378421  0.69765066  0.08243669  1
  Na  Na14  1  0.97019577  0.67296337  0.91581244  1
  Na  Na15  1  0.33003838  0.29784485  0.91624664  1
  Na  Na16  1  0.97019577  0.29723339  0.41581244  1
  Na  Na17  1  0.33003838  0.03219453  0.41624664  1
  Zr  Zr18  1  0.99355403  0.99530956  0.35271214  1
  Zr  Zr19  1  0.99355403  0.99824447  0.85271214  1
  Zr  Zr20  1  0.66773438  0.34008617  0.68609020  1
  Zr  Zr21  1  0.66773438  0.32764721  0.18609020  1
  Zr  Zr22  1  0.32903538  0.66105862  0.01955114  1
  Zr  Zr23  1  0.32903538  0.66797775  0.51955114  1
  Nb  Nb24  1  0.99908287  0.99580267  0.64670744  1
  Nb  Nb25  1  0.99908287  0.00328020  0.14670744  1
  Nb  Nb26  1  0.66771560  0.32817745  0.97992664  1
  Nb  Nb27  1  0.66771560  0.33953715  0.47992664  1
  Nb  Nb28  1  0.33854672  0.67082946  0.31336081  1
  Nb  Nb29  1  0.33854672  0.66771825  0.81336081  1
  Si  Si30  1  0.29057902  0.99783164  0.25066809  1
  Si  Si31  1  0.70584167  0.71040286  0.24879038  1
  Si  Si32  1  0.00148256  0.29354872  0.25161511  1
  Si  Si33  1  0.29057902  0.29274738  0.75066809  1
  Si  Si34  1  0.00148256  0.70793384  0.75161511  1
  Si  Si35  1  0.70584167  0.99543881  0.74879038  1
  Si  Si36  1  0.95808913  0.33199596  0.58403116  1
  Si  Si37  1  0.37395351  0.04291695  0.58410785  1
  Si  Si38  1  0.67121074  0.62820732  0.58302172  1
  Si  Si39  1  0.95808913  0.62609217  0.08403116  1
  Si  Si40  1  0.67121074  0.04300242  0.08302172  1
  Si  Si41  1  0.37395351  0.33103556  0.08410785  1
  Si  Si42  1  0.62534942  0.66578290  0.91873371  1
  Si  Si43  1  0.03946310  0.37536535  0.91540387  1
  Si  Si44  1  0.33804201  0.96022970  0.91689336  1
  Si  Si45  1  0.62534942  0.95956753  0.41873371  1
  Si  Si46  1  0.33804201  0.37781330  0.41689336  1
  Si  Si47  1  0.03946310  0.66409875  0.41540387  1
  O  O48  1  0.20596205  0.02860407  0.30836336  1
  O  O49  1  0.82993204  0.79762495  0.30400815  1
  O  O50  1  0.97802871  0.18552054  0.31020429  1
  O  O51  1  0.20596205  0.17735798  0.80836336  1
  O  O52  1  0.97802871  0.79250817  0.81020429  1
  O  O53  1  0.82993204  0.03230709  0.80400815  1
  O  O54  1  0.80046176  0.97179544  0.69011153  1
  O  O55  1  0.16549150  0.19822363  0.69255774  1
  O  O56  1  0.02851427  0.83760895  0.69531423  1
  O  O57  1  0.80046176  0.82866632  0.19011153  1
  O  O58  1  0.02851427  0.19090532  0.19531423  1
  O  O59  1  0.16549150  0.96726787  0.19255774  1
  O  O60  1  0.87151990  0.35498080  0.64231795  1
  O  O61  1  0.48900659  0.12743661  0.64190575  1
  O  O62  1  0.63364091  0.50513887  0.63834634  1
  O  O63  1  0.87151990  0.51653810  0.14231795  1
  O  O64  1  0.63364091  0.12850105  0.13834634  1
  O  O65  1  0.48900659  0.36156898  0.14190575  1
  O  O66  1  0.46933520  0.30181323  0.02613585  1
  O  O67  1  0.83336425  0.53042048  0.02607873  1
  O  O68  1  0.69472133  0.16656543  0.02570110  1
  O  O69  1  0.46933520  0.16752097  0.52613585  1
  O  O70  1  0.69472133  0.52815491  0.52570110  1
  O  O71  1  0.83336425  0.30294276  0.52607873  1
  O  O72  1  0.54114890  0.69062494  0.97707406  1
  O  O73  1  0.16137513  0.46564227  0.97109988  1
  O  O74  1  0.30471689  0.84432087  0.97443178  1
  O  O75  1  0.54114890  0.85052497  0.47707406  1
  O  O76  1  0.30471689  0.46039702  0.47443178  1
  O  O77  1  0.16137513  0.69573385  0.47109988  1
  O  O78  1  0.13173218  0.63324324  0.35712592  1
  O  O79  1  0.49547439  0.85797747  0.36207974  1
  O  O80  1  0.36002069  0.49747388  0.35862354  1
  O  O81  1  0.13173218  0.49848994  0.85712592  1
  O  O82  1  0.36002069  0.86254780  0.85862354  1
  O  O83  1  0.49547439  0.63749792  0.86207974  1
  O  O84  1  0.02732241  0.83393628  0.41085500  1
  O  O85  1  0.81602857  0.99378182  0.41242330  1
  O  O86  1  0.17299471  0.18966763  0.41123893  1
  O  O87  1  0.02732241  0.19338613  0.91085500  1
  O  O88  1  0.17299471  0.98332708  0.91123893  1
  O  O89  1  0.81602857  0.82224675  0.91242330  1
  O  O90  1  0.96895211  0.15613064  0.58852197  1
  O  O91  1  0.19073917  0.03645162  0.58981711  1
  O  O92  1  0.83922974  0.81604604  0.58903714  1
  O  O93  1  0.96895211  0.81282147  0.08852197  1
  O  O94  1  0.83922974  0.02318370  0.08903714  1
  O  O95  1  0.19073917  0.15428754  0.08981711  1
  O  O96  1  0.68219053  0.15983422  0.74418269  1
  O  O97  1  0.47245758  0.30455783  0.74456636  1
  O  O98  1  0.84489164  0.51703591  0.74577345  1
  O  O99  1  0.68219053  0.52235531  0.24418269  1
  O  O100  1  0.84489164  0.32785473  0.24577345  1
  O  O101  1  0.47245758  0.16789875  0.24456636  1
  O  O102  1  0.63407353  0.48951745  0.92224949  1
  O  O103  1  0.85728823  0.37007421  0.92251432  1
  O  O104  1  0.50557329  0.15062960  0.92234409  1
  O  O105  1  0.63407353  0.14455508  0.42224949  1
  O  O106  1  0.50557329  0.35494269  0.42234409  1
  O  O107  1  0.85728823  0.48721302  0.42251432  1
  O  O108  1  0.36071563  0.50035601  0.07839054  1
  O  O109  1  0.14988276  0.66118019  0.07891701  1
  O  O110  1  0.50616909  0.85650231  0.07728032  1
  O  O111  1  0.36071563  0.86036063  0.57839054  1
  O  O112  1  0.50616909  0.64966779  0.57728032  1
  O  O113  1  0.14988276  0.48870357  0.57891701  1
  O  O114  1  0.29737574  0.82129310  0.25642248  1
  O  O115  1  0.51686479  0.68949592  0.25601123  1
  O  O116  1  0.17776932  0.47864247  0.25475452  1
  O  O117  1  0.29737574  0.47608363  0.75642248  1
  O  O118  1  0.17776932  0.69912785  0.75475452  1
  O  O119  1  0.51686479  0.82736987  0.75601123  1
