# generated using pymatgen
data_Na5Ca2Al2P3(SO8)3
_symmetry_space_group_name_H-M   'P 1'
_cell_length_a   9.05953950
_cell_length_b   9.05793483
_cell_length_c   22.02702835
_cell_angle_alpha   91.96312246
_cell_angle_beta   90.30318740
_cell_angle_gamma   120.43330242
_symmetry_Int_Tables_number   1
_chemical_formula_structural   Na5Ca2Al2P3(SO8)3
_chemical_formula_sum   'Na15 Ca6 Al6 P9 S9 O72'
_cell_volume   1557.05535616
_cell_formula_units_Z   3
loop_
 _symmetry_equiv_pos_site_id
 _symmetry_equiv_pos_as_xyz
  1  'x, y, z'
loop_
 _atom_site_type_symbol
 _atom_site_label
 _atom_site_symmetry_multiplicity
 _atom_site_fract_x
 _atom_site_fract_y
 _atom_site_fract_z
 _atom_site_occupancy
  Na  Na0  1  0.65842178  0.02003066  0.25440843  1
  Na  Na1  1  0.99798570  0.63322828  0.24306342  1
  Na  Na2  1  0.64880277  0.64534554  0.74414724  1
  Na  Na3  1  0.98766933  0.34934369  0.74872213  1
  Na  Na4  1  0.32001869  0.34933006  0.58702530  1
  Na  Na5  1  0.66107051  0.96588842  0.57595638  1
  Na  Na6  1  0.31006669  0.96706522  0.07939544  1
  Na  Na7  1  0.68968373  0.01712775  0.91181752  1
  Na  Na8  1  0.97504720  0.30172067  0.41203655  1
  Na  Na9  1  0.97740928  0.95884435  0.49939780  1
  Na  Na10  1  0.00635232  0.98534789  0.00124340  1
  Na  Na11  1  0.62038783  0.30396111  0.83406311  1
  Na  Na12  1  0.62342363  0.31322312  0.33584545  1
  Na  Na13  1  0.30939781  0.62467728  0.16577827  1
  Na  Na14  1  0.31678516  0.67102369  0.66640417  1
  Ca  Ca15  1  0.00436000  0.00121095  0.35240287  1
  Ca  Ca16  1  0.02168405  0.00992068  0.85575554  1
  Ca  Ca17  1  0.66374823  0.33031133  0.68498318  1
  Ca  Ca18  1  0.66871738  0.33415163  0.18277353  1
  Ca  Ca19  1  0.32439963  0.66021712  0.01948294  1
  Ca  Ca20  1  0.33456155  0.66749979  0.51551312  1
  Al  Al21  1  0.97995559  0.00857281  0.64913885  1
  Al  Al22  1  0.00665886  0.99531878  0.15293684  1
  Al  Al23  1  0.66899810  0.35251169  0.98114927  1
  Al  Al24  1  0.67150830  0.32722892  0.48744966  1
  Al  Al25  1  0.33292004  0.67881383  0.31336892  1
  Al  Al26  1  0.34945264  0.68874306  0.81188063  1
  P  P27  1  0.29274761  0.98139850  0.24971837  1
  P  P28  1  0.02522839  0.30287821  0.25218414  1
  P  P29  1  0.28458427  0.31132295  0.74901675  1
  P  P30  1  0.69513152  0.98481730  0.75339574  1
  P  P31  1  0.95926518  0.31606265  0.58550324  1
  P  P32  1  0.69060562  0.63707007  0.58532421  1
  P  P33  1  0.94863218  0.64425142  0.08677900  1
  P  P34  1  0.36217690  0.97815137  0.92281230  1
  P  P35  1  0.61885021  0.97936296  0.41893800  1
  S  S36  1  0.69108414  0.71369118  0.24854416  1
  S  S37  1  0.02572049  0.71883676  0.74923720  1
  S  S38  1  0.35758569  0.04610008  0.57986192  1
  S  S39  1  0.69497607  0.04448168  0.08183177  1
  S  S40  1  0.36250834  0.31522690  0.08142328  1
  S  S41  1  0.61811181  0.64658711  0.91470909  1
  S  S42  1  0.01418354  0.37855861  0.91367952  1
  S  S43  1  0.36022979  0.38510065  0.41665173  1
  S  S44  1  0.02323889  0.64695948  0.41419358  1
  O  O45  1  0.21245316  0.00220917  0.30613709  1
  O  O46  1  0.78613794  0.78419471  0.30565764  1
  O  O47  1  0.98300253  0.20714788  0.31093138  1
  O  O48  1  0.20712288  0.20891273  0.80371119  1
  O  O49  1  0.99381241  0.78590704  0.80523446  1
  O  O50  1  0.79304837  -0.00013987  0.81120402  1
  O  O51  1  0.78861960  0.95872283  0.69608258  1
  O  O52  1  0.16493516  0.21149856  0.69001733  1
  O  O53  1  0.03821353  0.82009230  0.69601169  1
  O  O54  1  0.78793204  0.82671687  0.19715903  1
  O  O55  1  0.04024414  0.19141436  0.19846252  1
  O  O56  1  0.17824874  0.95904058  0.19115947  1
  O  O57  1  0.88940195  0.33748076  0.64515773  1
  O  O58  1  0.45160299  0.11398540  0.63756309  1
  O  O59  1  0.65223870  0.54236803  0.64411772  1
  O  O60  1  0.88548218  0.56099373  0.14697184  1
  O  O61  1  0.66703111  0.11536349  0.13874555  1
  O  O62  1  0.45360806  0.33781471  0.13860793  1
  O  O63  1  0.45927482  0.29721785  0.02858019  1
  O  O64  1  0.82263150  0.53170705  0.03229391  1
  O  O65  1  0.70312096  0.14861856  0.02916520  1
  O  O66  1  0.45999141  0.16011200  0.52918670  1
  O  O67  1  0.70327965  0.52496054  0.53139501  1
  O  O68  1  0.83879760  0.29581160  0.52950951  1
  O  O69  1  0.53888019  0.67190372  0.96799695  1
  O  O70  1  0.11705480  0.45594776  0.96848047  1
  O  O71  1  0.35137953  0.89149293  0.98144977  1
  O  O72  1  0.54862735  0.89020172  0.47769075  1
  O  O73  1  0.33825889  0.44907682  0.47599671  1
  O  O74  1  0.12149503  0.66801944  0.46942545  1
  O  O75  1  0.11548173  0.63093651  0.35899535  1
  O  O76  1  0.50011110  0.87241471  0.36132249  1
  O  O77  1  0.36602996  0.49543349  0.36655212  1
  O  O78  1  0.10076304  0.46953531  0.85796508  1
  O  O79  1  0.38656177  0.87118841  0.86732649  1
  O  O80  1  0.51461472  0.62707732  0.85734250  1
  O  O81  1  0.98985591  0.78808866  0.41064640  1
  O  O82  1  0.80294315  0.01417486  0.41236960  1
  O  O83  1  0.20956351  0.21072849  0.40976689  1
  O  O84  1  0.97252632  0.19756037  0.91058255  1
  O  O85  1  0.21299494  0.00767452  0.91596343  1
  O  O86  1  0.79305366  0.79665613  0.91143339  1
  O  O87  1  0.95629780  0.13793183  0.58702042  1
  O  O88  1  0.19299803  0.04625746  0.58082527  1
  O  O89  1  0.86005944  0.81754853  0.59215411  1
  O  O90  1  0.96198737  0.82608347  0.09076727  1
  O  O91  1  0.85828651  0.04176812  0.08633947  1
  O  O92  1  0.19466103  0.14741045  0.08229101  1
  O  O93  1  0.67452103  0.14112254  0.74820932  1
  O  O94  1  0.47055529  0.35485724  0.74295498  1
  O  O95  1  0.88188330  0.53889780  0.74221463  1
  O  O96  1  0.65822382  0.53860725  0.24081945  1
  O  O97  1  0.87698253  0.33764367  0.24103017  1
  O  O98  1  0.47993083  0.12622873  0.24520232  1
  O  O99  1  0.62678070  0.48561765  0.91934923  1
  O  O100  1  0.84672933  0.37719237  0.91844763  1
  O  O101  1  0.53566083  0.15960747  0.92620514  1
  O  O102  1  0.63028179  0.16081167  0.42407466  1
  O  O103  1  0.52129596  0.37830636  0.41892280  1
  O  O104  1  0.85653842  0.47892133  0.41586768  1
  O  O105  1  0.32993278  0.45656093  0.07547128  1
  O  O106  1  0.13179050  0.67784652  0.07827733  1
  O  O107  1  0.54701177  0.86760102  0.07602823  1
  O  O108  1  0.32626314  0.87110696  0.57258775  1
  O  O109  1  0.54162042  0.67219542  0.57546646  1
  O  O110  1  0.14527476  0.46018167  0.57893690  1
  O  O111  1  0.29508465  0.80575982  0.25345623  1
  O  O112  1  0.52396933  0.71283922  0.25131319  1
  O  O113  1  0.19498731  0.48300550  0.25957198  1
  O  O114  1  0.28690631  0.48915799  0.75546523  1
  O  O115  1  0.18854682  0.71127145  0.75508751  1
  O  O116  1  0.51563073  0.81331423  0.75466223  1
