# generated using pymatgen
data_Na3Ta5ZnSi3(PO6)6
_symmetry_space_group_name_H-M   'P 1'
_cell_length_a   8.82197811
_cell_length_b   8.82197782
_cell_length_c   22.68946951
_cell_angle_alpha   90.00000000
_cell_angle_beta   90.00000000
_cell_angle_gamma   120.00000106
_symmetry_Int_Tables_number   1
_chemical_formula_structural   Na3Ta5ZnSi3(PO6)6
_chemical_formula_sum   'Na6 Ta10 Zn2 Si6 P12 O72'
_cell_volume   1529.27963899
_cell_formula_units_Z   2
loop_
 _symmetry_equiv_pos_site_id
 _symmetry_equiv_pos_as_xyz
  1  'x, y, z'
loop_
 _atom_site_type_symbol
 _atom_site_label
 _atom_site_symmetry_multiplicity
 _atom_site_fract_x
 _atom_site_fract_y
 _atom_site_fract_z
 _atom_site_occupancy
  Na  Na0  1  -0.00000000  -0.00000000  0.49870885  1
  Na  Na1  1  -0.00000000  -0.00000000  0.99870885  1
  Na  Na2  1  0.66666700  0.33333300  0.82578005  1
  Na  Na3  1  0.66666700  0.33333300  0.32578005  1
  Na  Na4  1  0.33333300  0.66666700  0.16654918  1
  Na  Na5  1  0.33333300  0.66666700  0.66654918  1
  Ta  Ta6  1  -0.00000000  -0.00000000  0.35606290  1
  Ta  Ta7  1  -0.00000000  -0.00000000  0.85606290  1
  Ta  Ta8  1  -0.00000000  -0.00000000  0.64566738  1
  Ta  Ta9  1  -0.00000000  -0.00000000  0.14566738  1
  Ta  Ta10  1  0.66666700  0.33333300  0.97785050  1
  Ta  Ta11  1  0.66666700  0.33333300  0.47785050  1
  Ta  Ta12  1  0.33333300  0.66666700  0.01986307  1
  Ta  Ta13  1  0.33333300  0.66666700  0.51986307  1
  Ta  Ta14  1  0.33333300  0.66666700  0.31182113  1
  Ta  Ta15  1  0.33333300  0.66666700  0.81182113  1
  Zn  Zn16  1  0.66666700  0.33333300  0.68597829  1
  Zn  Zn17  1  0.66666700  0.33333300  0.18597829  1
  Si  Si18  1  0.61899575  0.66573099  0.91612170  1
  Si  Si19  1  0.04673423  0.38100425  0.91612170  1
  Si  Si20  1  0.33426901  0.95326577  0.91612170  1
  Si  Si21  1  0.61899575  0.95326577  0.41612170  1
  Si  Si22  1  0.33426901  0.38100425  0.41612170  1
  Si  Si23  1  0.04673423  0.66573099  0.41612170  1
  P  P24  1  0.29017120  0.00151111  0.25021173  1
  P  P25  1  0.71133990  0.70982880  0.25021173  1
  P  P26  1  0.99848889  0.28866010  0.25021173  1
  P  P27  1  0.29017120  0.28866010  0.75021173  1
  P  P28  1  0.99848889  0.70982880  0.75021173  1
  P  P29  1  0.71133990  0.00151111  0.75021173  1
  P  P30  1  0.95465532  0.33518154  0.58519779  1
  P  P31  1  0.38052722  0.04534468  0.58519779  1
  P  P32  1  0.66481846  0.61947278  0.58519779  1
  P  P33  1  0.95465532  0.61947278  0.08519779  1
  P  P34  1  0.66481846  0.04534468  0.08519779  1
  P  P35  1  0.38052722  0.33518154  0.08519779  1
  O  O36  1  0.19109046  0.01591785  0.30449900  1
  O  O37  1  0.82482739  0.80890954  0.30449900  1
  O  O38  1  0.98408215  0.17517261  0.30449900  1
  O  O39  1  0.19109046  0.17517261  0.80449900  1
  O  O40  1  0.98408215  0.80890954  0.80449900  1
  O  O41  1  0.82482739  0.01591785  0.80449900  1
  O  O42  1  0.80393147  0.97576384  0.69453805  1
  O  O43  1  0.17183238  0.19606853  0.69453805  1
  O  O44  1  0.02423616  0.82816762  0.69453805  1
  O  O45  1  0.80393147  0.82816762  0.19453805  1
  O  O46  1  0.02423616  0.19606853  0.19453805  1
  O  O47  1  0.17183238  0.97576384  0.19453805  1
  O  O48  1  0.88147877  0.36805981  0.64003039  1
  O  O49  1  0.48658204  0.11852123  0.64003039  1
  O  O50  1  0.63194019  0.51341796  0.64003039  1
  O  O51  1  0.88147877  0.51341796  0.14003039  1
  O  O52  1  0.63194019  0.11852123  0.14003039  1
  O  O53  1  0.48658204  0.36805981  0.14003039  1
  O  O54  1  0.46516530  0.30498808  0.02967017  1
  O  O55  1  0.83982377  0.53483470  0.02967017  1
  O  O56  1  0.69501192  0.16017623  0.02967017  1
  O  O57  1  0.46516530  0.16017623  0.52967017  1
  O  O58  1  0.69501192  0.53483470  0.52967017  1
  O  O59  1  0.83982377  0.30498808  0.52967017  1
  O  O60  1  0.53038573  0.69859216  0.97391822  1
  O  O61  1  0.16820542  0.46961427  0.97391822  1
  O  O62  1  0.30140784  0.83179458  0.97391822  1
  O  O63  1  0.53038573  0.83179458  0.47391822  1
  O  O64  1  0.30140784  0.46961427  0.47391822  1
  O  O65  1  0.16820542  0.69859216  0.47391822  1
  O  O66  1  0.13588081  0.63304407  0.35816681  1
  O  O67  1  0.49716226  0.86411919  0.35816681  1
  O  O68  1  0.36695593  0.50283774  0.35816681  1
  O  O69  1  0.13588081  0.50283774  0.85816681  1
  O  O70  1  0.36695593  0.86411919  0.85816681  1
  O  O71  1  0.49716226  0.63304407  0.85816681  1
  O  O72  1  0.02511008  0.83676810  0.40731828  1
  O  O73  1  0.81165802  0.97488992  0.40731828  1
  O  O74  1  0.16323190  0.18834198  0.40731828  1
  O  O75  1  0.02511008  0.18834198  0.90731828  1
  O  O76  1  0.16323190  0.97488992  0.90731828  1
  O  O77  1  0.81165802  0.83676810  0.90731828  1
  O  O78  1  0.97525510  0.16694823  0.59106462  1
  O  O79  1  0.19169313  0.02474490  0.59106462  1
  O  O80  1  0.83305177  0.80830687  0.59106462  1
  O  O81  1  0.97525510  0.80830687  0.09106462  1
  O  O82  1  0.83305177  0.02474490  0.09106462  1
  O  O83  1  0.19169313  0.16694823  0.09106462  1
  O  O84  1  0.69470483  0.16204157  0.74658073  1
  O  O85  1  0.46733774  0.30529517  0.74658073  1
  O  O86  1  0.83795843  0.53266226  0.74658073  1
  O  O87  1  0.69470483  0.53266226  0.24658073  1
  O  O88  1  0.83795843  0.30529517  0.24658073  1
  O  O89  1  0.46733774  0.16204157  0.24658073  1
  O  O90  1  0.63954692  0.49464920  0.92676285  1
  O  O91  1  0.85510328  0.36045308  0.92676285  1
  O  O92  1  0.50535080  0.14489672  0.92676285  1
  O  O93  1  0.63954692  0.14489672  0.42676285  1
  O  O94  1  0.50535080  0.36045308  0.42676285  1
  O  O95  1  0.85510328  0.49464920  0.42676285  1
  O  O96  1  0.35040277  0.49365050  0.07491031  1
  O  O97  1  0.14324673  0.64959723  0.07491031  1
  O  O98  1  0.50634950  0.85675327  0.07491031  1
  O  O99  1  0.35040277  0.85675327  0.57491031  1
  O  O100  1  0.50634950  0.64959723  0.57491031  1
  O  O101  1  0.14324673  0.49365050  0.57491031  1
  O  O102  1  0.29817606  0.82841110  0.25491557  1
  O  O103  1  0.53023404  0.70182394  0.25491557  1
  O  O104  1  0.17158890  0.46976596  0.25491557  1
  O  O105  1  0.29817606  0.46976596  0.75491557  1
  O  O106  1  0.17158890  0.70182394  0.75491557  1
  O  O107  1  0.53023404  0.82841110  0.75491557  1
