# generated using pymatgen
data_Na6La3NbSi4(SO12)2
_symmetry_space_group_name_H-M   'P 1'
_cell_length_a   9.59108537
_cell_length_b   9.60029052
_cell_length_c   23.68461892
_cell_angle_alpha   89.86821139
_cell_angle_beta   90.75027862
_cell_angle_gamma   120.09600720
_symmetry_Int_Tables_number   1
_chemical_formula_structural   Na6La3NbSi4(SO12)2
_chemical_formula_sum   'Na18 La9 Nb3 Si12 S6 O72'
_cell_volume   1886.62543397
_cell_formula_units_Z   3
loop_
 _symmetry_equiv_pos_site_id
 _symmetry_equiv_pos_as_xyz
  1  'x, y, z'
loop_
 _atom_site_type_symbol
 _atom_site_label
 _atom_site_symmetry_multiplicity
 _atom_site_fract_x
 _atom_site_fract_y
 _atom_site_fract_z
 _atom_site_occupancy
  Na  Na0  1  0.62254821  0.99917700  0.25363326  1
  Na  Na1  1  0.64195608  0.63860735  0.75634581  1
  Na  Na2  1  0.01483850  0.37064898  0.74336574  1
  Na  Na3  1  0.29885307  0.35279929  0.58117874  1
  Na  Na4  1  0.01530379  0.67720081  0.58904376  1
  Na  Na5  1  0.68034915  0.95700279  0.56983132  1
  Na  Na6  1  0.30368580  0.94846460  0.08467798  1
  Na  Na7  1  0.67105831  0.71497972  0.06981815  1
  Na  Na8  1  0.02374238  0.34333815  0.07710976  1
  Na  Na9  1  0.97802087  0.68264217  0.91396021  1
  Na  Na10  1  0.32765448  0.29228632  0.91103597  1
  Na  Na11  1  0.67745270  0.67743896  0.41679372  1
  Na  Na12  1  0.99544766  0.03288384  0.49495280  1
  Na  Na13  1  0.96798075  0.98880313  0.99341934  1
  Na  Na14  1  0.64651418  0.32703573  0.83109157  1
  Na  Na15  1  0.61794794  0.29784213  0.33443698  1
  Na  Na16  1  0.30987009  0.68570538  0.16938766  1
  Na  Na17  1  0.32283901  0.65097428  0.67001096  1
  La  La18  1  0.02988350  0.01871513  0.35191415  1
  La  La19  1  0.00185799  0.99801750  0.84814831  1
  La  La20  1  0.01021804  0.00153028  0.65367311  1
  La  La21  1  0.00822051  0.98885528  0.14823789  1
  La  La22  1  0.66652610  0.34253529  0.68499139  1
  La  La23  1  0.66127424  0.33285934  0.18404734  1
  La  La24  1  0.33942514  0.67776394  0.00955427  1
  La  La25  1  0.33405747  0.65814362  0.50909760  1
  La  La26  1  0.33591168  0.67592537  0.32378028  1
  Nb  Nb27  1  0.68594280  0.33039773  0.97293902  1
  Nb  Nb28  1  0.67386200  0.33344099  0.48239634  1
  Nb  Nb29  1  0.32148992  0.65920820  0.82569502  1
  Si  Si30  1  0.31244835  0.99348520  0.24660506  1
  Si  Si31  1  0.31022224  0.32647842  0.75535649  1
  Si  Si32  1  0.01351964  0.69123807  0.75260838  1
  Si  Si33  1  0.96133266  0.33209710  0.58447011  1
  Si  Si34  1  0.67243812  0.63263879  0.58036293  1
  Si  Si35  1  0.95496207  0.62376291  0.07744695  1
  Si  Si36  1  0.67452524  0.04708194  0.08012130  1
  Si  Si37  1  0.62868096  0.65029350  0.92010798  1
  Si  Si38  1  0.03221259  0.36717023  0.92060553  1
  Si  Si39  1  0.34849148  0.97450473  0.91831060  1
  Si  Si40  1  0.64861118  0.98411171  0.42082625  1
  Si  Si41  1  0.35215186  0.36199493  0.42440190  1
  S  S42  1  0.69289334  0.70068476  0.25211559  1
  S  S43  1  0.00309456  0.30498455  0.24729121  1
  S  S44  1  0.67814251  0.98237840  0.75043963  1
  S  S45  1  0.37552583  0.04579618  0.57774736  1
  S  S46  1  0.37123693  0.33006080  0.07627102  1
  S  S47  1  0.00441066  0.64927452  0.42140592  1
  O  O48  1  0.20175901  0.99525609  0.29771259  1
  O  O49  1  0.78758519  0.78826267  0.30308018  1
  O  O50  1  0.99109359  0.20291316  0.29619979  1
  O  O51  1  0.21799988  0.21787994  0.80933776  1
  O  O52  1  0.96804042  0.77140029  0.80404754  1
  O  O53  1  0.78703134  0.01148379  0.79876475  1
  O  O54  1  0.75214518  0.96054514  0.69798913  1
  O  O55  1  0.19928265  0.25070966  0.69675808  1
  O  O56  1  0.03781884  0.79067231  0.69295117  1
  O  O57  1  0.77601703  0.79309225  0.20002309  1
  O  O58  1  0.01046544  0.22640056  0.19398140  1
  O  O59  1  0.22570624  0.99008915  0.18459839  1
  O  O60  1  0.88157522  0.34089065  0.64342968  1
  O  O61  1  0.46486300  0.11129662  0.63117875  1
  O  O62  1  0.64633483  0.53350074  0.63872242  1
  O  O63  1  0.86140293  0.51868975  0.13175268  1
  O  O64  1  0.65099211  0.12466414  0.13725197  1
  O  O65  1  0.46141995  0.34656510  0.12906495  1
  O  O66  1  0.45869972  0.31999702  0.02650789  1
  O  O67  1  0.83832199  0.51277507  0.02010835  1
  O  O68  1  0.67682450  0.17074650  0.02537355  1
  O  O69  1  0.47202182  0.14873767  0.52944028  1
  O  O70  1  0.67737742  0.51261018  0.52844508  1
  O  O71  1  0.83481371  0.32876925  0.53265453  1
  O  O72  1  0.56353688  0.67298459  0.97973953  1
  O  O73  1  0.12298050  0.43836532  0.97968007  1
  O  O74  1  0.30748932  0.87929609  0.97758950  1
  O  O75  1  0.55970669  0.87557170  0.47643187  1
  O  O76  1  0.32857258  0.43389051  0.48346664  1
  O  O77  1  0.09703312  0.67567969  0.47467400  1
  O  O78  1  0.08645483  0.63015319  0.37300515  1
  O  O79  1  0.53736752  0.91046161  0.36344940  1
  O  O80  1  0.39249676  0.49378607  0.37364183  1
  O  O81  1  0.14023444  0.50213176  0.86852868  1
  O  O82  1  0.35895412  0.85132185  0.86858391  1
  O  O83  1  0.49548350  0.63542759  0.86797828  1
  O  O84  1  0.96805195  0.78176292  0.41434423  1
  O  O85  1  0.81976951  0.98743492  0.41583991  1
  O  O86  1  0.20194625  0.18037677  0.41827209  1
  O  O87  1  0.01045774  0.19296204  0.90982331  1
  O  O88  1  0.19975227  0.00596971  0.90668973  1
  O  O89  1  0.81280103  0.79196148  0.91065036  1
  O  O90  1  0.97149566  0.16624133  0.57938467  1
  O  O91  1  0.21967543  0.04548663  0.57827279  1
  O  O92  1  0.84555307  0.80410491  0.58001720  1
  O  O93  1  0.95910048  0.79813022  0.07498138  1
  O  O94  1  0.84708769  0.04998517  0.07672261  1
  O  O95  1  0.20927058  0.17904509  0.07782963  1
  O  O96  1  0.65350949  0.12207817  0.74581548  1
  O  O97  1  0.49585329  0.36233181  0.75336866  1
  O  O98  1  0.86732534  0.50167610  0.75032493  1
  O  O99  1  0.67188269  0.53824024  0.25139517  1
  O  O100  1  0.85374355  0.31568694  0.24850381  1
  O  O101  1  0.49527145  0.15173775  0.25355105  1
  O  O102  1  0.62501745  0.47138630  0.92236871  1
  O  O103  1  0.85652124  0.36789414  0.92025866  1
  O  O104  1  0.51750619  0.15231599  0.92179757  1
  O  O105  1  0.66810018  0.16655231  0.43435268  1
  O  O106  1  0.52147722  0.34982049  0.43048123  1
  O  O107  1  0.84268216  0.49663534  0.42531071  1
  O  O108  1  0.34628428  0.47094650  0.07489428  1
  O  O109  1  0.13593127  0.64586563  0.07831639  1
  O  O110  1  0.52072102  0.86333308  0.07730254  1
  O  O111  1  0.34381659  0.87870150  0.57198724  1
  O  O112  1  0.51937709  0.66492864  0.57661041  1
  O  O113  1  0.13715853  0.49864009  0.57966235  1
  O  O114  1  0.33577161  0.83360419  0.24907871  1
  O  O115  1  0.53344952  0.69319452  0.25224702  1
  O  O116  1  0.14797707  0.46692959  0.25162641  1
  O  O117  1  0.32201692  0.50810951  0.76506550  1
  O  O118  1  0.18156858  0.68167318  0.76746753  1
  O  O119  1  0.52194171  0.82867805  0.75817855  1
