# generated using pymatgen
data_Na2In4Si3Ge4(S3O16)3
_symmetry_space_group_name_H-M   'P 1'
_cell_length_a   17.44181945
_cell_length_b   8.71387646
_cell_length_c   22.65872339
_cell_angle_alpha   89.32984097
_cell_angle_beta   89.51007794
_cell_angle_gamma   120.09489589
_symmetry_Int_Tables_number   1
_chemical_formula_structural   Na2In4Si3Ge4(S3O16)3
_chemical_formula_sum   'Na6 In12 Si9 Ge12 S27 O144'
_cell_volume   2978.94966963
_cell_formula_units_Z   3
loop_
 _symmetry_equiv_pos_site_id
 _symmetry_equiv_pos_as_xyz
  1  'x, y, z'
loop_
 _atom_site_type_symbol
 _atom_site_label
 _atom_site_symmetry_multiplicity
 _atom_site_fract_x
 _atom_site_fract_y
 _atom_site_fract_z
 _atom_site_occupancy
  Na  Na0  1  0.99462134  0.01388578  0.50296350  1
  Na  Na1  1  0.49538923  0.98065782  0.00358709  1
  Na  Na2  1  0.32506125  0.31398455  0.83740099  1
  Na  Na3  1  0.82608915  0.32924747  0.82936609  1
  Na  Na4  1  0.32697596  0.32209116  0.32933149  1
  Na  Na5  1  0.81945690  0.32864740  0.33363876  1
  In  In6  1  0.00681803  0.00306569  0.34927210  1
  In  In7  1  0.50614477  0.00986271  0.85019215  1
  In  In8  1  0.00099721  0.01177628  0.64777565  1
  In  In9  1  0.50267071  0.98641266  0.14780215  1
  In  In10  1  0.32430850  0.32853825  0.98390654  1
  In  In11  1  0.84069094  0.34076903  0.98503562  1
  In  In12  1  0.34022281  0.33743073  0.48323699  1
  In  In13  1  0.82560119  0.32191820  0.48208555  1
  In  In14  1  0.16450190  0.67368431  0.30479419  1
  In  In15  1  0.66929706  0.66401472  0.30832132  1
  In  In16  1  0.16896491  0.67857269  0.81269537  1
  In  In17  1  0.66326658  0.65211112  0.80567345  1
  Si  Si18  1  0.15223897  0.02001029  0.24568344  1
  Si  Si19  1  0.65424441  0.01311657  0.24753449  1
  Si  Si20  1  0.65337980  0.28637153  0.74561470  1
  Si  Si21  1  0.48253330  0.33291831  0.58289656  1
  Si  Si22  1  0.98042750  0.34515357  0.58149574  1
  Si  Si23  1  0.47773717  0.61823536  0.08087660  1
  Si  Si24  1  0.97684770  0.62643515  0.08491461  1
  Si  Si25  1  0.16543203  0.95798278  0.91518566  1
  Si  Si26  1  0.66490763  0.37363028  0.41403963  1
  Ge  Ge27  1  0.52251800  0.02951303  0.35283142  1
  Ge  Ge28  1  0.00241778  0.99283844  0.85930252  1
  Ge  Ge29  1  0.50932610  0.02675524  0.64553658  1
  Ge  Ge30  1  0.00684728  0.98922606  0.14574699  1
  Ge  Ge31  1  0.34123541  0.34239449  0.67929587  1
  Ge  Ge32  1  0.83140136  0.33476243  0.67780232  1
  Ge  Ge33  1  0.33791612  0.34031761  0.18496637  1
  Ge  Ge34  1  0.83556419  0.33160079  0.18490351  1
  Ge  Ge35  1  0.15876707  0.68940510  0.02814002  1
  Ge  Ge36  1  0.66289949  0.66834267  0.02797903  1
  Ge  Ge37  1  0.16509161  0.66454533  0.52244985  1
  Ge  Ge38  1  0.65815917  0.63594217  0.51842858  1
  S  S39  1  0.35939225  0.70248949  0.25395369  1
  S  S40  1  0.85946306  0.70713805  0.24462388  1
  S  S41  1  0.99384394  0.28078011  0.24578393  1
  S  S42  1  0.49275140  0.27813455  0.24969185  1
  S  S43  1  0.15264550  0.29179250  0.75137133  1
  S  S44  1  0.99494898  0.70760272  0.75120987  1
  S  S45  1  0.49003005  0.70163933  0.74545047  1
  S  S46  1  0.35581567  0.01052399  0.74341024  1
  S  S47  1  0.86108491  0.01668829  0.75506650  1
  S  S48  1  0.18993976  0.03560383  0.58267456  1
  S  S49  1  0.68093448  0.02440500  0.58599421  1
  S  S50  1  0.33392434  0.63339489  0.58649665  1
  S  S51  1  0.82790055  0.62737656  0.58185096  1
  S  S52  1  0.32888836  0.03077118  0.08365355  1
  S  S53  1  0.83405196  0.03142486  0.08625182  1
  S  S54  1  0.17983667  0.33903625  0.08543069  1
  S  S55  1  0.68753817  0.34396783  0.08001232  1
  S  S56  1  0.31296254  0.67684459  0.91776244  1
  S  S57  1  0.81301261  0.67381073  0.91625334  1
  S  S58  1  0.01924782  0.36047069  0.91405969  1
  S  S59  1  0.52501350  0.37817392  0.92069624  1
  S  S60  1  0.66738457  0.95011353  0.92024208  1
  S  S61  1  0.31183378  0.94740726  0.41740074  1
  S  S62  1  0.81285145  0.94666033  0.41991481  1
  S  S63  1  0.16624883  0.38187969  0.42089384  1
  S  S64  1  0.02563856  0.67326716  0.41966888  1
  S  S65  1  0.52159223  0.68036413  0.41542505  1
  O  O66  1  0.12279157  0.07122627  0.30754123  1
  O  O67  1  0.61010301  0.05576316  0.30726065  1
  O  O68  1  0.41533857  0.79006898  0.30598115  1
  O  O69  1  0.90834163  0.77689209  0.30046063  1
  O  O70  1  0.47557862  0.16252542  0.30472777  1
  O  O71  1  0.97391889  0.17680323  0.30226444  1
  O  O72  1  0.11039685  0.17562594  0.80492130  1
  O  O73  1  0.62170186  0.17033647  0.80718122  1
  O  O74  1  0.47084575  0.76659156  0.80062045  1
  O  O75  1  0.98031305  0.79147522  0.80536590  1
  O  O76  1  0.40585441  0.04448159  0.79885138  1
  O  O77  1  0.91819271  0.03986901  0.80813314  1
  O  O78  1  0.40236746  0.99023450  0.69185495  1
  O  O79  1  0.89447849  0.97489145  0.70151347  1
  O  O80  1  0.10128834  0.21945099  0.69778663  1
  O  O81  1  0.58723901  0.18326476  0.69171491  1
  O  O82  1  0.01101261  0.81714576  0.69754663  1
  O  O83  1  0.49891652  0.81032743  0.69291626  1
  O  O84  1  0.38861595  0.80813884  0.19897189  1
  O  O85  1  0.90378929  0.82848905  0.19301926  1
  O  O86  1  0.00205469  0.19069483  0.19392580  1
  O  O87  1  0.50258309  0.19888945  0.19583727  1
  O  O88  1  0.08683333  0.99275397  0.19151381  1
  O  O89  1  0.59930217  0.98020610  0.18958132  1
  O  O90  1  0.43611666  0.37771928  0.64058950  1
  O  O91  1  0.92983281  0.37228330  0.64223774  1
  O  O92  1  0.24499709  0.12198432  0.63604862  1
  O  O93  1  0.74013633  0.11180703  0.63810891  1
  O  O94  1  0.30806599  0.50106891  0.63929469  1
  O  O95  1  0.81005514  0.50933748  0.63588648  1
  O  O96  1  0.42909655  0.48883396  0.14167851  1
  O  O97  1  0.92520748  0.48034802  0.13981076  1
  O  O98  1  0.31083385  0.11275027  0.13501978  1
  O  O99  1  0.81038819  0.11062340  0.13649322  1
  O  O100  1  0.23841457  0.37025050  0.13643534  1
  O  O101  1  0.74071664  0.36486362  0.13265022  1
  O  O102  1  0.20841838  0.28297275  0.03268549  1
  O  O103  1  0.72025600  0.29922219  0.02605822  1
  O  O104  1  0.42172217  0.53418082  0.02319132  1
  O  O105  1  0.92389112  0.56365516  0.02465554  1
  O  O106  1  0.34248071  0.12772333  0.02767318  1
  O  O107  1  0.85237345  0.13518014  0.03062387  1
  O  O108  1  0.22135677  0.14984331  0.52915932  1
  O  O109  1  0.70994266  0.14341862  0.53404107  1
  O  O110  1  0.35278993  0.56237407  0.53344704  1
  O  O111  1  0.84462779  0.55483706  0.52864383  1
  O  O112  1  0.42217608  0.28326616  0.52618451  1
  O  O113  1  0.91989181  0.30426047  0.52528302  1
  O  O114  1  0.26710668  0.68836879  0.97122297  1
  O  O115  1  0.77354787  0.69809820  0.97108676  1
  O  O116  1  0.07025007  0.43772602  0.96730487  1
  O  O117  1  0.58218821  0.46761705  0.97276046  1
  O  O118  1  0.14961955  0.82908869  0.97508780  1
  O  O119  1  0.66052773  0.84509073  0.97591978  1
  O  O120  1  0.26964837  0.83955679  0.47532095  1
  O  O121  1  0.76618563  0.84260981  0.47611462  1
  O  O122  1  0.15798046  0.46898256  0.47641992  1
  O  O123  1  0.65065878  0.46575188  0.47430556  1
  O  O124  1  0.08167090  0.69799578  0.47323008  1
  O  O125  1  0.57190381  0.70186906  0.47086810  1
  O  O126  1  0.06538322  0.65296485  0.36529070  1
  O  O127  1  0.56107720  0.64976955  0.36331364  1
  O  O128  1  0.25418182  0.86472049  0.36692651  1
  O  O129  1  0.76500144  0.86898284  0.36635288  1
  O  O130  1  0.17492718  0.48276796  0.36691506  1
  O  O131  1  0.68568325  0.48835378  0.35460092  1
  O  O132  1  0.05793784  0.46494413  0.85920046  1
  O  O133  1  0.56305323  0.47715088  0.86468967  1
  O  O134  1  0.18734715  0.89265528  0.85484724  1
  O  O135  1  0.67626713  0.86908394  0.86625762  1
  O  O136  1  0.26593080  0.65625775  0.86201308  1
  O  O137  1  0.76043446  0.64994022  0.86348275  1
  O  O138  1  0.01925949  0.83742661  0.41834196  1
  O  O139  1  0.51454150  0.84475310  0.40919887  1
  O  O140  1  0.39734506  0.95645198  0.41144170  1
  O  O141  1  0.90152848  0.95694039  0.41889506  1
  O  O142  1  0.08403245  0.20551091  0.42119567  1
  O  O143  1  0.56852786  0.18384566  0.40953138  1
  O  O144  1  0.01233578  0.18080645  0.90774708  1
  O  O145  1  0.51935081  0.20132924  0.91893755  1
  O  O146  1  0.07111400  0.96040522  0.90756408  1
  O  O147  1  0.58432718  0.95859451  0.92061858  1
  O  O148  1  0.40197233  0.84646065  0.91450683  1
  O  O149  1  0.90157335  0.84232578  0.90935684  1
  O  O150  1  0.49438059  0.15967588  0.59417643  1
  O  O151  1  0.99781045  0.17970291  0.58791197  1
  O  O152  1  0.09730622  0.99201702  0.59149518  1
  O  O153  1  0.58744777  0.98260487  0.59857987  1
  O  O154  1  0.41173867  0.80446500  0.59989310  1
  O  O155  1  0.90770208  0.80221523  0.59029911  1
  O  O156  1  0.49080759  0.81413974  0.08381100  1
  O  O157  1  0.99237872  0.82468049  0.09589217  1
  O  O158  1  0.40681438  0.01042478  0.09129301  1
  O  O159  1  0.91175852  0.01313122  0.09831864  1
  O  O160  1  0.08581631  0.19366792  0.09716886  1
  O  O161  1  0.59338815  0.20801009  0.08638398  1
  O  O162  1  0.34445577  0.17265610  0.73664075  1
  O  O163  1  0.86072954  0.18568159  0.74821033  1
  O  O164  1  0.24190507  0.30165681  0.74396559  1
  O  O165  1  0.75229442  0.30130706  0.73311159  1
  O  O166  1  0.40774276  0.51711522  0.73989460  1
  O  O167  1  0.91211066  0.53399937  0.74641206  1
  O  O168  1  0.35987560  0.53062634  0.24691293  1
  O  O169  1  0.85639956  0.53386836  0.23777366  1
  O  O170  1  0.40964521  0.29100691  0.24654551  1
  O  O171  1  0.91465262  0.30525233  0.24043870  1
  O  O172  1  0.25107843  0.20189799  0.23326143  1
  O  O173  1  0.75193555  0.20451717  0.23850448  1
  O  O174  1  0.32722587  0.52378318  0.91977231  1
  O  O175  1  0.82577550  0.51776877  0.91928691  1
  O  O176  1  0.43615263  0.35551849  0.92458570  1
  O  O177  1  0.92724141  0.33148605  0.91746898  1
  O  O178  1  0.24763848  0.15717925  0.92192467  1
  O  O179  1  0.74643636  0.13030199  0.92390345  1
  O  O180  1  0.32013764  0.12608303  0.42158024  1
  O  O181  1  0.82591107  0.12705758  0.42227830  1
  O  O182  1  0.24605219  0.36253522  0.42479193  1
  O  O183  1  0.74764375  0.33901796  0.42044579  1
  O  O184  1  0.42919909  0.52591448  0.41985100  1
  O  O185  1  0.93722300  0.51643343  0.42435037  1
  O  O186  1  0.17849485  0.50668592  0.07398513  1
  O  O187  1  0.69440492  0.52347165  0.07206146  1
  O  O188  1  0.07313698  0.63279950  0.07963535  1
  O  O189  1  0.57663327  0.63166966  0.07636544  1
  O  O190  1  0.24829962  0.84643414  0.07949887  1
  O  O191  1  0.75387358  0.85040769  0.07798819  1
  O  O192  1  0.19274639  0.86895406  0.57502573  1
  O  O193  1  0.67948958  0.85697502  0.57633957  1
  O  O194  1  0.25402311  0.65174441  0.57887223  1
  O  O195  1  0.74877346  0.64805197  0.57657099  1
  O  O196  1  0.07978946  0.52821012  0.57392587  1
  O  O197  1  0.57833385  0.51801110  0.57473231  1
  O  O198  1  0.16367691  0.84912554  0.24829691  1
  O  O199  1  0.67375397  0.85739375  0.25998908  1
  O  O200  1  0.26677131  0.65494062  0.26339070  1
  O  O201  1  0.77049363  0.68139057  0.24604689  1
  O  O202  1  0.07503881  0.45406967  0.25032668  1
  O  O203  1  0.56944059  0.45434088  0.25504401  1
  O  O204  1  0.16584480  0.47008320  0.75917916  1
  O  O205  1  0.66469914  0.47987219  0.74862938  1
  O  O206  1  0.07141352  0.68212921  0.75649040  1
  O  O207  1  0.56930129  0.68484506  0.74997693  1
  O  O208  1  0.26827550  0.85060773  0.74600408  1
  O  O209  1  0.76999830  0.87164148  0.76361525  1
