# generated using pymatgen
data_MgV2(CoO4)2
_symmetry_space_group_name_H-M   'P 1'
_cell_length_a   5.12988489
_cell_length_b   5.32256644
_cell_length_c   6.35162000
_cell_angle_alpha   90.00000000
_cell_angle_beta   90.00000000
_cell_angle_gamma   67.42189747
_symmetry_Int_Tables_number   1
_chemical_formula_structural   MgV2(CoO4)2
_chemical_formula_sum   'Mg1 V2 Co2 O8'
_cell_volume   160.13375044
_cell_formula_units_Z   1
loop_
 _symmetry_equiv_pos_site_id
 _symmetry_equiv_pos_as_xyz
  1  'x, y, z'
loop_
 _atom_site_type_symbol
 _atom_site_label
 _atom_site_symmetry_multiplicity
 _atom_site_fract_x
 _atom_site_fract_y
 _atom_site_fract_z
 _atom_site_occupancy
  Mg  Mg0  1  0.57405400  0.84537700  0.25000000  1
  V  V1  1  0.33504100  0.37726200  0.25000000  1
  V  V2  1  0.64654800  0.63910600  0.75000000  1
  Co  Co3  1  0.99360400  0.01115200  0.98872500  1
  Co  Co4  1  0.99360400  0.01115200  0.51127500  1
  O  O5  1  0.23862900  0.22897900  0.04399200  1
  O  O6  1  0.23862900  0.22897900  0.45600800  1
  O  O7  1  0.23494200  0.74493200  0.25000000  1
  O  O8  1  0.27663100  0.78572600  0.75000000  1
  O  O9  1  0.71147400  0.19194700  0.25000000  1
  O  O10  1  0.77305600  0.28152600  0.75000000  1
  O  O11  1  0.76689400  0.75193000  0.97509300  1
  O  O12  1  0.76689400  0.75193000  0.52490700  1
