# generated using pymatgen
data_MgTe3WO12
_symmetry_space_group_name_H-M   'P 1'
_cell_length_a   5.48467636
_cell_length_b   11.05392948
_cell_length_c   9.73311109
_cell_angle_alpha   28.66245739
_cell_angle_beta   51.81381617
_cell_angle_gamma   57.15136146
_symmetry_Int_Tables_number   1
_chemical_formula_structural   MgTe3WO12
_chemical_formula_sum   'Mg1 Te3 W1 O12'
_cell_volume   222.46846434
_cell_formula_units_Z   1
loop_
 _symmetry_equiv_pos_site_id
 _symmetry_equiv_pos_as_xyz
  1  'x, y, z'
loop_
 _atom_site_type_symbol
 _atom_site_label
 _atom_site_symmetry_multiplicity
 _atom_site_fract_x
 _atom_site_fract_y
 _atom_site_fract_z
 _atom_site_occupancy
  Mg  Mg0  1  0.30505000  0.00231100  0.28222800  1
  Te  Te1  1  0.50062000  0.99462400  0.50970400  1
  Te  Te2  1  0.49949300  0.50422600  0.49823300  1
  Te  Te3  1  0.97340300  0.50222000  0.01851300  1
  W  W4  1  0.02087000  0.99860200  0.99131000  1
  O  O5  1  0.36679900  0.27311200  0.16300100  1
  O  O6  1  0.25507600  0.10912300  0.64032600  1
  O  O7  1  0.15746500  0.28892100  0.75854900  1
  O  O8  1  0.87695200  0.15450100  0.27262600  1
  O  O9  1  0.34336600  0.79314400  0.15029900  1
  O  O10  1  0.74383800  0.39086800  0.37534000  1
  O  O11  1  0.25086100  0.63930600  0.59347000  1
  O  O12  1  0.62826800  0.20928400  0.85511500  1
  O  O13  1  0.14792100  0.83101300  0.70091300  1
  O  O14  1  0.84429300  0.72259400  0.22007200  1
  O  O15  1  0.73076400  0.90674500  0.32934500  1
  O  O16  1  0.60016100  0.68565500  0.87187200  1
