# generated using pymatgen
data_Na2La2Si(SO6)2
_symmetry_space_group_name_H-M   'P 1'
_cell_length_a   9.59307550
_cell_length_b   9.59307513
_cell_length_c   24.73267805
_cell_angle_alpha   90.60823201
_cell_angle_beta   89.39176799
_cell_angle_gamma   119.84110479
_symmetry_Int_Tables_number   1
_chemical_formula_structural   Na2La2Si(SO6)2
_chemical_formula_sum   'Na12 La12 Si6 S12 O72'
_cell_volume   1974.13996996
_cell_formula_units_Z   6
loop_
 _symmetry_equiv_pos_site_id
 _symmetry_equiv_pos_as_xyz
  1  'x, y, z'
loop_
 _atom_site_type_symbol
 _atom_site_label
 _atom_site_symmetry_multiplicity
 _atom_site_fract_x
 _atom_site_fract_y
 _atom_site_fract_z
 _atom_site_occupancy
  Na  Na0  1  0.00198865  0.62559183  0.25287219  1
  Na  Na1  1  0.37440817  0.99801135  0.75287219  1
  Na  Na2  1  0.65189741  0.97044983  0.59654204  1
  Na  Na3  1  0.02955017  0.34810259  0.09654204  1
  Na  Na4  1  0.98967249  0.68209813  0.92783159  1
  Na  Na5  1  0.31790187  0.01032751  0.42783159  1
  Na  Na6  1  0.02525279  0.97427867  0.50226319  1
  Na  Na7  1  0.02572133  0.97474721  0.00226319  1
  Na  Na8  1  0.64955064  0.28159533  0.83564226  1
  Na  Na9  1  0.71840467  0.35044936  0.33564226  1
  Na  Na10  1  0.31644235  0.64856593  0.16765977  1
  Na  Na11  1  0.35143407  0.68355765  0.66765977  1
  La  La12  1  0.99161583  0.01322703  0.34875869  1
  La  La13  1  0.98677297  0.00838417  0.84875869  1
  La  La14  1  0.00557214  0.99872830  0.65031478  1
  La  La15  1  0.00127170  0.99442786  0.15031478  1
  La  La16  1  0.66697653  0.32622592  0.68298169  1
  La  La17  1  0.67377408  0.33302347  0.18298169  1
  La  La18  1  0.65249030  0.32411268  0.98369496  1
  La  La19  1  0.67588732  0.34750970  0.48369496  1
  La  La20  1  0.33279234  0.68964919  0.01585714  1
  La  La21  1  0.31035081  0.66720766  0.51585714  1
  La  La22  1  0.31061162  0.63994038  0.31780906  1
  La  La23  1  0.36005962  0.68938838  0.81780906  1
  Si  Si24  1  0.00016468  0.30786641  0.24405322  1
  Si  Si25  1  0.69213359  0.99983532  0.74405322  1
  Si  Si26  1  0.36633576  0.03167498  0.58085838  1
  Si  Si27  1  0.96832502  0.63366424  0.08085838  1
  Si  Si28  1  0.32421252  0.97460846  0.91142091  1
  Si  Si29  1  0.02539154  0.67578748  0.41142091  1
  S  S30  1  0.30150523  0.99646440  0.25316612  1
  S  S31  1  0.69771779  0.69703267  0.25019779  1
  S  S32  1  0.30296733  0.30228221  0.75019779  1
  S  S33  1  0.00353560  0.69849477  0.75316612  1
  S  S34  1  0.96817264  0.32706759  0.58314619  1
  S  S35  1  0.66430835  0.64333111  0.58450921  1
  S  S36  1  0.67293241  0.03182736  0.08314619  1
  S  S37  1  0.35666889  0.33569165  0.08450921  1
  S  S38  1  0.64206630  0.66462504  0.91815510  1
  S  S39  1  0.03525228  0.37432981  0.91823151  1
  S  S40  1  0.62567019  0.96474772  0.41823151  1
  S  S41  1  0.33537496  0.35793370  0.41815510  1
  O  O42  1  0.22390965  0.01001423  0.30366727  1
  O  O43  1  0.79700029  0.78136551  0.29831148  1
  O  O44  1  0.99940025  0.20331435  0.29634739  1
  O  O45  1  0.21863449  0.20299970  0.79831148  1
  O  O46  1  0.98998577  0.77609035  0.80366727  1
  O  O47  1  0.79668565  0.00059975  0.79634739  1
  O  O48  1  0.77973793  0.99847674  0.68653724  1
  O  O49  1  0.21056801  0.21976889  0.70084113  1
  O  O50  1  0.02085728  0.80268066  0.70615839  1
  O  O51  1  0.78023111  0.78943199  0.20084113  1
  O  O52  1  0.00152326  0.22026207  0.18653724  1
  O  O53  1  0.19731934  0.97914272  0.20615839  1
  O  O54  1  0.89085683  0.34818133  0.63204920  1
  O  O55  1  0.47676888  0.12848151  0.63455743  1
  O  O56  1  0.66305480  0.55490853  0.63319532  1
  O  O57  1  0.87151849  0.52323112  0.13455743  1
  O  O58  1  0.65181867  0.10914317  0.13204920  1
  O  O59  1  0.44509147  0.33694520  0.13319532  1
  O  O60  1  0.43875697  0.32266902  0.03515319  1
  O  O61  1  0.86741248  0.54113363  0.02557095  1
  O  O62  1  0.67650247  0.12370209  0.03453369  1
  O  O63  1  0.45886637  0.13258752  0.52557095  1
  O  O64  1  0.67733098  0.56124303  0.53515319  1
  O  O65  1  0.87629791  0.32349753  0.53453369  1
  O  O66  1  0.55372253  0.66855075  0.96664956  1
  O  O67  1  0.12328708  0.44874203  0.96891523  1
  O  O68  1  0.30439410  0.85160884  0.96154052  1
  O  O69  1  0.55125797  0.87671292  0.46891523  1
  O  O70  1  0.33144925  0.44627747  0.46664956  1
  O  O71  1  0.14839116  0.69560590  0.46154052  1
  O  O72  1  0.10703361  0.65657803  0.35434631  1
  O  O73  1  0.53010757  0.87086559  0.37089280  1
  O  O74  1  0.34649733  0.44896029  0.36889563  1
  O  O75  1  0.12913441  0.46989243  0.87089280  1
  O  O76  1  0.34342197  0.89296639  0.85434631  1
  O  O77  1  0.55103971  0.65350267  0.86889563  1
  O  O78  1  0.02784341  0.84946968  0.41277812  1
  O  O79  1  0.79308846  0.99597920  0.41493878  1
  O  O80  1  0.18748524  0.19518624  0.41700474  1
  O  O81  1  0.00402080  0.20691154  0.91493878  1
  O  O82  1  0.15053032  0.97215659  0.91277812  1
  O  O83  1  0.80481376  0.81251476  0.91700474  1
  O  O84  1  0.96610588  0.17088241  0.58465443  1
  O  O85  1  0.18203081  0.00323716  0.58422640  1
  O  O86  1  0.80640976  0.81083196  0.58469564  1
  O  O87  1  0.99676284  0.81796919  0.08422640  1
  O  O88  1  0.82911759  0.03389412  0.08465443  1
  O  O89  1  0.18916804  0.19359024  0.08469564  1
  O  O90  1  0.66374392  0.15777144  0.74934890  1
  O  O91  1  0.46337110  0.31246050  0.74761591  1
  O  O92  1  0.86036792  0.53765679  0.74737883  1
  O  O93  1  0.68753950  0.53662890  0.24761591  1
  O  O94  1  0.84222856  0.33625608  0.24934890  1
  O  O95  1  0.46234321  0.13963208  0.24737883  1
  O  O96  1  0.67103741  0.52526800  0.91857992  1
  O  O97  1  0.87751539  0.37261450  0.91855971  1
  O  O98  1  0.48399205  0.15379067  0.91754670  1
  O  O99  1  0.62738550  0.12248461  0.41855971  1
  O  O100  1  0.47473200  0.32896259  0.41857992  1
  O  O101  1  0.84620933  0.51600795  0.41754670  1
  O  O102  1  0.34086371  0.48233027  0.08318253  1
  O  O103  1  0.14295661  0.63354515  0.08130953  1
  O  O104  1  0.53851953  0.86437601  0.08048070  1
  O  O105  1  0.36645485  0.85704339  0.58130953  1
  O  O106  1  0.51766973  0.65913629  0.58318253  1
  O  O107  1  0.13562399  0.46148047  0.58048070  1
  O  O108  1  0.31474402  0.84764610  0.25412016  1
  O  O109  1  0.53600394  0.67831666  0.25395642  1
  O  O110  1  0.16044264  0.49286007  0.24549409  1
  O  O111  1  0.32168334  0.46399606  0.75395642  1
  O  O112  1  0.15235390  0.68525598  0.75412016  1
  O  O113  1  0.50713993  0.83955736  0.74549409  1
