# generated using pymatgen
data_Na14Ti4Si11Ge4SO48
_symmetry_space_group_name_H-M   'P 1'
_cell_length_a   17.69532382
_cell_length_b   8.87075403
_cell_length_c   21.91525868
_cell_angle_alpha   90.24492911
_cell_angle_beta   90.07198334
_cell_angle_gamma   119.99782776
_symmetry_Int_Tables_number   1
_chemical_formula_structural   Na14Ti4Si11Ge4SO48
_chemical_formula_sum   'Na42 Ti12 Si33 Ge12 S3 O144'
_cell_volume   2979.19196669
_cell_formula_units_Z   3
loop_
 _symmetry_equiv_pos_site_id
 _symmetry_equiv_pos_as_xyz
  1  'x, y, z'
loop_
 _atom_site_type_symbol
 _atom_site_label
 _atom_site_symmetry_multiplicity
 _atom_site_fract_x
 _atom_site_fract_y
 _atom_site_fract_z
 _atom_site_occupancy
  Na  Na0  1  0.31802411  0.99995464  0.24996338  1
  Na  Na1  1  0.81790866  0.00000056  0.24999839  1
  Na  Na2  1  0.31791221  0.63527036  0.75055706  1
  Na  Na3  1  0.81721645  0.63382500  0.74977182  1
  Na  Na4  1  0.50016963  0.36529878  0.75106973  1
  Na  Na5  1  0.68405549  0.00141255  0.74971633  1
  Na  Na6  1  0.14917714  0.33435884  0.58259227  1
  Na  Na7  1  0.64957997  0.33162924  0.58334476  1
  Na  Na8  1  0.01673659  0.69714230  0.58338211  1
  Na  Na9  1  0.51805276  0.70351896  0.58266426  1
  Na  Na10  1  0.33329970  0.96527617  0.58338333  1
  Na  Na11  1  0.83289231  0.96673571  0.58300701  1
  Na  Na12  1  0.14913445  0.96536470  0.08259083  1
  Na  Na13  1  0.64922073  0.96634684  0.08245783  1
  Na  Na14  1  0.33278919  0.69878353  0.08284768  1
  Na  Na15  1  0.83285266  0.69926687  0.08312227  1
  Na  Na16  1  0.01771607  0.33599141  0.08285247  1
  Na  Na17  1  0.51792298  0.33585495  0.08292985  1
  Na  Na18  1  0.48228936  0.66735703  0.91660418  1
  Na  Na19  1  0.98301486  0.66480069  0.91708433  1
  Na  Na20  1  0.35085281  0.03555371  0.91657170  1
  Na  Na21  1  0.85045473  0.03638324  0.91696309  1
  Na  Na22  1  0.16663544  0.29965432  0.91752679  1
  Na  Na23  1  0.66630166  0.29607040  0.91697070  1
  Na  Na24  1  0.48343108  0.30125526  0.41656242  1
  Na  Na25  1  0.98268430  0.30071284  0.41714061  1
  Na  Na26  1  0.16651301  0.03365431  0.41698488  1
  Na  Na27  1  0.66645434  0.03549688  0.41760027  1
  Na  Na28  1  0.35002837  0.66355919  0.41661646  1
  Na  Na29  1  0.84968897  0.66390751  0.41693726  1
  Na  Na30  1  0.00057047  0.00122640  0.49992974  1
  Na  Na31  1  0.50115134  0.99994632  0.50059321  1
  Na  Na32  1  0.00117931  0.00125613  0.00014323  1
  Na  Na33  1  0.50067158  0.00010537  0.99927477  1
  Na  Na34  1  0.33194147  0.32754829  0.83353072  1
  Na  Na35  1  0.83682263  0.33422828  0.83187231  1
  Na  Na36  1  0.33531708  0.34210237  0.33150041  1
  Na  Na37  1  0.83486715  0.34163792  0.33163670  1
  Na  Na38  1  0.16407576  0.65813332  0.16827428  1
  Na  Na39  1  0.66417484  0.65792892  0.16838356  1
  Na  Na40  1  0.16379275  0.66943607  0.66822717  1
  Na  Na41  1  0.66728235  0.66783436  0.66676390  1
  Ti  Ti42  1  0.99106488  0.99442608  0.35318345  1
  Ti  Ti43  1  0.49274378  0.99513261  0.35323524  1
  Ti  Ti44  1  0.99257455  0.98803894  0.85458110  1
  Ti  Ti45  1  0.49976449  0.00152327  0.85266665  1
  Ti  Ti46  1  0.99412757  0.98301391  0.64613163  1
  Ti  Ti47  1  0.50005213  0.99948967  0.64895826  1
  Ti  Ti48  1  0.99411397  0.00468142  0.14654781  1
  Ti  Ti49  1  0.49504517  0.00576087  0.14686179  1
  Ti  Ti50  1  0.33649229  0.32880407  0.68359303  1
  Ti  Ti51  1  0.33302220  0.33481557  0.98016350  1
  Ti  Ti52  1  0.33356658  0.33475406  0.48003794  1
  Ti  Ti53  1  0.16502607  0.66403334  0.51927891  1
  Si  Si54  1  0.35061547  0.69792368  0.24954352  1
  Si  Si55  1  0.85041775  0.69736410  0.24951585  1
  Si  Si56  1  0.00150762  0.30197079  0.25018221  1
  Si  Si57  1  0.50171464  0.30210986  0.25037493  1
  Si  Si58  1  0.64760447  0.29498406  0.75037022  1
  Si  Si59  1  0.00295320  0.70365357  0.75011502  1
  Si  Si60  1  0.50056719  0.70739516  0.75117468  1
  Si  Si61  1  0.34932237  0.99462169  0.75113869  1
  Si  Si62  1  0.85439401  0.00567627  0.75008050  1
  Si  Si63  1  0.48132150  0.33588142  0.58138698  1
  Si  Si64  1  0.97521075  0.33246884  0.58387868  1
  Si  Si65  1  0.18768348  0.04284321  0.58300752  1
  Si  Si66  1  0.69143936  0.04708745  0.58266381  1
  Si  Si67  1  0.33310529  0.62326341  0.58442512  1
  Si  Si68  1  0.83040693  0.61324675  0.58263057  1
  Si  Si69  1  0.48045321  0.62517719  0.08273188  1
  Si  Si70  1  0.97877703  0.62157762  0.08150391  1
  Si  Si71  1  0.33048477  0.04567557  0.08416397  1
  Si  Si72  1  0.83040586  0.04870059  0.08320758  1
  Si  Si73  1  0.18995254  0.33503648  0.08454935  1
  Si  Si74  1  0.69185108  0.33535465  0.08314400  1
  Si  Si75  1  0.30748642  0.66663797  0.91567903  1
  Si  Si76  1  0.80720915  0.66088299  0.91796440  1
  Si  Si77  1  0.02382615  0.38298465  0.91666257  1
  Si  Si78  1  0.52488983  0.38342004  0.91646415  1
  Si  Si79  1  0.16672552  0.95400565  0.91782127  1
  Si  Si80  1  0.66801389  0.95373897  0.91784652  1
  Si  Si81  1  0.30748475  0.95087907  0.41481092  1
  Si  Si82  1  0.80605875  0.95150287  0.41674426  1
  Si  Si83  1  0.16620611  0.37501550  0.41599018  1
  Si  Si84  1  0.66808515  0.37869441  0.41858475  1
  Si  Si85  1  0.02215104  0.66482777  0.41527440  1
  Si  Si86  1  0.52589788  0.66784317  0.41558778  1
  Ge  Ge87  1  0.83611422  0.33490982  0.68698464  1
  Ge  Ge88  1  0.34179350  0.35129621  0.18350060  1
  Ge  Ge89  1  0.84166604  0.35124720  0.18332023  1
  Ge  Ge90  1  0.83336928  0.33327859  0.98020270  1
  Ge  Ge91  1  0.83346265  0.33252646  0.48038741  1
  Ge  Ge92  1  0.16609448  0.66575817  0.01942853  1
  Ge  Ge93  1  0.66666221  0.66651086  0.01998858  1
  Ge  Ge94  1  0.66685481  0.66775715  0.51939750  1
  Ge  Ge95  1  0.16556851  0.64940000  0.31587759  1
  Ge  Ge96  1  0.66654530  0.64873973  0.31641818  1
  Ge  Ge97  1  0.16495468  0.67978820  0.81668102  1
  Ge  Ge98  1  0.66762730  0.66854030  0.81417269  1
  S  S99  1  0.14477912  0.99996121  0.25000135  1
  S  S100  1  0.64508211  0.00002552  0.24997134  1
  S  S101  1  0.14396903  0.28927534  0.75034746  1
  O  O102  1  0.10430700  0.02667534  0.30540625  1
  O  O103  1  0.60459346  0.02689440  0.30535124  1
  O  O104  1  0.41413285  0.79652460  0.30917039  1
  O  O105  1  0.91374093  0.79584534  0.30905494  1
  O  O106  1  0.48290693  0.16836334  0.30826014  1
  O  O107  1  0.98274771  0.16845840  0.30816524  1
  O  O108  1  0.10432601  0.18252569  0.80552640  1
  O  O109  1  0.60253129  0.16719444  0.80913384  1
  O  O110  1  0.48183984  0.79822531  0.80985220  1
  O  O111  1  0.98391529  0.79986899  0.80837846  1
  O  O112  1  0.41594824  0.03599962  0.80953429  1
  O  O113  1  0.91550730  0.03178332  0.80987156  1
  O  O114  1  0.39674456  0.96143573  0.69147074  1
  O  O115  1  0.89943911  0.96462581  0.69153571  1
  O  O116  1  0.09067182  0.20810509  0.69467272  1
  O  O117  1  0.58306338  0.20574166  0.69109128  1
  O  O118  1  0.01663182  0.82968143  0.69074371  1
  O  O119  1  0.51922960  0.83298485  0.69138035  1
  O  O120  1  0.39890199  0.83198816  0.19175455  1
  O  O121  1  0.89848492  0.83153509  0.19175657  1
  O  O122  1  0.01563961  0.20318448  0.19081279  1
  O  O123  1  0.51586544  0.20382329  0.19085524  1
  O  O124  1  0.09087005  0.97323582  0.19453827  1
  O  O125  1  0.59106024  0.97340312  0.19459658  1
  O  O126  1  0.43745505  0.37417148  0.64159388  1
  O  O127  1  0.93197781  0.37631398  0.64193397  1
  O  O128  1  0.25326884  0.13694564  0.64089755  1
  O  O129  1  0.75322846  0.13112337  0.64338972  1
  O  O130  1  0.31477054  0.49737759  0.64359532  1
  O  O131  1  0.81184080  0.49420906  0.64347901  1
  O  O132  1  0.43845021  0.49436492  0.14068603  1
  O  O133  1  0.93814446  0.49350177  0.14031069  1
  O  O134  1  0.31215329  0.13287947  0.14465574  1
  O  O135  1  0.81207152  0.13353659  0.14427613  1
  O  O136  1  0.25603369  0.37457179  0.14234087  1
  O  O137  1  0.75654803  0.37533413  0.14190062  1
  O  O138  1  0.23168964  0.29581866  0.02365225  1
  O  O139  1  0.73231519  0.29305073  0.02183055  1
  O  O140  1  0.41654774  0.53903282  0.02332724  1
  O  O141  1  0.91444020  0.53780699  0.02168832  1
  O  O142  1  0.35231720  0.16953278  0.02429899  1
  O  O143  1  0.85391870  0.17295593  0.02288587  1
  O  O144  1  0.23146972  0.16752742  0.52337666  1
  O  O145  1  0.73274193  0.17165509  0.52229909  1
  O  O146  1  0.35166257  0.53476632  0.52437917  1
  O  O147  1  0.85415831  0.53541082  0.52232977  1
  O  O148  1  0.41640535  0.29655159  0.52320778  1
  O  O149  1  0.91414034  0.29076958  0.52196724  1
  O  O150  1  0.26642137  0.70679623  0.97718105  1
  O  O151  1  0.76785584  0.70787942  0.97795809  1
  O  O152  1  0.08545615  0.46337282  0.97798929  1
  O  O153  1  0.58701804  0.46651522  0.97727532  1
  O  O154  1  0.14506002  0.82849455  0.97793451  1
  O  O155  1  0.64717282  0.82799504  0.97764465  1
  O  O156  1  0.26748704  0.82933080  0.47537734  1
  O  O157  1  0.76771604  0.82755635  0.47719979  1
  O  O158  1  0.14651034  0.46065355  0.47615514  1
  O  O159  1  0.64559587  0.46254337  0.47824377  1
  O  O160  1  0.08362042  0.70450151  0.47634893  1
  O  O161  1  0.58624877  0.70791729  0.47767920  1
  O  O162  1  0.06828484  0.62524589  0.35767269  1
  O  O163  1  0.57051193  0.62724518  0.35734445  1
  O  O164  1  0.24487960  0.86399726  0.35460773  1
  O  O165  1  0.74545945  0.86669997  0.35560946  1
  O  O166  1  0.19019265  0.50654739  0.35855495  1
  O  O167  1  0.69152179  0.50648083  0.35969643  1
  O  O168  1  0.06774877  0.51130441  0.85816554  1
  O  O169  1  0.56697488  0.50717477  0.85602891  1
  O  O170  1  0.19015245  0.87316686  0.85889642  1
  O  O171  1  0.68830226  0.87042799  0.85682505  1
  O  O172  1  0.24436881  0.62481789  0.85514151  1
  O  O173  1  0.74770812  0.62511476  0.85650196  1
  O  O174  1  0.01295256  0.83936502  0.40933964  1
  O  O175  1  0.51498979  0.84080566  0.40966831  1
  O  O176  1  0.40591331  0.97315282  0.41046634  1
  O  O177  1  0.90447201  0.97376871  0.41107506  1
  O  O178  1  0.08011556  0.18195799  0.40884466  1
  O  O179  1  0.58205581  0.18574680  0.40960476  1
  O  O180  1  0.01376738  0.18894889  0.90994940  1
  O  O181  1  0.51410933  0.18905664  0.91161214  1
  O  O182  1  0.08081918  0.97683360  0.90987269  1
  O  O183  1  0.58147403  0.97447388  0.91183926  1
  O  O184  1  0.40519584  0.83933423  0.91130262  1
  O  O185  1  0.90501537  0.83567881  0.91177226  1
  O  O186  1  0.48844490  0.16107343  0.58839053  1
  O  O187  1  0.98782174  0.16198355  0.59090827  1
  O  O188  1  0.09221615  0.02740824  0.58992320  1
  O  O189  1  0.59413792  0.02525004  0.58872191  1
  O  O190  1  0.42043037  0.81556518  0.58888282  1
  O  O191  1  0.91769003  0.80972920  0.58837126  1
  O  O192  1  0.49038435  0.81724253  0.09119335  1
  O  O193  1  0.98916835  0.81461331  0.09036419  1
  O  O194  1  0.41795809  0.02444112  0.08950092  1
  O  O195  1  0.91751188  0.02562583  0.08885329  1
  O  O196  1  0.09330926  0.16029412  0.09081557  1
  O  O197  1  0.59469096  0.16194860  0.09020683  1
  O  O198  1  0.34577539  0.17438513  0.74428561  1
  O  O199  1  0.84242059  0.17483134  0.74363236  1
  O  O200  1  0.23302394  0.31042765  0.74568198  1
  O  O201  1  0.74328930  0.31060360  0.74334472  1
  O  O202  1  0.41244529  0.51665929  0.74527735  1
  O  O203  1  0.91059225  0.51937306  0.74306409  1
  O  O204  1  0.34351700  0.50783785  0.24276944  1
  O  O205  1  0.84348782  0.50766009  0.24276604  1
  O  O206  1  0.40798878  0.30022040  0.24255789  1
  O  O207  1  0.90786350  0.30013438  0.24251800  1
  O  O208  1  0.23347262  0.15661732  0.24585220  1
  O  O209  1  0.73365686  0.15701108  0.24581552  1
  O  O210  1  0.31884943  0.49465421  0.92100338  1
  O  O211  1  0.81987576  0.48990446  0.92285870  1
  O  O212  1  0.42758653  0.36123585  0.92151910  1
  O  O213  1  0.92545797  0.36038873  0.92308826  1
  O  O214  1  0.25324170  0.14740092  0.92259207  1
  O  O215  1  0.75580506  0.14943352  0.92321338  1
  O  O216  1  0.32020082  0.14527406  0.42051589  1
  O  O217  1  0.81957787  0.14853198  0.42247899  1
  O  O218  1  0.25337874  0.35746753  0.42194841  1
  O  O219  1  0.75592571  0.35961026  0.42415434  1
  O  O220  1  0.42834853  0.49589692  0.42169305  1
  O  O221  1  0.92496206  0.48993185  0.42248172  1
  O  O222  1  0.17991833  0.50929347  0.07751001  1
  O  O223  1  0.68066889  0.50928275  0.07693313  1
  O  O224  1  0.07615255  0.64080351  0.07611279  1
  O  O225  1  0.57705843  0.64181238  0.07663410  1
  O  O226  1  0.24489520  0.84967077  0.07772152  1
  O  O227  1  0.74531521  0.85148961  0.07738834  1
  O  O228  1  0.17905048  0.85199087  0.57842587  1
  O  O229  1  0.68093668  0.85111079  0.57670984  1
  O  O230  1  0.24625172  0.64149325  0.57852663  1
  O  O231  1  0.74520018  0.64026678  0.57674575  1
  O  O232  1  0.07229296  0.50524651  0.57793613  1
  O  O233  1  0.57704026  0.51325414  0.57700045  1
  O  O234  1  0.15471212  0.84286871  0.25411234  1
  O  O235  1  0.65501450  0.84325314  0.25409340  1
  O  O236  1  0.25784290  0.69952881  0.25701823  1
  O  O237  1  0.75785060  0.69977799  0.25739597  1
  O  O238  1  0.08921441  0.49240892  0.25692115  1
  O  O239  1  0.58960684  0.49239858  0.25707195  1
  O  O240  1  0.15427759  0.46617987  0.75445584  1
  O  O241  1  0.65482358  0.48678647  0.75658282  1
  O  O242  1  0.09015447  0.68711655  0.75723053  1
  O  O243  1  0.58905606  0.69153064  0.75652127  1
  O  O244  1  0.25634021  0.81130237  0.75734801  1
  O  O245  1  0.75865407  0.82519769  0.75668162  1
