# generated using pymatgen
data_Na8CaZr3Si5SO24
_symmetry_space_group_name_H-M   'P 1'
_cell_length_a   9.38200676
_cell_length_b   9.36471305
_cell_length_c   22.75058422
_cell_angle_alpha   90.27362670
_cell_angle_beta   89.75412609
_cell_angle_gamma   119.97009795
_symmetry_Int_Tables_number   1
_chemical_formula_structural   Na8CaZr3Si5SO24
_chemical_formula_sum   'Na24 Ca3 Zr9 Si15 S3 O72'
_cell_volume   1731.56252272
_cell_formula_units_Z   3
loop_
 _symmetry_equiv_pos_site_id
 _symmetry_equiv_pos_as_xyz
  1  'x, y, z'
loop_
 _atom_site_type_symbol
 _atom_site_label
 _atom_site_symmetry_multiplicity
 _atom_site_fract_x
 _atom_site_fract_y
 _atom_site_fract_z
 _atom_site_occupancy
  Na  Na0  1  0.65430630  0.02842791  0.24389729  1
  Na  Na1  1  0.35679651  0.36240046  0.23580346  1
  Na  Na2  1  0.99327288  0.61646102  0.23819770  1
  Na  Na3  1  0.63009043  0.61362505  0.74588284  1
  Na  Na4  1  0.98636200  0.36686251  0.75645168  1
  Na  Na5  1  0.38792356  0.01343219  0.74656793  1
  Na  Na6  1  0.32743834  0.33783813  0.59233911  1
  Na  Na7  1  0.02887711  0.70654676  0.57998162  1
  Na  Na8  1  0.65418413  0.96564915  0.59705169  1
  Na  Na9  1  0.31373658  0.97161464  0.07444955  1
  Na  Na10  1  0.66074483  0.68679556  0.07308014  1
  Na  Na11  1  0.02573572  0.35133820  0.07664580  1
  Na  Na12  1  0.96534415  0.66509034  0.91257022  1
  Na  Na13  1  0.69951409  0.03494758  0.91237055  1
  Na  Na14  1  0.33573466  0.29984245  0.91266519  1
  Na  Na15  1  0.96283971  0.28186726  0.40923209  1
  Na  Na16  1  0.31625588  0.02550993  0.42218290  1
  Na  Na17  1  0.71508540  0.68414186  0.42272946  1
  Na  Na18  1  0.00038475  0.99344904  0.49563105  1
  Na  Na19  1  0.00061643  0.99935268  0.99398416  1
  Na  Na20  1  0.66571856  0.33281462  0.82579484  1
  Na  Na21  1  0.69261850  0.33093863  0.33546835  1
  Na  Na22  1  0.32443767  0.65805834  0.15593763  1
  Na  Na23  1  0.34725366  0.67864785  0.67378705  1
  Ca  Ca24  1  0.99951483  0.00374087  0.35339839  1
  Ca  Ca25  1  0.65994500  0.33083232  0.68565049  1
  Ca  Ca26  1  0.67095581  0.33385559  0.17524389  1
  Zr  Zr27  1  0.99948177  0.99845971  0.85222385  1
  Zr  Zr28  1  0.00218834  0.99172811  0.65144029  1
  Zr  Zr29  1  0.00230146  0.01663479  0.14261447  1
  Zr  Zr30  1  0.66931645  0.33582815  0.98335601  1
  Zr  Zr31  1  0.65485130  0.33570821  0.48004359  1
  Zr  Zr32  1  0.33321555  0.66690815  0.01423555  1
  Zr  Zr33  1  0.33919940  0.67413859  0.51659167  1
  Zr  Zr34  1  0.32494726  0.65638629  0.31900903  1
  Zr  Zr35  1  0.33590898  0.66709992  0.81453115  1
  Si  Si36  1  0.00366974  0.30802405  0.25357351  1
  Si  Si37  1  0.28941534  0.29732019  0.75092942  1
  Si  Si38  1  0.00903787  0.70530356  0.75216795  1
  Si  Si39  1  0.70404844  0.99346867  0.75126004  1
  Si  Si40  1  0.36195243  0.02892783  0.58417003  1
  Si  Si41  1  0.66738031  0.64048099  0.58468342  1
  Si  Si42  1  0.97383062  0.64031781  0.08593969  1
  Si  Si43  1  0.66043871  0.02768581  0.08601705  1
  Si  Si44  1  0.36717672  0.33978903  0.08576585  1
  Si  Si45  1  0.63112181  0.66352585  0.91643968  1
  Si  Si46  1  0.03421183  0.36922060  0.91629117  1
  Si  Si47  1  0.33654989  0.96691697  0.91678572  1
  Si  Si48  1  0.62350399  0.96648981  0.41449791  1
  Si  Si49  1  0.33847573  0.37288858  0.41885583  1
  Si  Si50  1  0.03002202  0.65382798  0.41874878  1
  S  S51  1  0.29529843  0.99262842  0.25047527  1
  S  S52  1  0.69762715  0.70502290  0.25009267  1
  S  S53  1  0.96537953  0.33131485  0.58165834  1
  O  O54  1  0.21391850  0.99537637  0.30490055  1
  O  O55  1  0.78779122  0.77917335  0.30442438  1
  O  O56  1  0.99276416  0.21284186  0.31328930  1
  O  O57  1  0.18658422  0.18750388  0.80850472  1
  O  O58  1  0.99584563  0.80424931  0.80988586  1
  O  O59  1  0.81075409  0.99967426  0.80942754  1
  O  O60  1  0.80066877  0.98223237  0.69124693  1
  O  O61  1  0.18246013  0.20208650  0.69083726  1
  O  O62  1  0.02031750  0.81493160  0.69265128  1
  O  O63  1  0.79242112  0.80569621  0.19813141  1
  O  O64  1  0.01754477  0.19853182  0.19663611  1
  O  O65  1  0.19433214  0.98397894  0.19829724  1
  O  O66  1  0.89294199  0.35421225  0.63563531  1
  O  O67  1  0.47541955  0.09417170  0.64169729  1
  O  O68  1  0.63180893  0.53156517  0.64282216  1
  O  O69  1  0.91069519  0.53607062  0.14568204  1
  O  O70  1  0.62438056  0.08777606  0.14761840  1
  O  O71  1  0.46110318  0.36984246  0.14728731  1
  O  O72  1  0.46978872  0.31307958  0.03193494  1
  O  O73  1  0.84414324  0.54002665  0.03160544  1
  O  O74  1  0.69361449  0.15945614  0.03238965  1
  O  O75  1  0.46545671  0.15156469  0.52722817  1
  O  O76  1  0.69056397  0.53929186  0.52750853  1
  O  O77  1  0.86398182  0.31992319  0.52947150  1
  O  O78  1  0.53875181  0.68491505  0.97443880  1
  O  O79  1  0.14733961  0.46090890  0.97420796  1
  O  O80  1  0.31303996  0.85277444  0.97459307  1
  O  O81  1  0.51655501  0.85342236  0.47077483  1
  O  O82  1  0.32468729  0.47127766  0.47591596  1
  O  O83  1  0.13965039  0.66575780  0.47598131  1
  O  O84  1  0.12956378  0.64059484  0.35936459  1
  O  O85  1  0.51260921  0.87242369  0.35484488  1
  O  O86  1  0.35659674  0.48654582  0.35973710  1
  O  O87  1  0.12678560  0.48671095  0.85898145  1
  O  O88  1  0.36255367  0.87346648  0.85980294  1
  O  O89  1  0.51359916  0.63840034  0.85934864  1
  O  O90  1  0.00800327  0.81374623  0.41673348  1
  O  O91  1  0.80093519  0.97865820  0.41796208  1
  O  O92  1  0.18627092  0.18717967  0.41824776  1
  O  O93  1  0.01177508  0.18354672  0.91419713  1
  O  O94  1  0.17309619  0.98845854  0.91443552  1
  O  O95  1  0.81590964  0.82734281  0.91494423  1
  O  O96  1  0.97544612  0.17737425  0.58282323  1
  O  O97  1  0.18446866  0.02808628  0.58525000  1
  O  O98  1  0.83736591  0.82393507  0.58455930  1
  O  O99  1  0.98709957  0.82311018  0.09127059  1
  O  O100  1  0.83154893  0.01397331  0.08826269  1
  O  O101  1  0.18415766  0.16646060  0.08694585  1
  O  O102  1  0.68837539  0.15730916  0.75212620  1
  O  O103  1  0.46877352  0.31318502  0.75295538  1
  O  O104  1  0.84899484  0.52383578  0.75087006  1
  O  O105  1  0.66691936  0.53369096  0.24646708  1
  O  O106  1  0.84111731  0.32860408  0.24986660  1
  O  O107  1  0.46113823  0.14273418  0.24830577  1
  O  O108  1  0.64805036  0.49771007  0.92214186  1
  O  O109  1  0.85238478  0.35385355  0.92222528  1
  O  O110  1  0.50261600  0.14908243  0.92328622  1
  O  O111  1  0.63835452  0.14885005  0.41948898  1
  O  O112  1  0.51374933  0.37045757  0.41956521  1
  O  O113  1  0.85250537  0.48094036  0.41994474  1
  O  O114  1  0.33107268  0.49207216  0.07586608  1
  O  O115  1  0.16021977  0.66976296  0.07532616  1
  O  O116  1  0.50839368  0.84004321  0.07488056  1
  O  O117  1  0.31933504  0.83553457  0.57608736  1
  O  O118  1  0.50606643  0.66812797  0.57781370  1
  O  O119  1  0.13616234  0.47544738  0.57711552  1
  O  O120  1  0.31178059  0.84019707  0.24800420  1
  O  O121  1  0.53476038  0.70147624  0.24926577  1
  O  O122  1  0.18044650  0.49231851  0.24950521  1
  O  O123  1  0.29850003  0.47795916  0.75209303  1
  O  O124  1  0.18286838  0.70257247  0.75236560  1
  O  O125  1  0.52406661  0.82178130  0.75230370  1
