# generated using pymatgen
data_Na2HfSiGe(PO6)2
_symmetry_space_group_name_H-M   'P 1'
_cell_length_a   8.75539240
_cell_length_b   8.73977884
_cell_length_c   22.30837457
_cell_angle_alpha   90.04018006
_cell_angle_beta   89.80114873
_cell_angle_gamma   119.78987563
_symmetry_Int_Tables_number   1
_chemical_formula_structural   Na2HfSiGe(PO6)2
_chemical_formula_sum   'Na12 Hf6 Si6 Ge6 P12 O72'
_cell_volume   1481.45125470
_cell_formula_units_Z   6
loop_
 _symmetry_equiv_pos_site_id
 _symmetry_equiv_pos_as_xyz
  1  'x, y, z'
loop_
 _atom_site_type_symbol
 _atom_site_label
 _atom_site_symmetry_multiplicity
 _atom_site_fract_x
 _atom_site_fract_y
 _atom_site_fract_z
 _atom_site_occupancy
  Na  Na0  1  0.00021381  0.63014044  0.25041646  1
  Na  Na1  1  0.36776890  0.00134534  0.74868631  1
  Na  Na2  1  0.66600623  0.96579250  0.58406779  1
  Na  Na3  1  0.02915529  0.33511074  0.08633324  1
  Na  Na4  1  0.97452018  0.66989534  0.91859619  1
  Na  Na5  1  0.33192841  0.02977973  0.41832762  1
  Na  Na6  1  0.00069093  0.99931145  0.50036010  1
  Na  Na7  1  0.00309279  0.99727646  0.00160720  1
  Na  Na8  1  0.66551061  0.32871151  0.83150396  1
  Na  Na9  1  0.67160349  0.33392373  0.33657937  1
  Na  Na10  1  0.34375254  0.67115672  0.16694833  1
  Na  Na11  1  0.32747497  0.65435149  0.66377354  1
  Hf  Hf12  1  0.99829066  0.00598790  0.85051830  1
  Hf  Hf13  1  0.66655282  0.32938687  0.18955905  1
  Hf  Hf14  1  0.66120949  0.33013415  0.98231414  1
  Hf  Hf15  1  0.33408524  0.67425482  0.02081847  1
  Hf  Hf16  1  0.32889348  0.65829952  0.31417308  1
  Hf  Hf17  1  0.34125423  0.67014815  0.80974060  1
  Si  Si18  1  0.00049158  0.27386737  0.25088385  1
  Si  Si19  1  0.71778577  0.01053754  0.74279137  1
  Si  Si20  1  0.37426087  0.04656162  0.58239257  1
  Si  Si21  1  0.95962466  0.63899201  0.08574917  1
  Si  Si22  1  0.33654398  0.96607858  0.91451507  1
  Si  Si23  1  0.03081869  0.66111788  0.41855209  1
  Ge  Ge24  1  0.99168786  0.99572273  0.35452758  1
  Ge  Ge25  1  0.00528534  0.99944539  0.64604012  1
  Ge  Ge26  1  0.00115543  0.99743206  0.14860850  1
  Ge  Ge27  1  0.66960751  0.33124475  0.68256108  1
  Ge  Ge28  1  0.66907772  0.33912530  0.48327576  1
  Ge  Ge29  1  0.32334219  0.66947902  0.51868926  1
  P  P30  1  0.28006294  0.00292127  0.25201742  1
  P  P31  1  0.72013885  0.72421811  0.25036579  1
  P  P32  1  0.29208701  0.28765072  0.74379859  1
  P  P33  1  0.98798024  0.70262265  0.74546551  1
  P  P34  1  0.95713401  0.33749990  0.58244365  1
  P  P35  1  0.66544738  0.61738933  0.58330466  1
  P  P36  1  0.67258653  0.03823628  0.08606102  1
  P  P37  1  0.36764870  0.32564367  0.08663520  1
  P  P38  1  0.62540173  0.66620128  0.91633913  1
  P  P39  1  0.04306016  0.37471541  0.91736551  1
  P  P40  1  0.62842179  0.95885513  0.41954776  1
  P  P41  1  0.33395356  0.37672874  0.42079521  1
  O  O42  1  0.19855912  0.02769570  0.31027311  1
  O  O43  1  0.83709945  0.79843598  0.30684097  1
  O  O44  1  0.96939940  0.15532085  0.31062970  1
  O  O45  1  0.21656722  0.17243287  0.80115895  1
  O  O46  1  0.96213638  0.78144160  0.80447842  1
  O  O47  1  0.82850891  0.03997563  0.80376014  1
  O  O48  1  0.80854207  0.97208883  0.68470522  1
  O  O49  1  0.17140820  0.19894803  0.69027275  1
  O  O50  1  0.03578988  0.83407371  0.69272464  1
  O  O51  1  0.80252857  0.83350024  0.19339857  1
  O  O52  1  0.03009263  0.19238340  0.18830745  1
  O  O53  1  0.16245025  0.96263197  0.19571454  1
  O  O54  1  0.87637317  0.37318838  0.63927481  1
  O  O55  1  0.50396783  0.13013084  0.64118328  1
  O  O56  1  0.63343589  0.50101614  0.63980367  1
  O  O57  1  0.87184567  0.50799947  0.14303849  1
  O  O58  1  0.63815676  0.12275131  0.14028209  1
  O  O59  1  0.48286116  0.35564122  0.14058363  1
  O  O60  1  0.45062860  0.29625925  0.02955068  1
  O  O61  1  0.84671719  0.55140616  0.02476337  1
  O  O62  1  0.70587097  0.15595789  0.03017324  1
  O  O63  1  0.46695598  0.16760170  0.52249664  1
  O  O64  1  0.70144692  0.53702317  0.52721949  1
  O  O65  1  0.83258243  0.29507655  0.52784789  1
  O  O66  1  0.54135476  0.69248951  0.97245265  1
  O  O67  1  0.15085700  0.45446850  0.97475972  1
  O  O68  1  0.29781518  0.83709500  0.97195040  1
  O  O69  1  0.54505899  0.84204977  0.47653267  1
  O  O70  1  0.30167747  0.46667003  0.47560833  1
  O  O71  1  0.17334490  0.71191662  0.47392502  1
  O  O72  1  0.11657578  0.63009210  0.35765071  1
  O  O73  1  0.50761099  0.87638386  0.36444069  1
  O  O74  1  0.36800628  0.48916109  0.36366625  1
  O  O75  1  0.13018031  0.49248710  0.86231718  1
  O  O76  1  0.36043240  0.87396738  0.85428543  1
  O  O77  1  0.51190412  0.63664900  0.86041858  1
  O  O78  1  0.02436705  0.84792821  0.40908312  1
  O  O79  1  0.81176209  0.97638169  0.41153424  1
  O  O80  1  0.17053955  0.18954107  0.41305356  1
  O  O81  1  0.02233161  0.19084122  0.91203843  1
  O  O82  1  0.15497328  0.97289566  0.91067095  1
  O  O83  1  0.80960312  0.82919612  0.91046173  1
  O  O84  1  0.97058032  0.16652754  0.58912183  1
  O  O85  1  0.17678481  0.02256073  0.59163465  1
  O  O86  1  0.82962809  0.80693543  0.58952904  1
  O  O87  1  0.97934695  0.83256321  0.09387222  1
  O  O88  1  0.84392627  0.02982654  0.09158558  1
  O  O89  1  0.18076588  0.16166343  0.09122240  1
  O  O90  1  0.68926704  0.18371969  0.73827445  1
  O  O91  1  0.47758694  0.30533917  0.73812162  1
  O  O92  1  0.82185034  0.52124297  0.73775772  1
  O  O93  1  0.70019312  0.53833940  0.24543201  1
  O  O94  1  0.83114473  0.30610114  0.24782257  1
  O  O95  1  0.46179169  0.16502307  0.24677543  1
  O  O96  1  0.65146755  0.50547187  0.92066004  1
  O  O97  1  0.86309592  0.36363884  0.92258175  1
  O  O98  1  0.50983085  0.15549748  0.92020037  1
  O  O99  1  0.63960663  0.14228352  0.42633655  1
  O  O100  1  0.49834518  0.35219544  0.42644838  1
  O  O101  1  0.83865537  0.48554302  0.42859850  1
  O  O102  1  0.34535617  0.48838183  0.07954479  1
  O  O103  1  0.14870240  0.64402365  0.08093504  1
  O  O104  1  0.51143873  0.85523790  0.07965189  1
  O  O105  1  0.36393424  0.85026109  0.57475726  1
  O  O106  1  0.50067987  0.64183505  0.57620764  1
  O  O107  1  0.14322227  0.50196240  0.57462807  1
  O  O108  1  0.30019744  0.83579651  0.25617935  1
  O  O109  1  0.53614254  0.70460599  0.25598071  1
  O  O110  1  0.17132593  0.47553253  0.25364348  1
  O  O111  1  0.30754708  0.46862061  0.75141662  1
  O  O112  1  0.15561825  0.68614890  0.75199158  1
  O  O113  1  0.51933927  0.83733255  0.74870745  1
