# generated using pymatgen
data_Na5Nb2Si5Ge2PO24
_symmetry_space_group_name_H-M   'P 1'
_cell_length_a   8.84922168
_cell_length_b   8.85080030
_cell_length_c   22.09799909
_cell_angle_alpha   89.97880365
_cell_angle_beta   90.12345818
_cell_angle_gamma   119.97095764
_symmetry_Int_Tables_number   1
_chemical_formula_structural   Na5Nb2Si5Ge2PO24
_chemical_formula_sum   'Na15 Nb6 Si15 Ge6 P3 O72'
_cell_volume   1499.32944055
_cell_formula_units_Z   3
loop_
 _symmetry_equiv_pos_site_id
 _symmetry_equiv_pos_as_xyz
  1  'x, y, z'
loop_
 _atom_site_type_symbol
 _atom_site_label
 _atom_site_symmetry_multiplicity
 _atom_site_fract_x
 _atom_site_fract_y
 _atom_site_fract_z
 _atom_site_occupancy
  Na  Na0  1  0.63602183  0.00164090  0.24769763  1
  Na  Na1  1  0.36711020  0.36484644  0.24686648  1
  Na  Na2  1  0.99638698  0.63137042  0.24718133  1
  Na  Na3  1  0.99987784  0.36649333  0.75004950  1
  Na  Na4  1  0.03125182  0.69793581  0.57851033  1
  Na  Na5  1  0.66376183  0.96652440  0.57861115  1
  Na  Na6  1  0.96501278  0.66573259  0.92000219  1
  Na  Na7  1  0.70052304  0.03320401  0.91847423  1
  Na  Na8  1  0.33153780  0.29971574  0.92106837  1
  Na  Na9  1  0.00861074  0.00936353  0.49221186  1
  Na  Na10  1  0.00181281  0.00049288  0.00234890  1
  Na  Na11  1  0.65893040  0.33154112  0.83365206  1
  Na  Na12  1  0.66861617  0.33385619  0.33282834  1
  Na  Na13  1  0.33262153  0.66416533  0.15953211  1
  Na  Na14  1  0.34170886  0.66409121  0.66342537  1
  Nb  Nb15  1  0.00287117  0.00332117  0.64410809  1
  Nb  Nb16  1  0.00451387  0.99982210  0.14060633  1
  Nb  Nb17  1  0.66237837  0.33454764  0.68814300  1
  Nb  Nb18  1  0.66908631  0.33221326  0.47394287  1
  Nb  Nb19  1  0.33126114  0.66788795  0.31329656  1
  Nb  Nb20  1  0.33386106  0.67490602  0.81215025  1
  Si  Si21  1  0.28834919  0.00808936  0.25111203  1
  Si  Si22  1  0.71789358  0.71154355  0.24974292  1
  Si  Si23  1  0.99204395  0.27882478  0.25047602  1
  Si  Si24  1  0.28928238  0.28485810  0.75417893  1
  Si  Si25  1  0.99620697  0.71775555  0.75360714  1
  Si  Si26  1  0.71588294  0.99770525  0.75273158  1
  Si  Si27  1  0.96651167  0.34182547  0.58144518  1
  Si  Si28  1  0.37754888  0.04089034  0.58023514  1
  Si  Si29  1  0.65355834  0.61817286  0.58003709  1
  Si  Si30  1  0.95145716  0.61034114  0.08181985  1
  Si  Si31  1  0.38985266  0.34563596  0.08112830  1
  Si  Si32  1  0.03995668  0.37293055  0.91957847  1
  Si  Si33  1  0.33287588  0.95758353  0.92216900  1
  Si  Si34  1  0.63156933  0.95148397  0.41801771  1
  Si  Si35  1  0.04926817  0.68128891  0.41808934  1
  Ge  Ge36  1  0.99452104  0.99377611  0.35347597  1
  Ge  Ge37  1  0.00768545  0.00581277  0.85397733  1
  Ge  Ge38  1  0.66777179  0.33885665  0.18488571  1
  Ge  Ge39  1  0.66551402  0.32868894  0.98386898  1
  Ge  Ge40  1  0.31898543  0.65635448  0.02360917  1
  Ge  Ge41  1  0.33433119  0.66817076  0.51836555  1
  P  P42  1  0.65810759  0.04344466  0.08223062  1
  P  P43  1  0.62246773  0.66791448  0.91943940  1
  P  P44  1  0.32331321  0.37410885  0.41802099  1
  O  O45  1  0.20207872  0.04989413  0.30877660  1
  O  O46  1  0.84473395  0.79476290  0.30833485  1
  O  O47  1  0.95251348  0.15286826  0.30901632  1
  O  O48  1  0.20534118  0.17130573  0.81539525  1
  O  O49  1  0.96915955  0.80485478  0.81440027  1
  O  O50  1  0.84019248  0.03597635  0.81248706  1
  O  O51  1  0.80011560  0.97100584  0.69085433  1
  O  O52  1  0.16273123  0.19632215  0.69515788  1
  O  O53  1  0.02752144  0.82914828  0.69167858  1
  O  O54  1  0.80014760  0.84034355  0.19157452  1
  O  O55  1  0.03737659  0.19756278  0.19161358  1
  O  O56  1  0.16079173  0.96064864  0.19187467  1
  O  O57  1  0.87983721  0.37476239  0.64299706  1
  O  O58  1  0.50448556  0.13237125  0.63995345  1
  O  O59  1  0.63204909  0.50004970  0.64102246  1
  O  O60  1  0.86638221  0.49734252  0.14393396  1
  O  O61  1  0.63232824  0.12748653  0.14036495  1
  O  O62  1  0.50057872  0.36697436  0.14356077  1
  O  O63  1  0.46960827  0.30391175  0.02035298  1
  O  O64  1  0.83287686  0.52662895  0.02063267  1
  O  O65  1  0.69304235  0.15660606  0.02405202  1
  O  O66  1  0.46931212  0.16815076  0.52363095  1
  O  O67  1  0.70400692  0.53271988  0.52489723  1
  O  O68  1  0.82930276  0.29812816  0.52591703  1
  O  O69  1  0.53948781  0.70784313  0.97399067  1
  O  O70  1  0.17895374  0.46322628  0.97470298  1
  O  O71  1  0.29164300  0.81918223  0.97661064  1
  O  O72  1  0.53720080  0.83488360  0.47830591  1
  O  O73  1  0.30044335  0.46627904  0.47350797  1
  O  O74  1  0.16629111  0.70137938  0.47817843  1
  O  O75  1  0.13492303  0.64203262  0.35771100  1
  O  O76  1  0.50767722  0.86060672  0.35783036  1
  O  O77  1  0.35432899  0.48667888  0.35947788  1
  O  O78  1  0.12399486  0.49600758  0.85883320  1
  O  O79  1  0.37262745  0.87121065  0.86182814  1
  O  O80  1  0.50450719  0.63433698  0.86261567  1
  O  O81  1  0.03760085  0.85643639  0.41009370  1
  O  O82  1  0.82274048  0.97295167  0.41056670  1
  O  O83  1  0.16154794  0.19528256  0.41156879  1
  O  O84  1  0.01816913  0.17622888  0.91236326  1
  O  O85  1  0.15604644  0.97392820  0.91351942  1
  O  O86  1  0.80686643  0.83206953  0.91260681  1
  O  O87  1  0.97396716  0.16196326  0.58705798  1
  O  O88  1  0.18239231  0.01402262  0.58734718  1
  O  O89  1  0.82982358  0.81125244  0.58844205  1
  O  O90  1  0.96868607  0.80498179  0.08662275  1
  O  O91  1  0.82498216  0.02833306  0.08679045  1
  O  O92  1  0.19313481  0.17005604  0.08685349  1
  O  O93  1  0.70238447  0.17442681  0.74669059  1
  O  O94  1  0.48008158  0.30418781  0.74700714  1
  O  O95  1  0.83141914  0.51960205  0.74836422  1
  O  O96  1  0.69318769  0.51473057  0.24321299  1
  O  O97  1  0.82016614  0.30326236  0.24224201  1
  O  O98  1  0.48528196  0.17557329  0.24189874  1
  O  O99  1  0.64041066  0.50212796  0.92213166  1
  O  O100  1  0.84460496  0.35354585  0.92499003  1
  O  O101  1  0.50915496  0.15264183  0.92524761  1
  O  O102  1  0.64143008  0.14225818  0.42050966  1
  O  O103  1  0.49205882  0.36179742  0.42199507  1
  O  O104  1  0.85648772  0.50356060  0.42154709  1
  O  O105  1  0.37313220  0.52182683  0.07503656  1
  O  O106  1  0.14771722  0.63515874  0.07706980  1
  O  O107  1  0.49432536  0.86117257  0.07570498  1
  O  O108  1  0.36032036  0.84889549  0.57685261  1
  O  O109  1  0.48578045  0.64362242  0.57550692  1
  O  O110  1  0.15378197  0.51662458  0.57456994  1
  O  O111  1  0.30975287  0.83310304  0.25572852  1
  O  O112  1  0.52021341  0.68526156  0.25557461  1
  O  O113  1  0.16582410  0.47540180  0.25581773  1
  O  O114  1  0.30186551  0.47504654  0.75803556  1
  O  O115  1  0.16877873  0.69212580  0.75704107  1
  O  O116  1  0.52321111  0.82528460  0.75703765  1
