# generated using pymatgen
data_HgP14Pb
_symmetry_space_group_name_H-M   'P 1'
_cell_length_a   9.85931554
_cell_length_b   11.04056212
_cell_length_c   13.21364566
_cell_angle_alpha   90.00000000
_cell_angle_beta   90.00000000
_cell_angle_gamma   90.00000000
_symmetry_Int_Tables_number   1
_chemical_formula_structural   HgP14Pb
_chemical_formula_sum   'Hg4 P56 Pb4'
_cell_volume   1438.33685362
_cell_formula_units_Z   4
loop_
 _symmetry_equiv_pos_site_id
 _symmetry_equiv_pos_as_xyz
  1  'x, y, z'
loop_
 _atom_site_type_symbol
 _atom_site_label
 _atom_site_symmetry_multiplicity
 _atom_site_fract_x
 _atom_site_fract_y
 _atom_site_fract_z
 _atom_site_occupancy
  Hg  Hg0  1  0.25000000  0.00044297  0.18578457  1
  Hg  Hg1  1  0.25000000  0.49955703  0.68578457  1
  Hg  Hg2  1  0.75000000  0.50044297  0.31421543  1
  Hg  Hg3  1  0.75000000  0.99955703  0.81421543  1
  P  P4  1  0.92297623  0.67425246  0.82195533  1
  P  P5  1  0.54828826  0.63597406  0.36184354  1
  P  P6  1  0.04828826  0.36402594  0.63815646  1
  P  P7  1  0.45171174  0.13597406  0.13815646  1
  P  P8  1  0.75000000  0.33972527  0.47160478  1
  P  P9  1  0.25000000  0.66027473  0.52839522  1
  P  P10  1  0.25000000  0.83972527  0.02839522  1
  P  P11  1  0.75000000  0.16027473  0.97160478  1
  P  P12  1  0.07684682  0.34710474  0.47495401  1
  P  P13  1  0.57684682  0.65289526  0.52504599  1
  P  P14  1  0.92315318  0.84710474  0.02504599  1
  P  P15  1  0.42315318  0.15289526  0.97495401  1
  P  P16  1  0.92315318  0.65289526  0.52504599  1
  P  P17  1  0.42315318  0.34710474  0.47495401  1
  P  P18  1  0.07684682  0.15289526  0.97495401  1
  P  P19  1  0.57684682  0.84710474  0.02504599  1
  P  P20  1  0.25000000  0.22354924  0.45011306  1
  P  P21  1  0.75000000  0.77645076  0.54988694  1
  P  P22  1  0.75000000  0.72354924  0.04988694  1
  P  P23  1  0.25000000  0.27645076  0.95011306  1
  P  P24  1  0.58315020  0.21363690  0.43997936  1
  P  P25  1  0.08315020  0.78636310  0.56002064  1
  P  P26  1  0.41684980  0.71363690  0.06002064  1
  P  P27  1  0.91684980  0.28636310  0.93997936  1
  P  P28  1  0.41684980  0.78636310  0.56002064  1
  P  P29  1  0.91684980  0.21363690  0.43997936  1
  P  P30  1  0.58315020  0.28636310  0.93997936  1
  P  P31  1  0.08315020  0.71363690  0.06002064  1
  P  P32  1  0.25000000  0.39306616  0.08849500  1
  P  P33  1  0.75000000  0.60693384  0.91150500  1
  P  P34  1  0.75000000  0.89306616  0.41150500  1
  P  P35  1  0.25000000  0.10693384  0.58849500  1
  P  P36  1  0.57859745  0.40988117  0.07937213  1
  P  P37  1  0.07859745  0.59011883  0.92062787  1
  P  P38  1  0.42140255  0.90988117  0.42062787  1
  P  P39  1  0.92140255  0.09011883  0.57937213  1
  P  P40  1  0.42140255  0.59011883  0.92062787  1
  P  P41  1  0.92140255  0.40988117  0.07937213  1
  P  P42  1  0.57859745  0.09011883  0.57937213  1
  P  P43  1  0.07859745  0.90988117  0.42062787  1
  P  P44  1  0.75000000  0.34627811  0.17174913  1
  P  P45  1  0.25000000  0.65372189  0.82825087  1
  P  P46  1  0.25000000  0.84627811  0.32825087  1
  P  P47  1  0.75000000  0.15372189  0.67174913  1
  P  P48  1  0.07702377  0.32574754  0.17804467  1
  P  P49  1  0.57702377  0.67425246  0.82195533  1
  P  P50  1  0.92297623  0.82574754  0.32195533  1
  P  P51  1  0.42297623  0.17425246  0.67804467  1
  P  P52  1  0.45171174  0.36402594  0.63815646  1
  P  P53  1  0.42297623  0.32574754  0.17804467  1
  P  P54  1  0.07702377  0.17425246  0.67804467  1
  P  P55  1  0.57702377  0.82574754  0.32195533  1
  P  P56  1  0.04828826  0.13597406  0.13815646  1
  P  P57  1  0.54828826  0.86402594  0.86184354  1
  P  P58  1  0.95171174  0.63597406  0.36184354  1
  P  P59  1  0.95171174  0.86402594  0.86184354  1
  Pb  Pb60  1  0.75000000  0.09122163  0.17406152  1
  Pb  Pb61  1  0.25000000  0.90877837  0.82593848  1
  Pb  Pb62  1  0.25000000  0.59122163  0.32593848  1
  Pb  Pb63  1  0.75000000  0.40877837  0.67406152  1
