# generated using pymatgen
data_Na6Hf4Al4Si5S7O48
_symmetry_space_group_name_H-M   'P 1'
_cell_length_a   17.48620466
_cell_length_b   8.76951876
_cell_length_c   22.53078420
_cell_angle_alpha   90.02465906
_cell_angle_beta   89.78853483
_cell_angle_gamma   120.28792116
_symmetry_Int_Tables_number   1
_chemical_formula_structural   Na6Hf4Al4Si5S7O48
_chemical_formula_sum   'Na18 Hf12 Al12 Si15 S21 O144'
_cell_volume   2983.37170625
_cell_formula_units_Z   3
loop_
 _symmetry_equiv_pos_site_id
 _symmetry_equiv_pos_as_xyz
  1  'x, y, z'
loop_
 _atom_site_type_symbol
 _atom_site_label
 _atom_site_symmetry_multiplicity
 _atom_site_fract_x
 _atom_site_fract_y
 _atom_site_fract_z
 _atom_site_occupancy
  Na  Na0  1  0.00131066  0.63049716  0.25553307  1
  Na  Na1  1  0.49524084  0.64111637  0.25134789  1
  Na  Na2  1  0.99494960  0.35326732  0.74961306  1
  Na  Na3  1  0.50280070  0.36325684  0.75269237  1
  Na  Na4  1  0.66440218  0.29984851  0.91684549  1
  Na  Na5  1  0.16511155  0.02793264  0.42682226  1
  Na  Na6  1  0.00168702  0.99461952  0.50233873  1
  Na  Na7  1  0.50658089  0.99588477  0.50269888  1
  Na  Na8  1  0.00721062  0.01468242  0.99767917  1
  Na  Na9  1  0.50327096  0.01263517  0.99710385  1
  Na  Na10  1  0.33114070  0.32310129  0.83373121  1
  Na  Na11  1  0.82955708  0.32812131  0.82517267  1
  Na  Na12  1  0.33725150  0.34291922  0.32904213  1
  Na  Na13  1  0.82801132  0.33593596  0.33564630  1
  Na  Na14  1  0.18281986  0.66167515  0.17010200  1
  Na  Na15  1  0.67476121  0.65821748  0.16497812  1
  Na  Na16  1  0.17540816  0.69181424  0.66698354  1
  Na  Na17  1  0.68139021  0.68990939  0.67497942  1
  Hf  Hf18  1  0.49878197  0.01265827  0.34962938  1
  Hf  Hf19  1  0.99884822  0.98345889  0.84926180  1
  Hf  Hf20  1  0.00107154  0.98944019  0.64981829  1
  Hf  Hf21  1  0.50384854  0.99929079  0.64472248  1
  Hf  Hf22  1  0.99796164  0.00728967  0.14125041  1
  Hf  Hf23  1  0.50088769  0.01340946  0.14900401  1
  Hf  Hf24  1  0.32912923  0.32536942  0.97329101  1
  Hf  Hf25  1  0.83054467  0.33617119  0.47465169  1
  Hf  Hf26  1  0.16646977  0.66404795  0.02050567  1
  Hf  Hf27  1  0.66536759  0.65523681  0.02326116  1
  Hf  Hf28  1  0.16491832  0.67533640  0.52482610  1
  Hf  Hf29  1  0.66642639  0.66713523  0.52208400  1
  Al  Al30  1  0.99904677  0.99272042  0.35217860  1
  Al  Al31  1  0.50385483  0.01648643  0.85035139  1
  Al  Al32  1  0.32222197  0.33515258  0.67793590  1
  Al  Al33  1  0.82066946  0.30813287  0.69828906  1
  Al  Al34  1  0.33202770  0.35032485  0.19126049  1
  Al  Al35  1  0.82023494  0.31050559  0.17568852  1
  Al  Al36  1  0.82678937  0.31238946  0.98519059  1
  Al  Al37  1  0.33326611  0.34413771  0.49191168  1
  Al  Al38  1  0.17140906  0.66423448  0.31809512  1
  Al  Al39  1  0.66305232  0.64265963  0.31495328  1
  Al  Al40  1  0.16633379  0.68928684  0.81322917  1
  Al  Al41  1  0.66759112  0.65516625  0.81028026  1
  Si  Si42  1  0.34543954  0.70177783  0.25190969  1
  Si  Si43  1  0.49938434  0.30959676  0.24808000  1
  Si  Si44  1  0.64566069  0.29439702  0.75290498  1
  Si  Si45  1  0.00113165  0.69026936  0.74757114  1
  Si  Si46  1  0.84678008  0.99028515  0.75236947  1
  Si  Si47  1  0.19121346  0.05666696  0.58230713  1
  Si  Si48  1  0.69698178  0.05430386  0.58690854  1
  Si  Si49  1  0.33347429  0.61836425  0.58271414  1
  Si  Si50  1  0.83103073  0.05131179  0.08201508  1
  Si  Si51  1  0.19669904  0.34049737  0.08699550  1
  Si  Si52  1  0.69091752  0.32781338  0.08144350  1
  Si  Si53  1  0.52394828  0.37662309  0.90979759  1
  Si  Si54  1  0.16266621  0.95036661  0.91550677  1
  Si  Si55  1  0.66389311  0.37548752  0.41512640  1
  Si  Si56  1  0.02524438  0.67230483  0.40825528  1
  S  S57  1  0.14514982  0.00069260  0.25215885  1
  S  S58  1  0.65480009  0.00700935  0.25095859  1
  S  S59  1  0.85322735  0.70899645  0.25306281  1
  S  S60  1  0.99841067  0.28629455  0.25436361  1
  S  S61  1  0.15486493  0.30326962  0.75127042  1
  S  S62  1  0.49629009  0.70617225  0.75397190  1
  S  S63  1  0.35233230  0.99682813  0.75237647  1
  S  S64  1  0.47138385  0.33278955  0.58481817  1
  S  S65  1  0.97408889  0.32840704  0.58502847  1
  S  S66  1  0.83362539  0.61868515  0.58516589  1
  S  S67  1  0.47424263  0.61859708  0.08565059  1
  S  S68  1  0.97164622  0.60769832  0.08541720  1
  S  S69  1  0.33268812  0.05003304  0.08573263  1
  S  S70  1  0.31289535  0.67715807  0.90985585  1
  S  S71  1  0.81202656  0.66064872  0.91698672  1
  S  S72  1  0.01636278  0.37724528  0.91539914  1
  S  S73  1  0.66676105  0.95672154  0.91431650  1
  S  S74  1  0.31136361  0.95973464  0.41623274  1
  S  S75  1  0.81254738  0.94853237  0.40988786  1
  S  S76  1  0.16555286  0.37323032  0.41278552  1
  S  S77  1  0.51768667  0.65647524  0.41523933  1
  O  O78  1  0.10218878  0.02864089  0.30545429  1
  O  O79  1  0.61270750  0.03666488  0.30368401  1
  O  O80  1  0.41509384  0.79068486  0.30753843  1
  O  O81  1  0.91363343  0.80135330  0.30393162  1
  O  O82  1  0.48221013  0.18207184  0.30563550  1
  O  O83  1  0.98670451  0.17173917  0.30614375  1
  O  O84  1  0.11299171  0.18909048  0.80401786  1
  O  O85  1  0.59903346  0.16702501  0.81074932  1
  O  O86  1  0.48079714  0.79075652  0.80591320  1
  O  O87  1  0.98461068  0.78390195  0.80548841  1
  O  O88  1  0.41089801  0.02460668  0.80390094  1
  O  O89  1  0.91718993  0.03845877  0.80768477  1
  O  O90  1  0.38819214  0.96673946  0.69730014  1
  O  O91  1  0.89676912  0.96088228  0.69461027  1
  O  O92  1  0.09610654  0.22530904  0.69867667  1
  O  O93  1  0.57540867  0.20280464  0.69742071  1
  O  O94  1  0.02610834  0.82998447  0.69255007  1
  O  O95  1  0.50654296  0.80895002  0.69899801  1
  O  O96  1  0.39536817  0.82781393  0.19400690  1
  O  O97  1  0.89342397  0.81235297  0.19825658  1
  O  O98  1  0.00911674  0.20367952  0.19955759  1
  O  O99  1  0.52380410  0.22161902  0.19256941  1
  O  O100  1  0.08529610  0.96481202  0.20056154  1
  O  O101  1  0.59558833  0.96687344  0.19860307  1
  O  O102  1  0.43238643  0.35487671  0.64029720  1
  O  O103  1  0.93730660  0.35604901  0.63909564  1
  O  O104  1  0.25021939  0.14225157  0.64100596  1
  O  O105  1  0.75634377  0.15479731  0.64265226  1
  O  O106  1  0.32416578  0.51013989  0.64283954  1
  O  O107  1  0.82448610  0.51799021  0.63788249  1
  O  O108  1  0.43581850  0.51587631  0.14063125  1
  O  O109  1  0.93260690  0.50844816  0.14192617  1
  O  O110  1  0.32392276  0.13380585  0.13900702  1
  O  O111  1  0.82465075  0.13824452  0.14381292  1
  O  O112  1  0.25400201  0.35419558  0.14379520  1
  O  O113  1  0.74851495  0.36132102  0.14147066  1
  O  O114  1  0.23672097  0.31663838  0.02517599  1
  O  O115  1  0.73652258  0.31442477  0.01994012  1
  O  O116  1  0.42332282  0.53562092  0.03177952  1
  O  O117  1  0.91992937  0.52851630  0.03186814  1
  O  O118  1  0.34464655  0.14963593  0.03025880  1
  O  O119  1  0.85146158  0.17154099  0.02360079  1
  O  O120  1  0.23672187  0.15842206  0.51924904  1
  O  O121  1  0.73741963  0.15766819  0.52409563  1
  O  O122  1  0.35267700  0.53805795  0.52309567  1
  O  O123  1  0.84555142  0.54331605  0.52899348  1
  O  O124  1  0.42014527  0.31384608  0.53042088  1
  O  O125  1  0.92432871  0.31126369  0.53005381  1
  O  O126  1  0.27429582  0.70149206  0.96633213  1
  O  O127  1  0.77362959  0.68951944  0.97164641  1
  O  O128  1  0.07338583  0.46243098  0.96922707  1
  O  O129  1  0.58655935  0.46003257  0.96886589  1
  O  O130  1  0.15394951  0.84038635  0.97646813  1
  O  O131  1  0.65579509  0.85601755  0.96948047  1
  O  O132  1  0.27255571  0.85484778  0.47044925  1
  O  O133  1  0.77519555  0.84668691  0.46571561  1
  O  O134  1  0.15122699  0.44738575  0.46698427  1
  O  O135  1  0.65408720  0.46854759  0.47504149  1
  O  O136  1  0.08905141  0.71599453  0.46613758  1
  O  O137  1  0.57424755  0.68526892  0.46830159  1
  O  O138  1  0.07471246  0.64864764  0.35013688  1
  O  O139  1  0.56229184  0.64366866  0.36049552  1
  O  O140  1  0.25473277  0.87269614  0.36374593  1
  O  O141  1  0.75410796  0.86194212  0.35872844  1
  O  O142  1  0.18035120  0.48779013  0.36062300  1
  O  O143  1  0.67686334  0.49628897  0.35801073  1
  O  O144  1  0.06122981  0.48004111  0.86141114  1
  O  O145  1  0.57347627  0.50313822  0.85356205  1
  O  O146  1  0.17583795  0.85415875  0.85941552  1
  O  O147  1  0.68141440  0.87581898  0.86232813  1
  O  O148  1  0.25386012  0.64559200  0.85924147  1
  O  O149  1  0.75614443  0.63234744  0.86487301  1
  O  O150  1  0.01488416  0.84986425  0.40137790  1
  O  O151  1  0.50735606  0.81308862  0.41145190  1
  O  O152  1  0.39901106  0.97383451  0.41088006  1
  O  O153  1  0.90220346  0.96972619  0.40228801  1
  O  O154  1  0.08438770  0.19345606  0.40376793  1
  O  O155  1  0.57854329  0.17548925  0.41244897  1
  O  O156  1  0.00622481  0.19981140  0.91285018  1
  O  O157  1  0.51076763  0.17620856  0.90506088  1
  O  O158  1  0.07832383  0.98079664  0.91368210  1
  O  O159  1  0.58535698  0.97348774  0.90940667  1
  O  O160  1  0.40207475  0.83406938  0.90289073  1
  O  O161  1  0.90027550  0.82239102  0.91215311  1
  O  O162  1  0.48040923  0.17468010  0.58748382  1
  O  O163  1  0.98445731  0.17085216  0.58795209  1
  O  O164  1  0.09391081  0.04074994  0.58540322  1
  O  O165  1  0.59747449  0.03023865  0.59067369  1
  O  O166  1  0.41568080  0.82058594  0.58868364  1
  O  O167  1  0.91254514  0.80118524  0.58642027  1
  O  O168  1  0.48413298  0.79579051  0.09009781  1
  O  O169  1  0.98355820  0.78790418  0.09135607  1
  O  O170  1  0.41135842  0.02571197  0.08779028  1
  O  O171  1  0.91568496  0.01681622  0.08811976  1
  O  O172  1  0.09713326  0.16282903  0.09252123  1
  O  O173  1  0.59319814  0.14758946  0.08618115  1
  O  O174  1  0.34654390  0.16092817  0.74748663  1
  O  O175  1  0.84422222  0.17022509  0.74475966  1
  O  O176  1  0.24217958  0.31614763  0.74312836  1
  O  O177  1  0.74178220  0.31720103  0.74537622  1
  O  O178  1  0.41888601  0.52109186  0.74732461  1
  O  O179  1  0.91514915  0.50169711  0.73547034  1
  O  O180  1  0.33947731  0.51134378  0.24468511  1
  O  O181  1  0.84785608  0.53406115  0.24862146  1
  O  O182  1  0.41135917  0.32318532  0.23693576  1
  O  O183  1  0.92053312  0.31113864  0.24950022  1
  O  O184  1  0.23321389  0.15706542  0.24547038  1
  O  O185  1  0.74239458  0.16962590  0.24270423  1
  O  O186  1  0.32218899  0.51866895  0.91673371  1
  O  O187  1  0.82261942  0.50308888  0.92320979  1
  O  O188  1  0.42890277  0.36536367  0.91889752  1
  O  O189  1  0.93006488  0.36981920  0.92296500  1
  O  O190  1  0.25078314  0.14740689  0.91740566  1
  O  O191  1  0.74592726  0.14341539  0.92059240  1
  O  O192  1  0.32146839  0.13764997  0.42077357  1
  O  O193  1  0.82358662  0.12678171  0.41603770  1
  O  O194  1  0.24350693  0.34718997  0.41711689  1
  O  O195  1  0.75162105  0.35465479  0.41760022  1
  O  O196  1  0.43088408  0.49022929  0.42189773  1
  O  O197  1  0.93013880  0.49427412  0.41646089  1
  O  O198  1  0.18251937  0.51206225  0.08149100  1
  O  O199  1  0.67641076  0.49890977  0.07954404  1
  O  O200  1  0.06183238  0.62906835  0.08094744  1
  O  O201  1  0.56367523  0.63919798  0.07992500  1
  O  O202  1  0.25234555  0.87000854  0.08069944  1
  O  O203  1  0.74226668  0.85900734  0.07676381  1
  O  O204  1  0.17667128  0.85575181  0.57967293  1
  O  O205  1  0.68284858  0.85370410  0.57985703  1
  O  O206  1  0.24268139  0.62688002  0.57499085  1
  O  O207  1  0.75360105  0.63815270  0.57906295  1
  O  O208  1  0.06458578  0.48689831  0.57758386  1
  O  O209  1  0.56118305  0.49348246  0.57932442  1
  O  O210  1  0.15264079  0.83995604  0.25763384  1
  O  O211  1  0.66418624  0.85083302  0.26034028  1
  O  O212  1  0.25000760  0.68743192  0.26332504  1
  O  O213  1  0.76553737  0.69270904  0.26004802  1
  O  O214  1  0.07936993  0.46316813  0.25855578  1
  O  O215  1  0.58393673  0.51073179  0.25852369  1
  O  O216  1  0.16441816  0.47846511  0.76056680  1
  O  O217  1  0.65174946  0.48663130  0.75756903  1
  O  O218  1  0.08642548  0.66144185  0.75812831  1
  O  O219  1  0.57726336  0.69440146  0.75876044  1
  O  O220  1  0.26321094  0.83834892  0.76042921  1
  O  O221  1  0.75099639  0.82141645  0.76450753  1
