# generated using pymatgen
data_Na21Mg10Nb2P15(SO24)3
_symmetry_space_group_name_H-M   'P 1'
_cell_length_a   8.99144296
_cell_length_b   9.00179316
_cell_length_c   22.15466780
_cell_angle_alpha   89.86230733
_cell_angle_beta   89.91155013
_cell_angle_gamma   120.05631143
_symmetry_Int_Tables_number   1
_chemical_formula_structural   Na21Mg10Nb2P15(SO24)3
_chemical_formula_sum   'Na21 Mg10 Nb2 P15 S3 O72'
_cell_volume   1552.04440657
_cell_formula_units_Z   1
loop_
 _symmetry_equiv_pos_site_id
 _symmetry_equiv_pos_as_xyz
  1  'x, y, z'
loop_
 _atom_site_type_symbol
 _atom_site_label
 _atom_site_symmetry_multiplicity
 _atom_site_fract_x
 _atom_site_fract_y
 _atom_site_fract_z
 _atom_site_occupancy
  Na  Na0  1  0.36384085  0.35502045  0.24806361  1
  Na  Na1  1  0.98835871  0.35466841  0.74245574  1
  Na  Na2  1  0.36506576  0.00980953  0.74256755  1
  Na  Na3  1  0.29412814  0.32625750  0.58088619  1
  Na  Na4  1  0.03968177  0.69936848  0.58321768  1
  Na  Na5  1  0.66724989  0.97722201  0.58228034  1
  Na  Na6  1  0.30073838  0.97622775  0.08687089  1
  Na  Na7  1  0.66070643  0.69168375  0.08926958  1
  Na  Na8  1  0.04053353  0.33207043  0.08766127  1
  Na  Na9  1  0.96505396  0.66881090  0.91396298  1
  Na  Na10  1  0.70470348  0.03580431  0.91443178  1
  Na  Na11  1  0.33133366  0.29474150  0.91763308  1
  Na  Na12  1  0.96406722  0.29582945  0.41655288  1
  Na  Na13  1  0.33164949  0.03696556  0.41714276  1
  Na  Na14  1  0.70388318  0.66828572  0.41334081  1
  Na  Na15  1  0.00573162  0.00666237  0.49869128  1
  Na  Na16  1  0.00723404  0.00618290  0.99923401  1
  Na  Na17  1  0.66582726  0.34220515  0.82890908  1
  Na  Na18  1  0.67619256  0.33298693  0.32911135  1
  Na  Na19  1  0.33316025  0.66879304  0.16846397  1
  Na  Na20  1  0.33525729  0.66675159  0.65934952  1
  Mg  Mg21  1  0.99797697  0.99959081  0.34782524  1
  Mg  Mg22  1  0.99995296  0.99841454  0.84843803  1
  Mg  Mg23  1  0.00338280  0.00401256  0.65133175  1
  Mg  Mg24  1  0.00426986  0.00410078  0.15804811  1
  Mg  Mg25  1  0.66736391  0.33330420  0.68324416  1
  Mg  Mg26  1  0.66661022  0.33561894  0.18859638  1
  Mg  Mg27  1  0.66005415  0.33146344  0.98140813  1
  Mg  Mg28  1  0.66505549  0.32590163  0.48223634  1
  Mg  Mg29  1  0.33377173  0.66143572  0.01539690  1
  Mg  Mg30  1  0.32856696  0.66691255  0.51592624  1
  Nb  Nb31  1  0.33295502  0.67044878  0.31275735  1
  Nb  Nb32  1  0.33647839  0.66626537  0.81293136  1
  P  P33  1  0.29434441  0.00131571  0.24983292  1
  P  P34  1  0.70870850  0.70644015  0.25029466  1
  P  P35  1  0.99505090  0.29314329  0.25070259  1
  P  P36  1  0.29599453  0.29237574  0.75105468  1
  P  P37  1  0.99418359  0.70473128  0.75149430  1
  P  P38  1  0.70977711  0.00111655  0.75049395  1
  P  P39  1  0.96232853  0.33297797  0.58351760  1
  P  P40  1  0.37055821  0.03795512  0.58384421  1
  P  P41  1  0.37051143  0.33251957  0.08287768  1
  P  P42  1  0.63012053  0.67017938  0.91919667  1
  P  P43  1  0.03841894  0.37102946  0.91877003  1
  P  P44  1  0.33192294  0.95856912  0.91909949  1
  P  P45  1  0.62789117  0.95807684  0.41900153  1
  P  P46  1  0.33297518  0.37316693  0.41855314  1
  P  P47  1  0.03904075  0.66899455  0.41868678  1
  S  S48  1  0.66718121  0.62557653  0.58309583  1
  S  S49  1  0.95906727  0.62574311  0.08205201  1
  S  S50  1  0.66697399  0.04106646  0.08237385  1
  O  O51  1  0.20973118  0.02663504  0.30548830  1
  O  O52  1  0.81109490  0.79016081  0.30664183  1
  O  O53  1  0.97862252  0.19072234  0.30736489  1
  O  O54  1  0.21427792  0.18663575  0.80830912  1
  O  O55  1  0.97771559  0.78619125  0.80932192  1
  O  O56  1  0.81538936  0.02666957  0.80748657  1
  O  O57  1  0.78313330  0.96846953  0.69377297  1
  O  O58  1  0.18162692  0.22189018  0.69542294  1
  O  O59  1  0.03664004  0.81800770  0.69550669  1
  O  O60  1  0.78110584  0.81127088  0.19188624  1
  O  O61  1  0.03929147  0.22414865  0.19356205  1
  O  O62  1  0.18855235  0.96543225  0.19181797  1
  O  O63  1  0.88064677  0.36270668  0.64040601  1
  O  O64  1  0.47994953  0.12140669  0.64076724  1
  O  O65  1  0.64054373  0.51669851  0.63602331  1
  O  O66  1  0.87528542  0.51505609  0.13444688  1
  O  O67  1  0.64350235  0.12643820  0.13468700  1
  O  O68  1  0.48421487  0.35972909  0.13817143  1
  O  O69  1  0.45201644  0.30488043  0.02515491  1
  O  O70  1  0.85837154  0.54821679  0.02598842  1
  O  O71  1  0.69471242  0.14383925  0.02621025  1
  O  O72  1  0.45310126  0.15074695  0.52730045  1
  O  O73  1  0.69342620  0.54974123  0.52743736  1
  O  O74  1  0.85192215  0.30776406  0.52699207  1
  O  O75  1  0.54869889  0.69912498  0.97496853  1
  O  O76  1  0.14982195  0.45473402  0.97398872  1
  O  O77  1  0.30484676  0.84669930  0.97447387  1
  O  O78  1  0.54604570  0.84809462  0.47510564  1
  O  O79  1  0.30577876  0.45710600  0.47402491  1
  O  O80  1  0.14863301  0.69819267  0.47466203  1
  O  O81  1  0.13879070  0.64430210  0.36336293  1
  O  O82  1  0.50452934  0.85798249  0.36372930  1
  O  O83  1  0.35616855  0.49147807  0.36151130  1
  O  O84  1  0.13365052  0.49082471  0.86186857  1
  O  O85  1  0.35505425  0.86274507  0.86233172  1
  O  O86  1  0.50537883  0.64525127  0.86393533  1
  O  O87  1  0.02077803  0.82858105  0.40960507  1
  O  O88  1  0.80653729  0.97774235  0.41030041  1
  O  O89  1  0.17290797  0.19397015  0.41086481  1
  O  O90  1  0.01990863  0.19270224  0.91073151  1
  O  O91  1  0.17262184  0.97818661  0.91128375  1
  O  O92  1  0.80815173  0.82932717  0.91018990  1
  O  O93  1  0.97870645  0.16845762  0.58872520  1
  O  O94  1  0.18640695  0.01418312  0.58909585  1
  O  O95  1  0.82275039  0.80025645  0.58910378  1
  O  O96  1  0.97567440  0.79915593  0.08732368  1
  O  O97  1  0.82042236  0.01847200  0.08772884  1
  O  O98  1  0.18688146  0.16969829  0.08799777  1
  O  O99  1  0.67900393  0.15548735  0.74581585  1
  O  O100  1  0.47556529  0.31555355  0.74392084  1
  O  O101  1  0.84664925  0.51906555  0.74555560  1
  O  O102  1  0.67082004  0.51971994  0.24529610  1
  O  O103  1  0.84371787  0.32265206  0.24303858  1
  O  O104  1  0.47468686  0.15984355  0.24380762  1
  O  O105  1  0.64138118  0.50458398  0.91998483  1
  O  O106  1  0.86086693  0.35928433  0.92068971  1
  O  O107  1  0.49848213  0.13559470  0.91979492  1
  O  O108  1  0.63818262  0.13454957  0.41927653  1
  O  O109  1  0.49924080  0.36216969  0.41997046  1
  O  O110  1  0.86176798  0.50310029  0.41999432  1
  O  O111  1  0.35080031  0.49625303  0.07838813  1
  O  O112  1  0.13614570  0.64881935  0.07764769  1
  O  O113  1  0.50896246  0.86676069  0.07777435  1
  O  O114  1  0.35475265  0.85711585  0.57894875  1
  O  O115  1  0.51209545  0.64575380  0.57843368  1
  O  O116  1  0.14678194  0.49363275  0.57885960  1
  O  O117  1  0.31479552  0.83571427  0.25869429  1
  O  O118  1  0.51803964  0.68462589  0.25758169  1
  O  O119  1  0.16908414  0.47954521  0.25835629  1
  O  O120  1  0.31202096  0.47830646  0.75986792  1
  O  O121  1  0.16757707  0.68685868  0.75900281  1
  O  O122  1  0.51927541  0.83608842  0.75904094  1
