# generated using pymatgen
data_MgScMo3O8
_symmetry_space_group_name_H-M   'P 1'
_cell_length_a   6.29086567
_cell_length_b   6.11146118
_cell_length_c   4.96415618
_cell_angle_alpha   89.34131504
_cell_angle_beta   90.66251636
_cell_angle_gamma   118.89806728
_symmetry_Int_Tables_number   1
_chemical_formula_structural   MgScMo3O8
_chemical_formula_sum   'Mg1 Sc1 Mo3 O8'
_cell_volume   167.07390412
_cell_formula_units_Z   1
loop_
 _symmetry_equiv_pos_site_id
 _symmetry_equiv_pos_as_xyz
  1  'x, y, z'
loop_
 _atom_site_type_symbol
 _atom_site_label
 _atom_site_symmetry_multiplicity
 _atom_site_fract_x
 _atom_site_fract_y
 _atom_site_fract_z
 _atom_site_occupancy
  Mg  Mg0  1  0.66928400  0.33346900  0.68270600  1
  Sc  Sc1  1  0.33330700  0.66531900  0.75640400  1
  Mo  Mo2  1  0.83311200  0.68510700  0.24095600  1
  Mo  Mo3  1  0.83601800  0.15599000  0.24186700  1
  Mo  Mo4  1  0.32373000  0.16069900  0.23395500  1
  O  O5  1  0.50230200  0.01305500  0.49479800  1
  O  O6  1  0.66910800  0.34230600  0.05346900  1
  O  O7  1  0.65443400  0.81838700  0.00040300  1
  O  O8  1  0.17261500  0.84148600  0.02369800  1
  O  O9  1  0.97925400  0.49436600  0.49147000  1
  O  O10  1  0.00959400  0.99214800  0.46111200  1
  O  O11  1  0.17502200  0.33445700  0.02037900  1
  O  O12  1  0.50055000  0.48820900  0.49067200  1
