# generated using pymatgen
data_Na3Al2Zn2PS5O24
_symmetry_space_group_name_H-M   'P 1'
_cell_length_a   8.58619833
_cell_length_b   8.56926961
_cell_length_c   21.94919932
_cell_angle_alpha   90.20496891
_cell_angle_beta   89.67384763
_cell_angle_gamma   119.93017684
_symmetry_Int_Tables_number   1
_chemical_formula_structural   Na3Al2Zn2PS5O24
_chemical_formula_sum   'Na9 Al6 Zn6 P3 S15 O72'
_cell_volume   1399.56146626
_cell_formula_units_Z   3
loop_
 _symmetry_equiv_pos_site_id
 _symmetry_equiv_pos_as_xyz
  1  'x, y, z'
loop_
 _atom_site_type_symbol
 _atom_site_label
 _atom_site_symmetry_multiplicity
 _atom_site_fract_x
 _atom_site_fract_y
 _atom_site_fract_z
 _atom_site_occupancy
  Na  Na0  1  0.36325990  0.99399468  0.74908163  1
  Na  Na1  1  0.66440996  0.95978214  0.58716801  1
  Na  Na2  1  0.67009068  0.70598231  0.08242848  1
  Na  Na3  1  0.01998505  0.00197209  0.50100149  1
  Na  Na4  1  0.01281788  0.00454142  0.00079589  1
  Na  Na5  1  0.67885004  0.33947016  0.83419966  1
  Na  Na6  1  0.66673515  0.33349170  0.33376843  1
  Na  Na7  1  0.31238100  0.66397724  0.16777294  1
  Na  Na8  1  0.32843001  0.65569238  0.66697932  1
  Al  Al9  1  0.00169032  0.00122856  0.34925365  1
  Al  Al10  1  0.99059121  0.00121230  0.84895311  1
  Al  Al11  1  0.66786940  0.32654214  0.68567321  1
  Al  Al12  1  0.67521433  0.33737595  0.18640469  1
  Al  Al13  1  0.67308954  0.33900975  0.98275230  1
  Al  Al14  1  0.65807788  0.32871943  0.48210068  1
  Zn  Zn15  1  0.00537634  0.00006357  0.64778612  1
  Zn  Zn16  1  0.00763760  0.99671750  0.14761476  1
  Zn  Zn17  1  0.31355127  0.66425561  0.01675697  1
  Zn  Zn18  1  0.32593055  0.67091048  0.51620152  1
  Zn  Zn19  1  0.33108390  0.66548331  0.31916089  1
  Zn  Zn20  1  0.34347324  0.67003561  0.81934637  1
  P  P21  1  0.71204499  0.00426151  0.74766867  1
  P  P22  1  0.37853348  0.04908304  0.58367786  1
  P  P23  1  0.95286171  0.61516728  0.08417010  1
  S  S24  1  0.29821832  0.00634369  0.25010123  1
  S  S25  1  0.70779494  0.70433677  0.24953855  1
  S  S26  1  0.99488370  0.28754077  0.24945391  1
  S  S27  1  0.29334611  0.29358614  0.75014401  1
  S  S28  1  0.99127460  0.70214870  0.75061037  1
  S  S29  1  0.95222028  0.33989206  0.58218494  1
  S  S30  1  0.66496543  0.61049218  0.58337021  1
  S  S31  1  0.66585936  0.05287565  0.08346688  1
  S  S32  1  0.38441835  0.33051772  0.08353638  1
  S  S33  1  0.63732780  0.66670914  0.91833955  1
  S  S34  1  0.03110369  0.36284720  0.91618705  1
  S  S35  1  0.33273873  0.97509232  0.91576545  1
  S  S36  1  0.63998196  0.97110436  0.41680097  1
  S  S37  1  0.33235636  0.36458756  0.41643082  1
  S  S38  1  0.02680996  0.66619907  0.41603340  1
  O  O39  1  0.20831878  0.03390758  0.30460924  1
  O  O40  1  0.82778188  0.79727505  0.30261441  1
  O  O41  1  0.96930120  0.17331967  0.30439259  1
  O  O42  1  0.20780242  0.17014264  0.80388593  1
  O  O43  1  0.96646654  0.79134485  0.80562672  1
  O  O44  1  0.83207215  0.02997303  0.80344190  1
  O  O45  1  0.78566729  0.97359919  0.68789584  1
  O  O46  1  0.19119933  0.21776388  0.69427102  1
  O  O47  1  0.03315409  0.81487760  0.69584956  1
  O  O48  1  0.78048357  0.80611808  0.19227174  1
  O  O49  1  0.02253328  0.20922540  0.19373610  1
  O  O50  1  0.19301259  0.97524918  0.19446015  1
  O  O51  1  0.86643759  0.35982880  0.63878298  1
  O  O52  1  0.49367150  0.13582632  0.64257986  1
  O  O53  1  0.64985971  0.50592988  0.63919358  1
  O  O54  1  0.85877944  0.50413824  0.14189211  1
  O  O55  1  0.64219604  0.13687709  0.13942568  1
  O  O56  1  0.49397170  0.35344102  0.13899446  1
  O  O57  1  0.47097159  0.30933073  0.02762198  1
  O  O58  1  0.83410222  0.52522545  0.02743545  1
  O  O59  1  0.68204429  0.15741840  0.02782460  1
  O  O60  1  0.47691518  0.16233365  0.52713931  1
  O  O61  1  0.68590179  0.52534712  0.52748450  1
  O  O62  1  0.84115936  0.31814034  0.52759387  1
  O  O63  1  0.56252043  0.70138711  0.97446967  1
  O  O64  1  0.14264038  0.43532935  0.97102686  1
  O  O65  1  0.29667727  0.85986583  0.96943345  1
  O  O66  1  0.56942557  0.86293122  0.47326078  1
  O  O67  1  0.29576843  0.44027777  0.47144853  1
  O  O68  1  0.13889738  0.70626063  0.47078560  1
  O  O69  1  0.10187578  0.62688824  0.36170793  1
  O  O70  1  0.52319530  0.89187451  0.36388095  1
  O  O71  1  0.36936010  0.47615563  0.36179727  1
  O  O72  1  0.10684139  0.47674260  0.86202724  1
  O  O73  1  0.36947923  0.90249286  0.85955166  1
  O  O74  1  0.52362608  0.63044458  0.86464633  1
  O  O75  1  0.00677536  0.82910758  0.40574746  1
  O  O76  1  0.82188347  0.99095571  0.40608510  1
  O  O77  1  0.17073251  0.18044603  0.40692656  1
  O  O78  1  0.01027299  0.17952207  0.90679914  1
  O  O79  1  0.17023666  0.99477524  0.90665711  1
  O  O80  1  0.81992647  0.82879386  0.90853198  1
  O  O81  1  0.96296815  0.17273627  0.58423915  1
  O  O82  1  0.19345711  0.03267037  0.58656584  1
  O  O83  1  0.82504839  0.79346082  0.58486194  1
  O  O84  1  0.96563826  0.80253809  0.08601923  1
  O  O85  1  0.83007797  0.03707577  0.08587047  1
  O  O86  1  0.20442528  0.17135948  0.08643863  1
  O  O87  1  0.69331185  0.17846047  0.74355849  1
  O  O88  1  0.47581785  0.30746597  0.74533159  1
  O  O89  1  0.82348088  0.52505732  0.74365563  1
  O  O90  1  0.69475379  0.52278110  0.24527543  1
  O  O91  1  0.82528765  0.29867270  0.24520872  1
  O  O92  1  0.47841866  0.17501444  0.24434822  1
  O  O93  1  0.65841752  0.50418909  0.92557166  1
  O  O94  1  0.84672547  0.33893804  0.92548489  1
  O  O95  1  0.49496833  0.15693755  0.92555961  1
  O  O96  1  0.66349322  0.15578356  0.42515147  1
  O  O97  1  0.49407075  0.34240286  0.42465936  1
  O  O98  1  0.84365630  0.50581605  0.42586825  1
  O  O99  1  0.37447263  0.49842821  0.07977045  1
  O  O100  1  0.13833975  0.63173894  0.08085190  1
  O  O101  1  0.50682852  0.86888469  0.08010547  1
  O  O102  1  0.36844623  0.86294726  0.58022128  1
  O  O103  1  0.50112492  0.62698660  0.58076858  1
  O  O104  1  0.13143742  0.49982599  0.57898796  1
  O  O105  1  0.32258737  0.84926134  0.25813292  1
  O  O106  1  0.52750924  0.68127241  0.25783234  1
  O  O107  1  0.15091217  0.46965697  0.25673445  1
  O  O108  1  0.31484592  0.47239431  0.75877765  1
  O  O109  1  0.14826510  0.67652156  0.75873206  1
  O  O110  1  0.51862395  0.84326028  0.75559466  1
