# generated using pymatgen
data_MgMnP2O7
_symmetry_space_group_name_H-M   'P 1'
_cell_length_a   5.51347378
_cell_length_b   5.51344647
_cell_length_c   4.69543933
_cell_angle_alpha   82.85108383
_cell_angle_beta   97.14883443
_cell_angle_gamma   75.61311024
_symmetry_Int_Tables_number   1
_chemical_formula_structural   MgMnP2O7
_chemical_formula_sum   'Mg1 Mn1 P2 O7'
_cell_volume   135.37787242
_cell_formula_units_Z   1
loop_
 _symmetry_equiv_pos_site_id
 _symmetry_equiv_pos_as_xyz
  1  'x, y, z'
loop_
 _atom_site_type_symbol
 _atom_site_label
 _atom_site_symmetry_multiplicity
 _atom_site_fract_x
 _atom_site_fract_y
 _atom_site_fract_z
 _atom_site_occupancy
  Mg  Mg0  1  0.75265400  0.75265100  0.49999300  1
  Mn  Mn1  1  0.12806200  0.12805900  0.00003500  1
  P  P2  1  0.25119700  0.67450300  0.59832200  1
  P  P3  1  0.67450800  0.25120200  0.40167400  1
  O  O4  1  0.51192000  0.51192000  0.49999600  1
  O  O5  1  0.10530900  0.50462900  0.74650200  1
  O  O6  1  0.07610900  0.81228800  0.31235200  1
  O  O7  1  0.36763800  0.83787500  0.78142400  1
  O  O8  1  0.81229100  0.07610700  0.68764200  1
  O  O9  1  0.83786500  0.36763900  0.21857300  1
  O  O10  1  0.50462900  0.10530500  0.25348800  1
