# generated using pymatgen
data_Na7CaSc3Si3(SO8)3
_symmetry_space_group_name_H-M   'P 1'
_cell_length_a   9.26269293
_cell_length_b   9.25419291
_cell_length_c   22.78333291
_cell_angle_alpha   90.36484727
_cell_angle_beta   89.83183594
_cell_angle_gamma   119.80067124
_symmetry_Int_Tables_number   1
_chemical_formula_structural   Na7CaSc3Si3(SO8)3
_chemical_formula_sum   'Na21 Ca3 Sc9 Si9 S9 O72'
_cell_volume   1694.66435054
_cell_formula_units_Z   3
loop_
 _symmetry_equiv_pos_site_id
 _symmetry_equiv_pos_as_xyz
  1  'x, y, z'
loop_
 _atom_site_type_symbol
 _atom_site_label
 _atom_site_symmetry_multiplicity
 _atom_site_fract_x
 _atom_site_fract_y
 _atom_site_fract_z
 _atom_site_occupancy
  Na  Na0  1  0.63728931  0.98836979  0.23973716  1
  Na  Na1  1  0.38724255  0.38255557  0.23812865  1
  Na  Na2  1  0.97655624  0.63670764  0.25605868  1
  Na  Na3  1  0.61899297  0.62296841  0.73953013  1
  Na  Na4  1  0.99530101  0.34462390  0.75162220  1
  Na  Na5  1  0.38823315  0.02162158  0.75800322  1
  Na  Na6  1  0.01490051  0.69775144  0.57449176  1
  Na  Na7  1  0.66801349  0.95576799  0.58294242  1
  Na  Na8  1  0.32180572  0.98737579  0.07901749  1
  Na  Na9  1  0.64766690  0.68609656  0.09093267  1
  Na  Na10  1  0.68914316  0.03340201  0.91571275  1
  Na  Na11  1  0.33464749  0.28629902  0.91873985  1
  Na  Na12  1  0.95538540  0.29627288  0.41358888  1
  Na  Na13  1  0.33067862  0.01443042  0.41782949  1
  Na  Na14  1  0.72660466  0.69183206  0.41477957  1
  Na  Na15  1  0.98401339  0.98003591  0.49771541  1
  Na  Na16  1  0.01548725  0.01145784  0.00406391  1
  Na  Na17  1  0.65207387  0.31624046  0.83084619  1
  Na  Na18  1  0.67891871  0.35243074  0.33270926  1
  Na  Na19  1  0.35027753  0.65612669  0.15948726  1
  Na  Na20  1  0.35890430  0.64373365  0.66670041  1
  Ca  Ca21  1  0.99211347  0.99014570  0.35237454  1
  Ca  Ca22  1  0.65524735  0.33528208  0.68278300  1
  Ca  Ca23  1  0.65910780  0.33174674  0.17399265  1
  Sc  Sc24  1  0.01076591  0.00556053  0.85131579  1
  Sc  Sc25  1  0.99199166  0.00477251  0.65232092  1
  Sc  Sc26  1  0.98064077  0.00229593  0.14414652  1
  Sc  Sc27  1  0.64807571  0.30946480  0.98645935  1
  Sc  Sc28  1  0.67925077  0.35217448  0.48178047  1
  Sc  Sc29  1  0.33074408  0.67118204  0.01677298  1
  Sc  Sc30  1  0.34714728  0.67334849  0.51573178  1
  Sc  Sc31  1  0.34686354  0.68405341  0.31941874  1
  Sc  Sc32  1  0.34459806  0.67814658  0.81458861  1
  Si  Si33  1  0.69352828  0.69487775  0.25131557  1
  Si  Si34  1  0.28870073  0.29694961  0.75301491  1
  Si  Si35  1  0.70629932  0.99643989  0.75385767  1
  Si  Si36  1  0.66899911  0.64331037  0.58425149  1
  Si  Si37  1  0.66263872  0.02297760  0.08236283  1
  Si  Si38  1  0.35401701  0.33209726  0.08240526  1
  Si  Si39  1  0.32869948  0.96179488  0.91688821  1
  Si  Si40  1  0.62967231  0.97558374  0.41940875  1
  Si  Si41  1  0.04433005  0.66228832  0.41921268  1
  S  S42  1  0.29630792  0.99487132  0.25055359  1
  S  S43  1  0.00811126  0.30406283  0.25120450  1
  S  S44  1  0.00801410  0.71315909  0.75029210  1
  S  S45  1  0.96846076  0.33473596  0.58234923  1
  S  S46  1  0.36258542  0.02860052  0.58137021  1
  S  S47  1  0.96837551  0.63394485  0.08288177  1
  S  S48  1  0.62821989  0.66615079  0.91648294  1
  S  S49  1  0.03841636  0.37500370  0.91483458  1
  S  S50  1  0.34008786  0.37992986  0.41686313  1
  O  O51  1  0.22384413  0.02042159  0.30463174  1
  O  O52  1  0.79755459  0.77365649  0.31133732  1
  O  O53  1  0.99099952  0.21366861  0.30623103  1
  O  O54  1  0.19964009  0.18305053  0.81137556  1
  O  O55  1  0.98574881  0.79869986  0.80144535  1
  O  O56  1  0.81841175  0.00769051  0.81090155  1
  O  O57  1  0.79023294  0.96918282  0.69329286  1
  O  O58  1  0.16714757  0.19618800  0.69694871  1
  O  O59  1  0.02929979  0.80984398  0.69568899  1
  O  O60  1  0.79263051  0.81835366  0.19424847  1
  O  O61  1  0.02526116  0.21087481  0.20041377  1
  O  O62  1  0.19437105  0.98081202  0.19833077  1
  O  O63  1  0.89464830  0.35955497  0.63627391  1
  O  O64  1  0.46297163  0.09947523  0.63494260  1
  O  O65  1  0.64943055  0.54923217  0.64539196  1
  O  O66  1  0.90607932  0.54657425  0.13891739  1
  O  O67  1  0.62885933  0.09032580  0.14350883  1
  O  O68  1  0.46525208  0.38427603  0.14204791  1
  O  O69  1  0.45651296  0.30160791  0.02716825  1
  O  O70  1  0.85345554  0.54146548  0.03375096  1
  O  O71  1  0.68550549  0.14489781  0.02628906  1
  O  O72  1  0.44881046  0.13148631  0.52937210  1
  O  O73  1  0.69204004  0.54097406  0.52778315  1
  O  O74  1  0.85785272  0.31147829  0.53077110  1
  O  O75  1  0.54411974  0.68781250  0.96842743  1
  O  O76  1  0.14632280  0.46001596  0.96536662  1
  O  O77  1  0.31638429  0.85367401  0.97441433  1
  O  O78  1  0.53403218  0.85065394  0.47419187  1
  O  O79  1  0.31805621  0.46291500  0.46853958  1
  O  O80  1  0.15034554  0.66716365  0.47688011  1
  O  O81  1  0.13046333  0.63520840  0.35950414  1
  O  O82  1  0.51584527  0.88366488  0.36016685  1
  O  O83  1  0.36274110  0.47861046  0.36283218  1
  O  O84  1  0.11751031  0.46704402  0.86014947  1
  O  O85  1  0.35553367  0.87082930  0.85847536  1
  O  O86  1  0.52293770  0.63995913  0.86325056  1
  O  O87  1  0.03426306  0.83378188  0.42058623  1
  O  O88  1  0.81890899  0.00671082  0.41942561  1
  O  O89  1  0.19234701  0.21220484  0.41274437  1
  O  O90  1  0.01901978  0.20283799  0.91292762  1
  O  O91  1  0.16926544  0.99430542  0.91405194  1
  O  O92  1  0.79197607  0.82012766  0.91156554  1
  O  O93  1  0.97830537  0.17865338  0.58521371  1
  O  O94  1  0.19312866  0.00854718  0.58618685  1
  O  O95  1  0.84429913  0.82975810  0.58384085  1
  O  O96  1  0.98315744  0.80323364  0.08615163  1
  O  O97  1  0.82474039  0.99321444  0.08299733  1
  O  O98  1  0.18095031  0.15089308  0.08948213  1
  O  O99  1  0.69266706  0.16575392  0.75213248  1
  O  O100  1  0.47587377  0.32168856  0.75240236  1
  O  O101  1  0.86129928  0.54375160  0.74704605  1
  O  O102  1  0.67354435  0.50807990  0.24801008  1
  O  O103  1  0.85802098  0.32227092  0.24519223  1
  O  O104  1  0.46896187  0.13655328  0.24630145  1
  O  O105  1  0.64508310  0.51518589  0.92176917  1
  O  O106  1  0.86912503  0.35495248  0.92044867  1
  O  O107  1  0.50398656  0.15027441  0.91951911  1
  O  O108  1  0.63165484  0.15447554  0.42522202  1
  O  O109  1  0.49215261  0.36368431  0.42264641  1
  O  O110  1  0.85339894  0.49578832  0.42182490  1
  O  O111  1  0.33470217  0.49430551  0.06790217  1
  O  O112  1  0.13860216  0.66070591  0.07401366  1
  O  O113  1  0.49616030  0.83683335  0.07362350  1
  O  O114  1  0.34053209  0.85686690  0.57558840  1
  O  O115  1  0.50790424  0.67247901  0.57740590  1
  O  O116  1  0.13466017  0.48294852  0.57499918  1
  O  O117  1  0.30042922  0.83414261  0.25375322  1
  O  O118  1  0.50591559  0.68160916  0.25328747  1
  O  O119  1  0.16110921  0.47151336  0.25223962  1
  O  O120  1  0.29806768  0.48054985  0.75654134  1
  O  O121  1  0.16072600  0.69879847  0.75627897  1
  O  O122  1  0.51869498  0.82679239  0.75621084  1
