# generated using pymatgen
data_Na4Zn3SnP2(SO6)4
_symmetry_space_group_name_H-M   'P 1'
_cell_length_a   8.88375601
_cell_length_b   8.85881102
_cell_length_c   22.61412083
_cell_angle_alpha   90.51868704
_cell_angle_beta   89.98972138
_cell_angle_gamma   120.09260364
_symmetry_Int_Tables_number   1
_chemical_formula_structural   Na4Zn3SnP2(SO6)4
_chemical_formula_sum   'Na12 Zn9 Sn3 P6 S12 O72'
_cell_volume   1539.76015558
_cell_formula_units_Z   3
loop_
 _symmetry_equiv_pos_site_id
 _symmetry_equiv_pos_as_xyz
  1  'x, y, z'
loop_
 _atom_site_type_symbol
 _atom_site_label
 _atom_site_symmetry_multiplicity
 _atom_site_fract_x
 _atom_site_fract_y
 _atom_site_fract_z
 _atom_site_occupancy
  Na  Na0  1  0.63284324  0.99786552  0.25277292  1
  Na  Na1  1  0.36472470  0.36481504  0.25041578  1
  Na  Na2  1  0.30443256  0.33751782  0.58878449  1
  Na  Na3  1  0.66758868  0.96001169  0.58357984  1
  Na  Na4  1  0.97380200  0.67629790  0.91352704  1
  Na  Na5  1  0.32525774  0.29735119  0.91156973  1
  Na  Na6  1  0.99040185  0.98577920  0.49760518  1
  Na  Na7  1  0.99250887  0.00072082  0.99783489  1
  Na  Na8  1  0.66142285  0.32573872  0.82661881  1
  Na  Na9  1  0.67508263  0.33676326  0.33475016  1
  Na  Na10  1  0.32496776  0.66619774  0.16266796  1
  Na  Na11  1  0.33002964  0.66240122  0.66840312  1
  Zn  Zn12  1  0.98987822  0.99561347  0.35424655  1
  Zn  Zn13  1  0.00089855  0.00768710  0.84837429  1
  Zn  Zn14  1  0.99842026  0.99195776  0.65667662  1
  Zn  Zn15  1  0.99971017  0.99713316  0.14815008  1
  Zn  Zn16  1  0.65729790  0.34385176  0.68827915  1
  Zn  Zn17  1  0.67430901  0.33998060  0.18010337  1
  Zn  Zn18  1  0.33608568  0.66916941  0.01264561  1
  Zn  Zn19  1  0.34366284  0.67357351  0.51296097  1
  Zn  Zn20  1  0.33190693  0.67568006  0.32413925  1
  Sn  Sn21  1  0.66706273  0.32825756  0.98195354  1
  Sn  Sn22  1  0.67015371  0.33663312  0.48169388  1
  Sn  Sn23  1  0.33462386  0.66181993  0.81573197  1
  P  P24  1  0.29325041  0.29138085  0.75000690  1
  P  P25  1  0.66952216  0.62822172  0.58424928  1
  P  P26  1  0.62959827  0.67285526  0.91925537  1
  P  P27  1  0.04162584  0.37251736  0.91870266  1
  P  P28  1  0.33243371  0.95541969  0.91811491  1
  P  P29  1  0.63091855  0.96290112  0.41695965  1
  S  S30  1  0.28887194  0.99744370  0.24981629  1
  S  S31  1  0.70909651  0.70617663  0.24947340  1
  S  S32  1  0.00136425  0.29431773  0.24986251  1
  S  S33  1  0.00082349  0.70506030  0.75114327  1
  S  S34  1  0.70538511  0.00198927  0.74963191  1
  S  S35  1  0.96105840  0.33726691  0.58481486  1
  S  S36  1  0.37270888  0.03856376  0.58402706  1
  S  S37  1  0.96329505  0.62908715  0.08458406  1
  S  S38  1  0.66616102  0.03656667  0.08563039  1
  S  S39  1  0.37048689  0.33363449  0.08512970  1
  S  S40  1  0.33132443  0.37035822  0.41630140  1
  S  S41  1  0.04213400  0.66823562  0.41712393  1
  O  O42  1  0.21195851  0.03108624  0.30274445  1
  O  O43  1  0.81438366  0.78458846  0.30294891  1
  O  O44  1  0.96898809  0.18380416  0.30241946  1
  O  O45  1  0.21227273  0.18923353  0.80681705  1
  O  O46  1  0.97606099  0.78222524  0.80584425  1
  O  O47  1  0.80876878  0.02287783  0.80264121  1
  O  O48  1  0.77535200  0.96788510  0.69434519  1
  O  O49  1  0.18521459  0.21616070  0.69227836  1
  O  O50  1  0.03059013  0.81074480  0.69788445  1
  O  O51  1  0.78563140  0.81629883  0.19672109  1
  O  O52  1  0.03306974  0.21572497  0.19627168  1
  O  O53  1  0.18553621  0.97279431  0.19590299  1
  O  O54  1  0.87720212  0.36084671  0.63629994  1
  O  O55  1  0.48801970  0.11941611  0.63510912  1
  O  O56  1  0.63116419  0.50564533  0.63567092  1
  O  O57  1  0.87771082  0.51811015  0.13591735  1
  O  O58  1  0.64066159  0.11918122  0.13933492  1
  O  O59  1  0.47907050  0.35857171  0.13832700  1
  O  O60  1  0.45158235  0.30296291  0.02958367  1
  O  O61  1  0.85290915  0.54986970  0.02820837  1
  O  O62  1  0.69785766  0.14999188  0.03144227  1
  O  O63  1  0.45061626  0.15172363  0.52901894  1
  O  O64  1  0.70068326  0.54721045  0.52574476  1
  O  O65  1  0.84751221  0.29765223  0.52929485  1
  O  O66  1  0.54813620  0.69729385  0.97426648  1
  O  O67  1  0.15410750  0.45369648  0.97331189  1
  O  O68  1  0.29959220  0.84512953  0.97260221  1
  O  O69  1  0.54970325  0.85931731  0.47344203  1
  O  O70  1  0.30711512  0.44916265  0.47066764  1
  O  O71  1  0.14336746  0.68907026  0.47096755  1
  O  O72  1  0.11256341  0.63237010  0.36309241  1
  O  O73  1  0.52276772  0.88969436  0.35945663  1
  O  O74  1  0.36173720  0.47569662  0.36224208  1
  O  O75  1  0.11489911  0.49337860  0.86302637  1
  O  O76  1  0.36972510  0.87912281  0.86116484  1
  O  O77  1  0.50911822  0.62340939  0.86314224  1
  O  O78  1  0.02239734  0.82306783  0.41126890  1
  O  O79  1  0.81327838  0.98522005  0.41149351  1
  O  O80  1  0.17896496  0.19423947  0.41024691  1
  O  O81  1  0.02152034  0.19233231  0.91054107  1
  O  O82  1  0.17370630  0.98036394  0.91109191  1
  O  O83  1  0.81429667  0.82383051  0.91026272  1
  O  O84  1  0.97820914  0.17750108  0.58737630  1
  O  O85  1  0.20137079  0.02769604  0.58836507  1
  O  O86  1  0.82944335  0.81425614  0.58899256  1
  O  O87  1  0.97483857  0.80119126  0.08899543  1
  O  O88  1  0.82577149  0.02437100  0.08952039  1
  O  O89  1  0.19849001  0.17338669  0.08881931  1
  O  O90  1  0.68650028  0.15710826  0.74366340  1
  O  O91  1  0.47588365  0.31329729  0.74596146  1
  O  O92  1  0.84866589  0.52821839  0.74502739  1
  O  O93  1  0.68255506  0.52546649  0.24327802  1
  O  O94  1  0.84065689  0.30868493  0.24338149  1
  O  O95  1  0.46946577  0.15874555  0.24462753  1
  O  O96  1  0.64275570  0.49733748  0.92379268  1
  O  O97  1  0.85875218  0.36372068  0.92345849  1
  O  O98  1  0.49771981  0.14594408  0.92291365  1
  O  O99  1  0.64561175  0.15104597  0.42249880  1
  O  O100  1  0.49568974  0.35663657  0.42132490  1
  O  O101  1  0.86075764  0.50498019  0.42115377  1
  O  O102  1  0.35753332  0.49144458  0.07889136  1
  O  O103  1  0.13407085  0.64295705  0.07820018  1
  O  O104  1  0.50818134  0.86564262  0.07855232  1
  O  O105  1  0.35622861  0.86473587  0.57585754  1
  O  O106  1  0.50115051  0.64286672  0.57708669  1
  O  O107  1  0.13620039  0.49161468  0.57631904  1
  O  O108  1  0.31471616  0.84358125  0.25473704  1
  O  O109  1  0.52950448  0.68573328  0.25477366  1
  O  O110  1  0.16131380  0.46983168  0.25676469  1
  O  O111  1  0.30966544  0.48048924  0.75422857  1
  O  O112  1  0.16574790  0.69212483  0.75542875  1
  O  O113  1  0.52500503  0.83827386  0.75463815  1
