# generated using pymatgen
data_MgMnV4NiO12
_symmetry_space_group_name_H-M   'P 1'
_cell_length_a   7.26315789
_cell_length_b   7.24898359
_cell_length_c   5.60913905
_cell_angle_alpha   75.99550187
_cell_angle_beta   103.86982675
_cell_angle_gamma   101.19048486
_symmetry_Int_Tables_number   1
_chemical_formula_structural   MgMnV4NiO12
_chemical_formula_sum   'Mg1 Mn1 V4 Ni1 O12'
_cell_volume   275.27395185
_cell_formula_units_Z   1
loop_
 _symmetry_equiv_pos_site_id
 _symmetry_equiv_pos_as_xyz
  1  'x, y, z'
loop_
 _atom_site_type_symbol
 _atom_site_label
 _atom_site_symmetry_multiplicity
 _atom_site_fract_x
 _atom_site_fract_y
 _atom_site_fract_z
 _atom_site_occupancy
  Mg  Mg0  1  0.41425621  0.41568002  0.75526903  1
  Mn  Mn1  1  0.07922675  0.07949020  0.74998366  1
  V  V2  1  0.12706291  0.62816370  0.64666177  1
  V  V3  1  0.36439078  0.80922756  0.20059681  1
  V  V4  1  0.62802266  0.12808565  0.85171629  1
  V  V5  1  0.81070930  0.36465169  0.29811033  1
  Ni  Ni6  1  0.91443296  0.91413249  0.25015282  1
  O  O7  1  0.00473507  0.82350098  0.61861969  1
  O  O8  1  0.12926451  0.37776741  0.76946310  1
  O  O9  1  0.18873063  0.95149301  0.15019299  1
  O  O10  1  0.36110350  0.65807401  0.50825526  1
  O  O11  1  0.37809271  0.13186493  0.73190559  1
  O  O12  1  0.31179962  0.67467257  0.97158836  1
  O  O13  1  0.65978120  0.36216730  0.99075349  1
  O  O14  1  0.59289652  0.94371666  0.19021559  1
  O  O15  1  0.67619382  0.31041258  0.52666892  1
  O  O16  1  0.82335676  0.00507079  0.88218592  1
  O  O17  1  0.94418889  0.59408323  0.30893726  1
  O  O18  1  0.95286722  0.18885721  0.34872410  1
