# generated using pymatgen
data_Na3MgNbSi(PO6)2
_symmetry_space_group_name_H-M   'P 1'
_cell_length_a   15.64199141
_cell_length_b   9.00865163
_cell_length_c   8.92435934
_cell_angle_alpha   90.00000000
_cell_angle_beta   124.41998812
_cell_angle_gamma   90.00000000
_symmetry_Int_Tables_number   1
_chemical_formula_structural   Na3MgNbSi(PO6)2
_chemical_formula_sum   'Na12 Mg4 Nb4 Si4 P8 O48'
_cell_volume   1037.38221612
_cell_formula_units_Z   4
loop_
 _symmetry_equiv_pos_site_id
 _symmetry_equiv_pos_as_xyz
  1  'x, y, z'
loop_
 _atom_site_type_symbol
 _atom_site_label
 _atom_site_symmetry_multiplicity
 _atom_site_fract_x
 _atom_site_fract_y
 _atom_site_fract_z
 _atom_site_occupancy
  Na  Na0  1  0.25059213  0.72629298  0.98218726  1
  Na  Na1  1  0.75059213  0.77370702  0.48218726  1
  Na  Na2  1  0.75059213  0.22629298  0.98218726  1
  Na  Na3  1  0.25059213  0.27370702  0.48218726  1
  Na  Na4  1  0.50799317  0.09800430  0.75476390  1
  Na  Na5  1  0.50799317  0.90199570  0.25476390  1
  Na  Na6  1  0.00799317  0.59800430  0.75476390  1
  Na  Na7  1  0.00799317  0.40199570  0.25476390  1
  Na  Na8  1  0.18212686  0.92791344  0.30006177  1
  Na  Na9  1  0.18212686  0.07208656  0.80006177  1
  Na  Na10  1  0.68212686  0.42791344  0.30006177  1
  Na  Na11  1  0.68212686  0.57208656  0.80006177  1
  Mg  Mg12  1  0.10328000  0.74692358  0.56221135  1
  Mg  Mg13  1  0.10328000  0.25307642  0.06221135  1
  Mg  Mg14  1  0.60328000  0.24692358  0.56221135  1
  Mg  Mg15  1  0.60328000  0.75307642  0.06221135  1
  Nb  Nb16  1  0.89568955  0.75570589  0.93720131  1
  Nb  Nb17  1  0.89568955  0.24429411  0.43720131  1
  Nb  Nb18  1  0.39568955  0.25570589  0.93720131  1
  Nb  Nb19  1  0.39568955  0.74429411  0.43720131  1
  Si  Si20  1  0.64815416  0.89472579  0.75008916  1
  Si  Si21  1  0.64815416  0.10527421  0.25008916  1
  Si  Si22  1  0.14815416  0.39472579  0.75008916  1
  Si  Si23  1  0.14815416  0.60527421  0.25008916  1
  P  P24  1  0.00023771  0.95766362  0.75978408  1
  P  P25  1  0.00023771  0.04233638  0.25978408  1
  P  P26  1  0.50023771  0.45766362  0.75978408  1
  P  P27  1  0.50023771  0.54233638  0.25978408  1
  P  P28  1  0.35406372  0.89729611  0.76138796  1
  P  P29  1  0.35406372  0.10270389  0.26138796  1
  P  P30  1  0.85406372  0.39729611  0.76138796  1
  P  P31  1  0.85406372  0.60270389  0.26138796  1
  O  O32  1  0.14991905  0.57180556  0.73765326  1
  O  O33  1  0.85268034  0.57440399  0.75508235  1
  O  O34  1  0.85268034  0.42559601  0.25508235  1
  O  O35  1  0.14991905  0.42819444  0.23765326  1
  O  O36  1  0.64991905  0.07180556  0.73765326  1
  O  O37  1  0.35268034  0.07440399  0.75508235  1
  O  O38  1  0.35268034  0.92559601  0.25508235  1
  O  O39  1  0.64991905  0.92819444  0.23765326  1
  O  O40  1  0.43752201  0.56713547  0.58932860  1
  O  O41  1  0.56133839  0.54921906  0.93120913  1
  O  O42  1  0.56133839  0.45078094  0.43120913  1
  O  O43  1  0.43752201  0.43286453  0.08932860  1
  O  O44  1  0.93752201  0.06713547  0.58932860  1
  O  O45  1  0.06133839  0.04921906  0.93120913  1
  O  O46  1  0.06133839  0.95078094  0.43120913  1
  O  O47  1  0.93752201  0.93286453  0.08932860  1
  O  O48  1  0.25570438  0.84941980  0.74459802  1
  O  O49  1  0.74591233  0.80890833  0.75691271  1
  O  O50  1  0.74591233  0.19109167  0.25691271  1
  O  O51  1  0.25570438  0.15058020  0.24459802  1
  O  O52  1  0.75570438  0.34941980  0.74459802  1
  O  O53  1  0.24591233  0.30890833  0.75691271  1
  O  O54  1  0.24591233  0.69109167  0.25691271  1
  O  O55  1  0.75570438  0.65058020  0.24459802  1
  O  O56  1  0.35474769  0.85674385  0.58606065  1
  O  O57  1  0.64520409  0.83106689  0.91185554  1
  O  O58  1  0.64520409  0.16893311  0.41185554  1
  O  O59  1  0.35474769  0.14325615  0.08606065  1
  O  O60  1  0.85474769  0.35674385  0.58606065  1
  O  O61  1  0.14520409  0.33106689  0.91185554  1
  O  O62  1  0.14520409  0.66893311  0.41185554  1
  O  O63  1  0.85474769  0.64325615  0.08606065  1
  O  O64  1  0.45327170  0.84218528  0.93020606  1
  O  O65  1  0.53552037  0.82417439  0.55886370  1
  O  O66  1  0.53552037  0.17582561  0.05886370  1
  O  O67  1  0.45327170  0.15781472  0.43020606  1
  O  O68  1  0.95327170  0.34218528  0.93020606  1
  O  O69  1  0.03552037  0.32417439  0.55886370  1
  O  O70  1  0.03552037  0.67582561  0.05886370  1
  O  O71  1  0.95327170  0.65781472  0.43020606  1
  O  O72  1  0.07181387  0.85735478  0.73971346  1
  O  O73  1  0.91422845  0.85995962  0.75082972  1
  O  O74  1  0.91422845  0.14004038  0.25082972  1
  O  O75  1  0.07181387  0.14264522  0.23971346  1
  O  O76  1  0.57181387  0.35735478  0.73971346  1
  O  O77  1  0.41422845  0.35995962  0.75082972  1
  O  O78  1  0.41422845  0.64004038  0.25082972  1
  O  O79  1  0.57181387  0.64264522  0.23971346  1
