# generated using pymatgen
data_K2CdO2
_symmetry_space_group_name_H-M   'P 1'
_cell_length_a   6.21240872
_cell_length_b   6.18587238
_cell_length_c   9.98436720
_cell_angle_alpha   90.00000000
_cell_angle_beta   90.00000000
_cell_angle_gamma   90.00000000
_symmetry_Int_Tables_number   1
_chemical_formula_structural   K2CdO2
_chemical_formula_sum   'K8 Cd4 O8'
_cell_volume   383.69091965
_cell_formula_units_Z   4
loop_
 _symmetry_equiv_pos_site_id
 _symmetry_equiv_pos_as_xyz
  1  'x, y, z'
loop_
 _atom_site_type_symbol
 _atom_site_label
 _atom_site_symmetry_multiplicity
 _atom_site_fract_x
 _atom_site_fract_y
 _atom_site_fract_z
 _atom_site_occupancy
  K  K0  1  0.39145055  0.10247882  0.65548631  1
  K  K1  1  0.60854945  0.39752118  0.15548631  1
  K  K2  1  0.89145055  0.89752118  0.65548631  1
  K  K3  1  0.10854945  0.60247882  0.15548631  1
  K  K4  1  0.60854945  0.89752118  0.34451369  1
  K  K5  1  0.39145055  0.60247882  0.84451369  1
  K  K6  1  0.89145055  0.39752118  0.84451369  1
  K  K7  1  0.10854945  0.10247882  0.34451369  1
  Cd  Cd8  1  0.75000000  0.46129000  0.50000000  1
  Cd  Cd9  1  0.25000000  0.53871100  0.50000000  1
  Cd  Cd10  1  0.75000000  0.96128900  -0.00000000  1
  Cd  Cd11  1  0.25000000  0.03871000  -0.00000000  1
  O  O12  1  0.52077777  0.20116838  0.90068623  1
  O  O13  1  0.02077777  0.79883162  0.90068623  1
  O  O14  1  0.52077777  0.70116838  0.59931377  1
  O  O15  1  0.47922223  0.29883162  0.40068623  1
  O  O16  1  0.47922223  0.79883162  0.09931377  1
  O  O17  1  0.97922223  0.20116838  0.09931377  1
  O  O18  1  0.02077777  0.29883162  0.59931377  1
  O  O19  1  0.97922223  0.70116838  0.40068623  1
