# generated using pymatgen
data_Na5La3TiSi3(SO8)3
_symmetry_space_group_name_H-M   'P 1'
_cell_length_a   9.53469025
_cell_length_b   9.45042707
_cell_length_c   23.77307041
_cell_angle_alpha   91.58231498
_cell_angle_beta   89.60274648
_cell_angle_gamma   119.69867751
_symmetry_Int_Tables_number   1
_chemical_formula_structural   Na5La3TiSi3(SO8)3
_chemical_formula_sum   'Na15 La9 Ti3 Si9 S9 O72'
_cell_volume   1859.96963120
_cell_formula_units_Z   3
loop_
 _symmetry_equiv_pos_site_id
 _symmetry_equiv_pos_as_xyz
  1  'x, y, z'
loop_
 _atom_site_type_symbol
 _atom_site_label
 _atom_site_symmetry_multiplicity
 _atom_site_fract_x
 _atom_site_fract_y
 _atom_site_fract_z
 _atom_site_occupancy
  Na  Na0  1  0.65380856  0.01410010  0.25945243  1
  Na  Na1  1  0.99612971  0.61886809  0.24810432  1
  Na  Na2  1  0.63719421  0.64947042  0.74491549  1
  Na  Na3  1  0.35639082  0.00418164  0.76503243  1
  Na  Na4  1  0.66630344  0.94512480  0.58056326  1
  Na  Na5  1  0.99157029  0.69057797  0.91917780  1
  Na  Na6  1  0.68597365  0.01635745  0.91361857  1
  Na  Na7  1  0.95401131  0.30909709  0.41208006  1
  Na  Na8  1  0.69484386  0.68773368  0.43128795  1
  Na  Na9  1  0.00011222  0.96586409  0.50230177  1
  Na  Na10  1  0.01168527  0.97765096  0.99647981  1
  Na  Na11  1  0.64172857  0.30881220  0.83488949  1
  Na  Na12  1  0.66584471  0.31073173  0.33780467  1
  Na  Na13  1  0.28153400  0.61913262  0.16070744  1
  Na  Na14  1  0.32510269  0.62100609  0.67498922  1
  La  La15  1  0.00056332  0.00705364  0.35122695  1
  La  La16  1  0.01499764  0.02193076  0.84909925  1
  La  La17  1  0.00141988  0.00996091  0.65291644  1
  La  La18  1  0.00242606  0.00186616  0.14025590  1
  La  La19  1  0.66393761  0.33948973  0.68534755  1
  La  La20  1  0.67666179  0.33821849  0.17753937  1
  La  La21  1  0.32948827  0.67178865  0.01677538  1
  La  La22  1  0.33295304  0.67128532  0.51640928  1
  La  La23  1  0.31792039  0.66326502  0.32556218  1
  Ti  Ti24  1  0.65895391  0.35452549  0.97609311  1
  Ti  Ti25  1  0.68057289  0.35068984  0.48215355  1
  Ti  Ti26  1  0.38363729  0.68632178  0.81870933  1
  Si  Si27  1  0.00002506  0.30683204  0.25277568  1
  Si  Si28  1  0.30713976  0.32143339  0.75303261  1
  Si  Si29  1  0.68590302  0.99526140  0.75433340  1
  Si  Si30  1  0.67402786  0.63519747  0.58256995  1
  Si  Si31  1  0.95131505  0.62486063  0.07859739  1
  Si  Si32  1  0.63686349  0.66657752  0.91773537  1
  Si  Si33  1  0.35076901  0.97128930  0.91602120  1
  Si  Si34  1  0.63962545  0.98685882  0.41886257  1
  Si  Si35  1  0.01069105  0.65830107  0.41832014  1
  S  S36  1  0.30530338  0.99481222  0.24929933  1
  S  S37  1  0.69337762  0.70099277  0.25069425  1
  S  S38  1  0.02101846  0.70168889  0.75361055  1
  S  S39  1  0.95029489  0.32622278  0.57646894  1
  S  S40  1  0.37643222  0.05287100  0.57901923  1
  S  S41  1  0.67203246  0.03909024  0.07825002  1
  S  S42  1  0.37616479  0.32728005  0.07563664  1
  S  S43  1  0.01622942  0.37647676  0.91716357  1
  S  S44  1  0.35581128  0.36236520  0.41964296  1
  O  O45  1  0.22630090  0.00516526  0.30164243  1
  O  O46  1  0.78373778  0.77477922  0.30438081  1
  O  O47  1  0.99042621  0.22024136  0.31321535  1
  O  O48  1  0.23531314  0.18278432  0.80025011  1
  O  O49  1  0.99069051  0.77112325  0.80581566  1
  O  O50  1  0.78975118  0.01476234  0.81013790  1
  O  O51  1  0.76525625  0.96146173  0.69692435  1
  O  O52  1  0.19948507  0.24406640  0.69506411  1
  O  O53  1  0.03715367  0.80727862  0.70530439  1
  O  O54  1  0.78826006  0.80019348  0.20314805  1
  O  O55  1  0.00195053  0.19158192  0.20031935  1
  O  O56  1  0.20846245  0.98391443  0.19962960  1
  O  O57  1  0.87388277  0.33598612  0.62901969  1
  O  O58  1  0.44875612  0.12212061  0.63504569  1
  O  O59  1  0.67320696  0.55328747  0.64169417  1
  O  O60  1  0.87334834  0.55236462  0.14042977  1
  O  O61  1  0.66920700  0.11253593  0.13469923  1
  O  O62  1  0.45368936  0.32599285  0.12902000  1
  O  O63  1  0.47573391  0.32583429  0.02640915  1
  O  O64  1  0.81850963  0.49639064  0.02585155  1
  O  O65  1  0.66594481  0.13575953  0.03189760  1
  O  O66  1  0.48011943  0.15434018  0.53313172  1
  O  O67  1  0.67349497  0.50876515  0.52851456  1
  O  O68  1  0.85452114  0.32805759  0.52660526  1
  O  O69  1  0.54966773  0.70068084  0.96893714  1
  O  O70  1  0.10456971  0.44402177  0.97000878  1
  O  O71  1  0.30852743  0.85528693  0.96893191  1
  O  O72  1  0.55514174  0.85147371  0.46760813  1
  O  O73  1  0.32756319  0.44040032  0.46922463  1
  O  O74  1  0.13404824  0.67357965  0.46696120  1
  O  O75  1  0.06942399  0.61490460  0.35813121  1
  O  O76  1  0.54266496  0.91500098  0.35828585  1
  O  O77  1  0.38059323  0.46226917  0.36925677  1
  O  O78  1  0.10654750  0.47106939  0.86844359  1
  O  O79  1  0.38063228  0.86734345  0.86082615  1
  O  O80  1  0.52663724  0.65066898  0.85930982  1
  O  O81  1  0.97039580  0.80647921  0.41711189  1
  O  O82  1  0.82825195  0.02304993  0.41587197  1
  O  O83  1  0.21546547  0.19735534  0.41306398  1
  O  O84  1  0.97438983  0.20174998  0.91364462  1
  O  O85  1  0.19106479  0.98819264  0.90688414  1
  O  O86  1  0.82340119  0.80914727  0.91123406  1
  O  O87  1  0.94810651  0.16673318  0.57335730  1
  O  O88  1  0.21216137  0.03207453  0.57547297  1
  O  O89  1  0.83413153  0.81760626  0.57634114  1
  O  O90  1  0.96537245  0.80339181  0.07167921  1
  O  O91  1  0.82475789  0.03135337  0.07459053  1
  O  O92  1  0.21533943  0.17756879  0.07062623  1
  O  O93  1  0.63367977  0.13528327  0.75040869  1
  O  O94  1  0.49881374  0.36929007  0.74852716  1
  O  O95  1  0.87932280  0.53655310  0.74567488  1
  O  O96  1  0.67125259  0.53400476  0.24712139  1
  O  O97  1  0.83048007  0.31920615  0.25131177  1
  O  O98  1  0.47207729  0.13718125  0.24801392  1
  O  O99  1  0.64092545  0.48994163  0.92630241  1
  O  O100  1  0.85571967  0.37650945  0.91900387  1
  O  O101  1  0.52457604  0.15054987  0.92640935  1
  O  O102  1  0.65547407  0.16810640  0.43465092  1
  O  O103  1  0.50698593  0.35305943  0.42615297  1
  O  O104  1  0.83019801  0.48803820  0.43129680  1
  O  O105  1  0.36009571  0.47396265  0.07658683  1
  O  O106  1  0.12392711  0.63049849  0.07847267  1
  O  O107  1  0.53165746  0.87259132  0.07939504  1
  O  O108  1  0.36812841  0.89044159  0.57684341  1
  O  O109  1  0.51352652  0.65747112  0.57918831  1
  O  O110  1  0.11657236  0.46316646  0.57514580  1
  O  O111  1  0.31812643  0.84243486  0.24921510  1
  O  O112  1  0.53603364  0.69748954  0.25218209  1
  O  O113  1  0.15619791  0.49435335  0.25027633  1
  O  O114  1  0.31403233  0.49876911  0.76994459  1
  O  O115  1  0.17345022  0.69655264  0.75759806  1
  O  O116  1  0.50859813  0.81494061  0.76079811  1
