# generated using pymatgen
data_Na8NbGa3Si4(PO12)2
_symmetry_space_group_name_H-M   'P 1'
_cell_length_a   8.96725655
_cell_length_b   8.97580145
_cell_length_c   21.95064602
_cell_angle_alpha   89.69135845
_cell_angle_beta   89.90206634
_cell_angle_gamma   119.92709990
_symmetry_Int_Tables_number   1
_chemical_formula_structural   Na8NbGa3Si4(PO12)2
_chemical_formula_sum   'Na24 Nb3 Ga9 Si12 P6 O72'
_cell_volume   1531.14894591
_cell_formula_units_Z   3
loop_
 _symmetry_equiv_pos_site_id
 _symmetry_equiv_pos_as_xyz
  1  'x, y, z'
loop_
 _atom_site_type_symbol
 _atom_site_label
 _atom_site_symmetry_multiplicity
 _atom_site_fract_x
 _atom_site_fract_y
 _atom_site_fract_z
 _atom_site_occupancy
  Na  Na0  1  0.62936918  0.99736271  0.25349972  1
  Na  Na1  1  0.36980779  0.37195209  0.25208569  1
  Na  Na2  1  0.00287327  0.62961970  0.25193381  1
  Na  Na3  1  0.63781175  0.63148787  0.74150493  1
  Na  Na4  1  0.99224477  0.35970203  0.74377557  1
  Na  Na5  1  0.37108544  0.01027674  0.74693425  1
  Na  Na6  1  0.29599272  0.33724298  0.58404101  1
  Na  Na7  1  0.03889372  0.70287496  0.58242771  1
  Na  Na8  1  0.66651416  0.95879414  0.58164678  1
  Na  Na9  1  0.29343099  0.95910376  0.08206688  1
  Na  Na10  1  0.66265528  0.70272188  0.08432179  1
  Na  Na11  1  0.04172299  0.33948525  0.08462389  1
  Na  Na12  1  0.97231687  0.67760718  0.91353549  1
  Na  Na13  1  0.70748106  0.03083823  0.91229399  1
  Na  Na14  1  0.32073666  0.28985990  0.91213161  1
  Na  Na15  1  0.97352892  0.29695163  0.41499505  1
  Na  Na16  1  0.32641425  0.02799886  0.41533261  1
  Na  Na17  1  0.70051353  0.67528136  0.41513931  1
  Na  Na18  1  0.99820861  0.00008784  0.49977341  1
  Na  Na19  1  0.00199073  0.00016956  0.99898147  1
  Na  Na20  1  0.66398246  0.32901613  0.82705331  1
  Na  Na21  1  0.66552244  0.33183528  0.33086771  1
  Na  Na22  1  0.33071529  0.66384377  0.16659694  1
  Na  Na23  1  0.33457361  0.66433299  0.65954962  1
  Nb  Nb24  1  0.66406019  0.33647860  0.98033638  1
  Nb  Nb25  1  0.67226320  0.33786541  0.47935371  1
  Nb  Nb26  1  0.33563133  0.66529205  0.81232059  1
  Ga  Ga27  1  0.99965306  0.99992060  0.35399742  1
  Ga  Ga28  1  0.00205361  0.00679380  0.85149160  1
  Ga  Ga29  1  0.99182434  0.00351077  0.64722757  1
  Ga  Ga30  1  0.00501701  0.99926380  0.14782305  1
  Ga  Ga31  1  0.66392635  0.33166468  0.68368218  1
  Ga  Ga32  1  0.66873025  0.33827818  0.18220360  1
  Ga  Ga33  1  0.32678173  0.65956472  0.01834127  1
  Ga  Ga34  1  0.33231910  0.65851158  0.51555573  1
  Ga  Ga35  1  0.33554481  0.66818816  0.32147771  1
  Si  Si36  1  0.28894451  0.28359381  0.74845211  1
  Si  Si37  1  0.71398762  0.00511322  0.74913905  1
  Si  Si38  1  0.96316502  0.33586027  0.58665226  1
  Si  Si39  1  0.66726496  0.62947248  0.58669096  1
  Si  Si40  1  0.96333325  0.62924984  0.08710784  1
  Si  Si41  1  0.37030615  0.33481423  0.08766897  1
  Si  Si42  1  0.62647846  0.67331429  0.91967118  1
  Si  Si43  1  0.04303727  0.37198372  0.91896620  1
  Si  Si44  1  0.32867313  0.95376461  0.91924869  1
  Si  Si45  1  0.62189047  0.95210690  0.41581068  1
  Si  Si46  1  0.32880703  0.37463248  0.41493699  1
  Si  Si47  1  0.05095995  0.67220312  0.41554038  1
  P  P48  1  0.29272091  -0.00019805  0.24934121  1
  P  P49  1  0.71078459  0.71109243  0.24940999  1
  P  P50  1  0.99821325  0.28839273  0.24870861  1
  P  P51  1  0.99886548  0.71451537  0.75006460  1
  P  P52  1  0.37389434  0.03992366  0.58563917  1
  P  P53  1  0.66635675  0.04207601  0.08675037  1
  O  O54  1  0.20899535  0.03109264  0.30605675  1
  O  O55  1  0.82333270  0.79444724  0.30645266  1
  O  O56  1  0.96951984  0.17581073  0.30628592  1
  O  O57  1  0.20896748  0.17120954  0.81071325  1
  O  O58  1  0.97337724  0.79460069  0.80846662  1
  O  O59  1  0.82663288  0.03415375  0.81057289  1
  O  O60  1  0.78618734  0.95323536  0.68979887  1
  O  O61  1  0.16611871  0.20401956  0.68929249  1
  O  O62  1  0.03553979  0.82723347  0.69277438  1
  O  O63  1  0.79531347  0.82376583  0.19138246  1
  O  O64  1  0.02530105  0.20341795  0.19102862  1
  O  O65  1  0.18097783  0.97083780  0.19142874  1
  O  O66  1  0.87160340  0.36783960  0.64519875  1
  O  O67  1  0.48617156  0.12276327  0.64239980  1
  O  O68  1  0.63051494  0.50411758  0.64527588  1
  O  O69  1  0.87609091  0.50202362  0.14534618  1
  O  O70  1  0.63640421  0.12708303  0.14292636  1
  O  O71  1  0.49535446  0.36787260  0.14557947  1
  O  O72  1  0.46579937  0.30127623  0.02722924  1
  O  O73  1  0.83471315  0.52959738  0.02707708  1
  O  O74  1  0.69350906  0.15870638  0.02885017  1
  O  O75  1  0.46500910  0.15689906  0.52814215  1
  O  O76  1  0.69146804  0.52837878  0.52642503  1
  O  O77  1  0.83612109  0.30619205  0.52651338  1
  O  O78  1  0.54017680  0.70597892  0.97872105  1
  O  O79  1  0.16080841  0.45628231  0.97818220  1
  O  O80  1  0.29927432  0.83646930  0.97892778  1
  O  O81  1  0.53882540  0.83365384  0.47608515  1
  O  O82  1  0.29075840  0.45301714  0.47547835  1
  O  O83  1  0.16710984  0.70685956  0.47592213  1
  O  O84  1  0.12300902  0.62292825  0.35477971  1
  O  O85  1  0.50210922  0.87884029  0.35492012  1
  O  O86  1  0.37753963  0.49812640  0.35441925  1
  O  O87  1  0.13051761  0.49881180  0.85879113  1
  O  O88  1  0.36476388  0.86497857  0.85901561  1
  O  O89  1  0.49955098  0.63297597  0.85953785  1
  O  O90  1  0.01960147  0.83569858  0.40895750  1
  O  O91  1  0.81581246  0.97984231  0.40933952  1
  O  O92  1  0.16305304  0.18166864  0.40842517  1
  O  O93  1  0.01887062  0.18168950  0.91265381  1
  O  O94  1  0.16197754  0.97754848  0.91219790  1
  O  O95  1  0.81836647  0.83444264  0.91078199  1
  O  O96  1  0.97513577  0.15991761  0.58627395  1
  O  O97  1  0.19591027  0.02748535  0.58785125  1
  O  O98  1  0.84762065  0.81367496  0.58743795  1
  O  O99  1  0.96987011  0.81494879  0.08890303  1
  O  O100  1  0.83272396  0.03015505  0.08900336  1
  O  O101  1  0.18132525  0.16003618  0.08932493  1
  O  O102  1  0.68697713  0.17218465  0.74439677  1
  O  O103  1  0.48486750  0.31400676  0.74504028  1
  O  O104  1  0.84131325  0.53128724  0.74711317  1
  O  O105  1  0.69318683  0.52793380  0.24631224  1
  O  O106  1  0.83126429  0.30438127  0.24551070  1
  O  O107  1  0.47663813  0.16404552  0.24481226  1
  O  O108  1  0.63706945  0.49361994  0.92230207  1
  O  O109  1  0.85197985  0.35757806  0.92280579  1
  O  O110  1  0.50666536  0.14434585  0.92247786  1
  O  O111  1  0.64211207  0.14638305  0.42254644  1
  O  O112  1  0.50213934  0.35345774  0.42232437  1
  O  O113  1  0.85477236  0.49740571  0.42198054  1
  O  O114  1  0.35864416  0.50897926  0.08014945  1
  O  O115  1  0.15261313  0.64878205  0.08001515  1
  O  O116  1  0.50582672  0.86428876  0.08126053  1
  O  O117  1  0.35797582  0.86223271  0.57994454  1
  O  O118  1  0.49644198  0.64794867  0.57914925  1
  O  O119  1  0.15011155  0.50972187  0.57919163  1
  O  O120  1  0.31014900  0.83564612  0.25314037  1
  O  O121  1  0.52839320  0.69250747  0.25260065  1
  O  O122  1  0.16121900  0.47017334  0.25177196  1
  O  O123  1  0.30705640  0.47939280  0.75483156  1
  O  O124  1  0.16460056  0.69450649  0.75505102  1
  O  O125  1  0.51637424  0.83089599  0.75540095  1
