# generated using pymatgen
data_Na6Ca7Ge(SO4)12
_symmetry_space_group_name_H-M   'P 1'
_cell_length_a   18.20285369
_cell_length_b   9.08927086
_cell_length_c   24.05518802
_cell_angle_alpha   90.00966292
_cell_angle_beta   89.94886659
_cell_angle_gamma   119.88674322
_symmetry_Int_Tables_number   1
_chemical_formula_structural   Na6Ca7Ge(SO4)12
_chemical_formula_sum   'Na18 Ca21 Ge3 S36 O144'
_cell_volume   3450.66044145
_cell_formula_units_Z   3
loop_
 _symmetry_equiv_pos_site_id
 _symmetry_equiv_pos_as_xyz
  1  'x, y, z'
loop_
 _atom_site_type_symbol
 _atom_site_label
 _atom_site_symmetry_multiplicity
 _atom_site_fract_x
 _atom_site_fract_y
 _atom_site_fract_z
 _atom_site_occupancy
  Na  Na0  1  0.32238364  0.64306715  0.74915415  1
  Na  Na1  1  0.65125293  0.33213444  0.58502336  1
  Na  Na2  1  0.98850759  0.66828160  0.91879299  1
  Na  Na3  1  0.66414542  0.30234667  0.91546810  1
  Na  Na4  1  0.16648307  0.02754296  0.41792328  1
  Na  Na5  1  0.66682438  0.02716077  0.41791073  1
  Na  Na6  1  0.99343849  0.00248213  0.50253323  1
  Na  Na7  1  0.48128042  0.97779628  0.50213594  1
  Na  Na8  1  0.00341608  0.01935905  0.00498018  1
  Na  Na9  1  0.48957340  0.98210754  0.00129250  1
  Na  Na10  1  0.33920220  0.32253183  0.83870261  1
  Na  Na11  1  0.82859089  0.31284058  0.82964725  1
  Na  Na12  1  0.34168396  0.34921351  0.33538666  1
  Na  Na13  1  0.84226705  0.34950253  0.33451483  1
  Na  Na14  1  0.16720919  0.66692903  0.16499644  1
  Na  Na15  1  0.66598100  0.66597291  0.16518733  1
  Na  Na16  1  0.16388057  0.67220020  0.66220614  1
  Na  Na17  1  0.66259228  0.67694178  0.67035707  1
  Ca  Ca18  1  0.99492111  0.99914745  0.35090156  1
  Ca  Ca19  1  0.49516398  0.00097870  0.35098420  1
  Ca  Ca20  1  0.00170923  0.01146425  0.85123702  1
  Ca  Ca21  1  0.49679966  0.99566087  0.84874559  1
  Ca  Ca22  1  0.49820256  0.99522085  0.65201580  1
  Ca  Ca23  1  0.33632138  0.32571021  0.67932062  1
  Ca  Ca24  1  0.83254931  0.33297239  0.68326165  1
  Ca  Ca25  1  0.33266579  0.33211245  0.18103736  1
  Ca  Ca26  1  0.83236394  0.33325776  0.18080123  1
  Ca  Ca27  1  0.33373681  0.33629198  0.98855195  1
  Ca  Ca28  1  0.83277314  0.32042939  0.99367194  1
  Ca  Ca29  1  0.33546397  0.33958659  0.48745462  1
  Ca  Ca30  1  0.84583563  0.34818277  0.48881834  1
  Ca  Ca31  1  0.17071183  0.66796497  0.01883193  1
  Ca  Ca32  1  0.66581265  0.67115908  0.01856838  1
  Ca  Ca33  1  0.16577350  0.65834246  0.51810435  1
  Ca  Ca34  1  0.66772500  0.67154752  0.51542345  1
  Ca  Ca35  1  0.16699076  0.66095338  0.31281808  1
  Ca  Ca36  1  0.66693988  0.66073511  0.31251462  1
  Ca  Ca37  1  0.16360427  0.66805633  0.81676502  1
  Ca  Ca38  1  0.66786780  0.67102821  0.81612973  1
  Ge  Ge39  1  0.00206063  0.00569643  0.65429656  1
  Ge  Ge40  1  0.00084960  0.00167019  0.15379022  1
  Ge  Ge41  1  0.49861004  0.99820190  0.15326202  1
  S  S42  1  0.14124849  0.99765859  0.24665142  1
  S  S43  1  0.64094173  0.99777271  0.24658123  1
  S  S44  1  0.35714955  0.71649894  0.24459925  1
  S  S45  1  0.85793542  0.71802359  0.24424390  1
  S  S46  1  0.00110743  0.28598735  0.24440076  1
  S  S47  1  0.50106467  0.28502843  0.24415165  1
  S  S48  1  0.14450204  0.29123009  0.74439792  1
  S  S49  1  0.65257843  0.30446616  0.75023600  1
  S  S50  1  0.00116522  0.71914812  0.74620718  1
  S  S51  1  0.49805977  0.69538004  0.74943917  1
  S  S52  1  0.34695883  0.99531219  0.75032819  1
  S  S53  1  0.85844796  0.99800243  0.74459576  1
  S  S54  1  0.48844955  0.33302160  0.58255488  1
  S  S55  1  0.98533302  0.31314872  0.59031976  1
  S  S56  1  0.16955766  0.02605472  0.58767804  1
  S  S57  1  0.68316956  0.03715534  0.58138424  1
  S  S58  1  0.33270755  0.63754617  0.58627658  1
  S  S59  1  0.84153328  0.65178881  0.58826825  1
  S  S60  1  0.48485372  0.65663966  0.08984955  1
  S  S61  1  0.98592696  0.65696265  0.08721236  1
  S  S62  1  0.34324082  0.03018459  0.08957570  1
  S  S63  1  0.84333382  0.02722580  0.09021727  1
  S  S64  1  0.17148930  0.31286956  0.08975471  1
  S  S65  1  0.67117998  0.31441024  0.08740731  1
  S  S66  1  0.31717681  0.66266792  0.91452624  1
  S  S67  1  0.81733176  0.66216967  0.91784083  1
  S  S68  1  0.01523135  0.37089262  0.91799456  1
  S  S69  1  0.51788397  0.36738024  0.91701190  1
  S  S70  1  0.16551158  0.96597389  0.91737673  1
  S  S71  1  0.66817583  0.97474400  0.91672398  1
  S  S72  1  0.31348814  0.96664017  0.41700390  1
  S  S73  1  0.81450861  0.96816656  0.41637474  1
  S  S74  1  0.16705307  0.36102185  0.41584043  1
  S  S75  1  0.66831859  0.36151743  0.41859092  1
  S  S76  1  0.01917491  0.66917911  0.41565435  1
  S  S77  1  0.51790297  0.66897862  0.41482091  1
  O  O78  1  0.10278294  0.01146942  0.29837486  1
  O  O79  1  0.60277695  0.01159175  0.29855378  1
  O  O80  1  0.40501533  0.79666912  0.29474196  1
  O  O81  1  0.90539709  0.79727955  0.29465479  1
  O  O82  1  0.49409949  0.19074645  0.29459945  1
  O  O83  1  0.99386967  0.19049605  0.29460870  1
  O  O84  1  0.10445899  0.19392744  0.79448159  1
  O  O85  1  0.60872704  0.20768873  0.80096718  1
  O  O86  1  0.49014112  0.78138613  0.79921299  1
  O  O87  1  0.99419962  0.79559212  0.79817379  1
  O  O88  1  0.39582920  0.01111639  0.80085767  1
  O  O89  1  0.90607018  0.01136185  0.79476045  1
  O  O90  1  0.38974427  0.97956280  0.70045337  1
  O  O91  1  0.90416599  0.98026343  0.69271486  1
  O  O92  1  0.08969794  0.20121652  0.69294762  1
  O  O93  1  0.60537631  0.21864549  0.69900672  1
  O  O94  1  0.01106478  0.83415941  0.69532430  1
  O  O95  1  0.50537565  0.79268785  0.69893758  1
  O  O96  1  0.40198562  0.82626881  0.19260702  1
  O  O97  1  0.90335855  0.82893774  0.19262211  1
  O  O98  1  0.01087768  0.19539385  0.19255295  1
  O  O99  1  0.51031291  0.19317490  0.19250545  1
  O  O100  1  0.08439579  0.97940593  0.19578848  1
  O  O101  1  0.58390556  0.97923331  0.19588809  1
  O  O102  1  0.44738081  0.34657892  0.63330308  1
  O  O103  1  0.94246023  0.33363834  0.63836518  1
  O  O104  1  0.22397547  0.11677931  0.63482720  1
  O  O105  1  0.73476098  0.12702310  0.63032448  1
  O  O106  1  0.32797164  0.54610910  0.63857179  1
  O  O107  1  0.82974740  0.54278635  0.63623508  1
  O  O108  1  0.44273040  0.55214602  0.13811329  1
  O  O109  1  0.94043054  0.54706161  0.13386020  1
  O  O110  1  0.33290145  0.11367686  0.13804834  1
  O  O111  1  0.83265328  0.11312575  0.13774691  1
  O  O112  1  0.22324291  0.33245991  0.13821105  1
  O  O113  1  0.72588756  0.33289602  0.13408725  1
  O  O114  1  0.20662450  0.28479930  0.03828907  1
  O  O115  1  0.70568259  0.28972626  0.03432036  1
  O  O116  1  0.43620390  0.58631419  0.03822096  1
  O  O117  1  0.93934592  0.58901063  0.03398136  1
  O  O118  1  0.35633922  0.12792263  0.03806951  1
  O  O119  1  0.85751661  0.12380000  0.03809480  1
  O  O120  1  0.20238347  0.11784622  0.53457843  1
  O  O121  1  0.72478246  0.13466043  0.52976054  1
  O  O122  1  0.33677858  0.54379357  0.53744310  1
  O  O123  1  0.85588823  0.58167413  0.53679369  1
  O  O124  1  0.43933302  0.32081907  0.53268048  1
  O  O125  1  0.93757175  0.28391962  0.53829595  1
  O  O126  1  0.27037923  0.67417680  0.96303234  1
  O  O127  1  0.77610422  0.68019309  0.96806626  1
  O  O128  1  0.06532623  0.45628619  0.96796000  1
  O  O129  1  0.56960461  0.45365880  0.96684112  1
  O  O130  1  0.15579766  0.86008282  0.96665362  1
  O  O131  1  0.66246969  0.87813160  0.96725913  1
  O  O132  1  0.27153073  0.86851977  0.46762636  1
  O  O133  1  0.77342859  0.87023609  0.46699684  1
  O  O134  1  0.16016679  0.44446563  0.46629899  1
  O  O135  1  0.66196292  0.44002067  0.47091720  1
  O  O136  1  0.06892638  0.68330674  0.46601875  1
  O  O137  1  0.56804944  0.68572958  0.46516081  1
  O  O138  1  0.06109170  0.65476875  0.36510903  1
  O  O139  1  0.56067988  0.65510820  0.36455209  1
  O  O140  1  0.26357269  0.88122237  0.36661455  1
  O  O141  1  0.76356738  0.88115445  0.36647594  1
  O  O142  1  0.17321402  0.45738808  0.36536977  1
  O  O143  1  0.67345969  0.46333334  0.36958705  1
  O  O144  1  0.05657536  0.46932968  0.86714789  1
  O  O145  1  0.55926818  0.46575777  0.86643577  1
  O  O146  1  0.17264012  0.88471472  0.86619086  1
  O  O147  1  0.67588158  0.89242679  0.86623153  1
  O  O148  1  0.27179719  0.65106617  0.86164079  1
  O  O149  1  0.76748555  0.64585083  0.86768152  1
  O  O150  1  0.01564057  0.83065348  0.41327866  1
  O  O151  1  0.51429102  0.83040745  0.41216674  1
  O  O152  1  0.39997012  0.99173420  0.41441589  1
  O  O153  1  0.90075294  0.99202884  0.41372048  1
  O  O154  1  0.09143373  0.18545001  0.41369036  1
  O  O155  1  0.59247970  0.18687403  0.41481109  1
  O  O156  1  0.00284094  0.19773374  0.91498479  1
  O  O157  1  0.51483163  0.19944714  0.91398368  1
  O  O158  1  0.08468237  0.97308305  0.91438003  1
  O  O159  1  0.59232210  0.99727410  0.91396605  1
  O  O160  1  0.40250652  0.81720445  0.91428685  1
  O  O161  1  0.90548207  0.80787350  0.91351882  1
  O  O162  1  0.49959464  0.18094627  0.58464880  1
  O  O163  1  0.99138226  0.14923751  0.59775186  1
  O  O164  1  0.08208805  0.01515279  0.59622102  1
  O  O165  1  0.59989978  0.03175977  0.58506350  1
  O  O166  1  0.40981664  0.80785305  0.58554455  1
  O  O167  1  0.91925223  0.82695698  0.59618608  1
  O  O168  1  0.49068966  0.83238449  0.09688008  1
  O  O169  1  0.99162305  0.83110560  0.09528317  1
  O  O170  1  0.42498359  0.01829631  0.09660306  1
  O  O171  1  0.92487640  0.01632229  0.09737134  1
  O  O172  1  0.08353140  0.14971874  0.09698118  1
  O  O173  1  0.58453802  0.15245154  0.09524728  1
  O  O174  1  0.33373622  0.14283857  0.74702597  1
  O  O175  1  0.85204878  0.15261728  0.73935308  1
  O  O176  1  0.22963335  0.31202370  0.73784886  1
  O  O177  1  0.73809795  0.31885553  0.74948535  1
  O  O178  1  0.41698732  0.52718910  0.74697441  1
  O  O179  1  0.92461102  0.55321047  0.73908818  1
  O  O180  1  0.34994895  0.54897943  0.23858553  1
  O  O181  1  0.85081438  0.55053099  0.23822957  1
  O  O182  1  0.42472308  0.30000944  0.23855758  1
  O  O183  1  0.92476628  0.30070974  0.23847628  1
  O  O184  1  0.22438289  0.15073520  0.23960969  1
  O  O185  1  0.72415707  0.15107218  0.23960527  1
  O  O186  1  0.32560143  0.50795998  0.91903898  1
  O  O187  1  0.82366789  0.50306096  0.92227147  1
  O  O188  1  0.43127805  0.34243924  0.92165552  1
  O  O189  1  0.93116871  0.36488823  0.92159275  1
  O  O190  1  0.23971613  0.13829130  0.92208904  1
  O  O191  1  0.74414680  0.15112217  0.92010044  1
  O  O192  1  0.31686465  0.13532280  0.42002959  1
  O  O193  1  0.81825342  0.13692475  0.41957457  1
  O  O194  1  0.24285289  0.33671775  0.41856212  1
  O  O195  1  0.74448724  0.33860875  0.42008109  1
  O  O196  1  0.43130963  0.52061080  0.41820764  1
  O  O197  1  0.93256093  0.52116931  0.41882894  1
  O  O198  1  0.15785769  0.45977786  0.08447924  1
  O  O199  1  0.65922466  0.46376770  0.08351720  1
  O  O200  1  0.07246523  0.68186486  0.08320889  1
  O  O201  1  0.57188863  0.68414626  0.08467712  1
  O  O202  1  0.27032415  0.85567732  0.08450978  1
  O  O203  1  0.76965312  0.85380282  0.08468117  1
  O  O204  1  0.15668139  0.85268758  0.58422540  1
  O  O205  1  0.67104809  0.86412890  0.57980248  1
  O  O206  1  0.25577462  0.65555322  0.58362746  1
  O  O207  1  0.76334059  0.66459049  0.58264299  1
  O  O208  1  0.07164301  0.45982928  0.58500869  1
  O  O209  1  0.57608308  0.48458315  0.58032516  1
  O  O210  1  0.14807146  0.84214878  0.24549187  1
  O  O211  1  0.64823631  0.84272939  0.24566504  1
  O  O212  1  0.27295093  0.70399240  0.24477432  1
  O  O213  1  0.77371965  0.70499795  0.24446843  1
  O  O214  1  0.07888044  0.45442793  0.24441582  1
  O  O215  1  0.57884512  0.45328241  0.24397288  1
  O  O216  1  0.15273467  0.46233896  0.74543805  1
  O  O217  1  0.66140298  0.47605615  0.75154867  1
  O  O218  1  0.07815691  0.70399422  0.74508978  1
  O  O219  1  0.57286443  0.67221321  0.75245711  1
  O  O220  1  0.26365196  0.83190906  0.75279482  1
  O  O221  1  0.77416869  0.84426199  0.74428574  1
