# generated using pymatgen
data_Cs2Sb4S7
_symmetry_space_group_name_H-M   'P 1'
_cell_length_a   12.37928438
_cell_length_b   11.37672529
_cell_length_c   11.97554678
_cell_angle_alpha   80.51513505
_cell_angle_beta   90.00000000
_cell_angle_gamma   90.00000000
_symmetry_Int_Tables_number   1
_chemical_formula_structural   Cs2Sb4S7
_chemical_formula_sum   'Cs8 Sb16 S28'
_cell_volume   1663.52770471
_cell_formula_units_Z   4
loop_
 _symmetry_equiv_pos_site_id
 _symmetry_equiv_pos_as_xyz
  1  'x, y, z'
loop_
 _atom_site_type_symbol
 _atom_site_label
 _atom_site_symmetry_multiplicity
 _atom_site_fract_x
 _atom_site_fract_y
 _atom_site_fract_z
 _atom_site_occupancy
  Cs  Cs0  1  0.92978392  0.97805369  0.67092695  1
  Cs  Cs1  1  0.42978392  0.02194631  0.82907305  1
  Cs  Cs2  1  0.07021608  0.02194631  0.32907305  1
  Cs  Cs3  1  0.57021608  0.97805369  0.17092695  1
  Cs  Cs4  1  0.45457195  0.54614685  0.30574588  1
  Cs  Cs5  1  0.95457195  0.45385315  0.19425412  1
  Cs  Cs6  1  0.54542805  0.45385315  0.69425412  1
  Cs  Cs7  1  0.04542805  0.54614685  0.80574588  1
  Sb  Sb8  1  0.33977460  0.63742138  0.92428774  1
  Sb  Sb9  1  0.83977460  0.36257862  0.57571226  1
  Sb  Sb10  1  0.66022540  0.36257862  0.07571226  1
  Sb  Sb11  1  0.16022540  0.63742138  0.42428774  1
  Sb  Sb12  1  0.14215225  0.80248241  0.05132945  1
  Sb  Sb13  1  0.64215225  0.19751759  0.44867055  1
  Sb  Sb14  1  0.85784775  0.19751759  0.94867055  1
  Sb  Sb15  1  0.35784775  0.80248241  0.55132945  1
  Sb  Sb16  1  0.85429809  0.85046034  0.09054320  1
  Sb  Sb17  1  0.35429809  0.14953966  0.40945680  1
  Sb  Sb18  1  0.14570191  0.14953966  0.90945680  1
  Sb  Sb19  1  0.64570191  0.85046034  0.59054320  1
  Sb  Sb20  1  0.64097142  0.70288648  0.94897759  1
  Sb  Sb21  1  0.14097142  0.29711352  0.55102241  1
  Sb  Sb22  1  0.35902858  0.29711352  0.05102241  1
  Sb  Sb23  1  0.85902858  0.70288648  0.44897759  1
  S  S24  1  0.22855474  0.79892330  0.83867788  1
  S  S25  1  0.72855474  0.20107670  0.66132212  1
  S  S26  1  0.77144526  0.20107670  0.16132212  1
  S  S27  1  0.27144526  0.79892330  0.33867788  1
  S  S28  1  0.20489834  0.59239541  0.08284992  1
  S  S29  1  0.70489834  0.40760459  0.41715008  1
  S  S30  1  0.79510166  0.40760459  0.91715008  1
  S  S31  1  0.29510166  0.59239541  0.58284992  1
  S  S32  1  0.97392019  0.80249291  0.93936766  1
  S  S33  1  0.47392019  0.19750709  0.56063234  1
  S  S34  1  0.02607981  0.19750709  0.06063234  1
  S  S35  1  0.52607981  0.80249291  0.43936766  1
  S  S36  1  0.00430388  0.75669462  0.22246716  1
  S  S37  1  0.50430388  0.24330538  0.27753284  1
  S  S38  1  0.99569612  0.24330538  0.77753284  1
  S  S39  1  0.49569612  0.75669462  0.72246716  1
  S  S40  1  0.73857709  0.67215813  0.13657794  1
  S  S41  1  0.23857709  0.32784187  0.36342206  1
  S  S42  1  0.26142291  0.32784187  0.86342206  1
  S  S43  1  0.76142291  0.67215813  0.63657794  1
  S  S44  1  0.70394441  0.90159489  0.89860103  1
  S  S45  1  0.20394441  0.09840511  0.60139897  1
  S  S46  1  0.29605559  0.09840511  0.10139897  1
  S  S47  1  0.79605559  0.90159489  0.39860103  1
  S  S48  1  0.03557775  0.73909665  0.53990082  1
  S  S49  1  0.53557775  0.26090335  0.96009918  1
  S  S50  1  0.96442225  0.26090335  0.46009918  1
  S  S51  1  0.46442225  0.73909665  0.03990082  1
