# generated using pymatgen
data_MgV5O12
_symmetry_space_group_name_H-M   'P 1'
_cell_length_a   5.03102823
_cell_length_b   5.10032439
_cell_length_c   8.97928690
_cell_angle_alpha   85.16639386
_cell_angle_beta   91.14118691
_cell_angle_gamma   67.86388295
_symmetry_Int_Tables_number   1
_chemical_formula_structural   MgV5O12
_chemical_formula_sum   'Mg1 V5 O12'
_cell_volume   212.33188557
_cell_formula_units_Z   1
loop_
 _symmetry_equiv_pos_site_id
 _symmetry_equiv_pos_as_xyz
  1  'x, y, z'
loop_
 _atom_site_type_symbol
 _atom_site_label
 _atom_site_symmetry_multiplicity
 _atom_site_fract_x
 _atom_site_fract_y
 _atom_site_fract_z
 _atom_site_occupancy
  Mg  Mg0  1  0.27061200  0.95423000  0.94079900  1
  V  V1  1  0.06275900  0.07332900  0.26734600  1
  V  V2  1  0.97612800  0.55654000  0.98790800  1
  V  V3  1  0.49148800  0.95321300  0.51777300  1
  V  V4  1  0.42798600  0.43814200  0.24096000  1
  V  V5  1  0.59279200  0.49438400  0.74153200  1
  O  O6  1  0.91065900  0.28464500  0.85828900  1
  O  O7  1  0.27825500  0.89756500  0.65052300  1
  O  O8  1  0.21923500  0.29225600  0.38445800  1
  O  O9  1  0.27793300  0.21247000  0.10976800  1
  O  O10  1  0.30397500  0.56066800  0.87168500  1
  O  O11  1  0.55174600  0.25705100  0.63418700  1
  O  O12  1  0.38799900  0.76315100  0.36733300  1
  O  O13  1  0.74146800  0.43679400  0.14733600  1
  O  O14  1  0.68058200  0.82280300  0.89715900  1
  O  O15  1  0.78818200  0.66047500  0.59724200  1
  O  O16  1  0.75372100  0.08002100  0.35972400  1
  O  O17  1  0.12556200  0.76584700  0.12597700  1
