# generated using pymatgen
data_MgFe(SbO3)4
_symmetry_space_group_name_H-M   'P 1'
_cell_length_a   5.52916654
_cell_length_b   10.85880317
_cell_length_c   9.50522523
_cell_angle_alpha   29.22107948
_cell_angle_beta   52.94252094
_cell_angle_gamma   58.37984411
_symmetry_Int_Tables_number   1
_chemical_formula_structural   MgFe(SbO3)4
_chemical_formula_sum   'Mg1 Fe1 Sb4 O12'
_cell_volume   222.33140953
_cell_formula_units_Z   1
loop_
 _symmetry_equiv_pos_site_id
 _symmetry_equiv_pos_as_xyz
  1  'x, y, z'
loop_
 _atom_site_type_symbol
 _atom_site_label
 _atom_site_symmetry_multiplicity
 _atom_site_fract_x
 _atom_site_fract_y
 _atom_site_fract_z
 _atom_site_occupancy
  Mg  Mg0  1  0.68336200  0.99872900  0.70669800  1
  Fe  Fe1  1  0.27681900  0.02629000  0.21884100  1
  Sb  Sb2  1  0.99205400  0.99458800  0.99305200  1
  Sb  Sb3  1  0.97927800  0.50337300  0.98239300  1
  Sb  Sb4  1  0.47500800  0.99889900  0.48703200  1
  Sb  Sb5  1  0.49741500  0.50194900  0.48174700  1
  O  O6  1  0.33505600  0.28887200  0.12430900  1
  O  O7  1  0.28032900  0.11193400  0.62271000  1
  O  O8  1  0.14675100  0.26684000  0.79689300  1
  O  O9  1  0.84458200  0.17612800  0.26274500  1
  O  O10  1  0.36247300  0.80494000  0.12112900  1
  O  O11  1  0.74975600  0.36731900  0.36581100  1
  O  O12  1  0.21833200  0.63210100  0.60550600  1
  O  O13  1  0.64348400  0.19919500  0.83753600  1
  O  O14  1  0.09885000  0.82271800  0.72523200  1
  O  O15  1  0.85320900  0.70717300  0.21076500  1
  O  O16  1  0.68960000  0.87956200  0.35988900  1
  O  O17  1  0.62342100  0.71344200  0.84451500  1
