# generated using pymatgen
data_Na4LaHfSi2PO12
_symmetry_space_group_name_H-M   'P 1'
_cell_length_a   9.53333388
_cell_length_b   9.53333351
_cell_length_c   22.53984095
_cell_angle_alpha   90.03540784
_cell_angle_beta   89.96459211
_cell_angle_gamma   119.74921751
_symmetry_Int_Tables_number   1
_chemical_formula_structural   Na4LaHfSi2PO12
_chemical_formula_sum   'Na24 La6 Hf6 Si12 P6 O72'
_cell_volume   1778.53699882
_cell_formula_units_Z   6
loop_
 _symmetry_equiv_pos_site_id
 _symmetry_equiv_pos_as_xyz
  1  'x, y, z'
loop_
 _atom_site_type_symbol
 _atom_site_label
 _atom_site_symmetry_multiplicity
 _atom_site_fract_x
 _atom_site_fract_y
 _atom_site_fract_z
 _atom_site_occupancy
  Na  Na0  1  0.64787340  0.00806496  0.24950292  1
  Na  Na1  1  0.36462886  0.36862462  0.24191218  1
  Na  Na2  1  0.98806351  0.62662010  0.24745198  1
  Na  Na3  1  0.63137538  0.63537114  0.74191218  1
  Na  Na4  1  0.99193504  0.35212660  0.74950292  1
  Na  Na5  1  0.37337990  0.01193649  0.74745198  1
  Na  Na6  1  0.31454040  0.34139796  0.58283592  1
  Na  Na7  1  0.03129586  0.70195762  0.57524518  1
  Na  Na8  1  0.65473051  0.95995310  0.58078498  1
  Na  Na9  1  0.29804238  0.96870414  0.07524518  1
  Na  Na10  1  0.65860204  0.68545960  0.08283592  1
  Na  Na11  1  0.04004690  0.34526949  0.08078498  1
  Na  Na12  1  0.98120640  0.67473196  0.91616992  1
  Na  Na13  1  0.69796186  0.03529162  0.90857918  1
  Na  Na14  1  0.32139651  0.29328710  0.91411898  1
  Na  Na15  1  0.96470838  0.30203814  0.40857918  1
  Na  Na16  1  0.32526804  0.01879360  0.41616992  1
  Na  Na17  1  0.70671290  0.67860349  0.41411898  1
  Na  Na18  1  0.98924947  0.98554023  0.49943457  1
  Na  Na19  1  0.01445977  0.01075053  0.99943457  1
  Na  Na20  1  0.65591647  0.31887323  0.83276757  1
  Na  Na21  1  0.68112677  0.34408353  0.33276757  1
  Na  Na22  1  0.32258247  0.65220723  0.16610157  1
  Na  Na23  1  0.34779277  0.67741753  0.66610157  1
  La  La24  1  0.99548510  0.99726032  0.34346501  1
  La  La25  1  0.00273968  0.00451490  0.84346501  1
  La  La26  1  0.66215210  0.33059332  0.67679801  1
  La  La27  1  0.66940668  0.33784790  0.17679801  1
  La  La28  1  0.32881810  0.66392732  0.01013201  1
  La  La29  1  0.33607268  0.67118190  0.51013201  1
  Hf  Hf30  1  0.99916143  0.00146573  0.64914427  1
  Hf  Hf31  1  0.99853427  0.00083857  0.14914427  1
  Hf  Hf32  1  0.66582843  0.33479873  0.98247727  1
  Hf  Hf33  1  0.66520127  0.33417157  0.48247727  1
  Hf  Hf34  1  0.33249443  0.66813273  0.31581127  1
  Hf  Hf35  1  0.33186727  0.66750557  0.81581127  1
  Si  Si36  1  0.68628613  0.70051046  0.25073012  1
  Si  Si37  1  0.01271367  0.31211295  0.25157808  1
  Si  Si38  1  0.29948954  0.31371387  0.75073012  1
  Si  Si39  1  0.68788705  0.98728633  0.75157808  1
  Si  Si40  1  0.35295313  0.03384346  0.58406312  1
  Si  Si41  1  0.67938067  0.64544595  0.58491108  1
  Si  Si42  1  0.96615654  0.64704687  0.08406312  1
  Si  Si43  1  0.35455405  0.32061933  0.08491108  1
  Si  Si44  1  0.01961913  0.36717746  0.91739712  1
  Si  Si45  1  0.34604667  0.97877995  0.91824508  1
  Si  Si46  1  0.63282254  0.98038087  0.41739712  1
  Si  Si47  1  0.02122005  0.65395333  0.41824508  1
  P  P48  1  0.29416873  0.98176193  0.24950321  1
  P  P49  1  0.01823807  0.70583127  0.74950321  1
  P  P50  1  0.96083573  0.31509493  0.58283621  1
  P  P51  1  0.68490507  0.03916427  0.08283621  1
  P  P52  1  0.62750173  0.64842893  0.91617021  1
  P  P53  1  0.35157107  0.37249827  0.41617021  1
  O  O54  1  0.23744151  0.01448449  0.30860466  1
  O  O55  1  0.78338031  0.76379551  0.31266283  1
  O  O56  1  0.99107192  0.22105921  0.31401103  1
  O  O57  1  0.23620449  0.21661969  0.81266283  1
  O  O58  1  0.98551551  0.76255849  0.80860466  1
  O  O59  1  0.77894079  0.00892808  0.81401103  1
  O  O60  1  0.80156260  0.97370840  0.69682426  1
  O  O61  1  0.17155365  0.19940752  0.69620326  1
  O  O62  1  0.02832578  0.82392593  0.69814254  1
  O  O63  1  0.80059248  0.82844634  0.19620326  1
  O  O64  1  0.02629160  0.19843740  0.19682426  1
  O  O65  1  0.17607407  0.97167422  0.19814254  1
  O  O66  1  0.90410851  0.34781749  0.64193766  1
  O  O67  1  0.45004731  0.09712851  0.64599583  1
  O  O68  1  0.65773892  0.55439221  0.64734403  1
  O  O69  1  0.90287149  0.54995269  0.14599583  1
  O  O70  1  0.65218251  0.09589149  0.14193766  1
  O  O71  1  0.44560779  0.34226108  0.14734403  1
  O  O72  1  0.46822960  0.30704140  0.03015726  1
  O  O73  1  0.83822065  0.53274052  0.02953626  1
  O  O74  1  0.69499278  0.15725893  0.03147554  1
  O  O75  1  0.46725948  0.16177934  0.52953626  1
  O  O76  1  0.69295860  0.53177040  0.53015726  1
  O  O77  1  0.84274107  0.30500722  0.53147554  1
  O  O78  1  0.57077451  0.68115149  0.97527166  1
  O  O79  1  0.11671331  0.43046251  0.97932983  1
  O  O80  1  0.32440492  0.88772621  0.98067803  1
  O  O81  1  0.56953749  0.88328669  0.47932983  1
  O  O82  1  0.31884851  0.42922549  0.47527166  1
  O  O83  1  0.11227379  0.67559508  0.48067803  1
  O  O84  1  0.13489560  0.64037540  0.36349126  1
  O  O85  1  0.50488665  0.86607452  0.36287026  1
  O  O86  1  0.36165878  0.49059293  0.36480954  1
  O  O87  1  0.13392548  0.49511334  0.86287026  1
  O  O88  1  0.35962460  0.86510440  0.86349126  1
  O  O89  1  0.50940707  0.63834122  0.86480954  1
  O  O90  1  0.99522514  0.81075324  0.41408889  1
  O  O91  1  0.81893583  0.01743456  0.41209618  1
  O  O92  1  0.21777627  0.19679315  0.40697140  1
  O  O93  1  0.98256544  0.18106417  0.91209618  1
  O  O94  1  0.18924676  0.00477486  0.91408889  1
  O  O95  1  0.80320685  0.78222373  0.90697140  1
  O  O96  1  0.95265450  0.14601469  0.58510018  1
  O  O97  1  0.18114021  0.03987860  0.58645111  1
  O  O98  1  0.85292070  0.82040211  0.58612131  1
  O  O99  1  0.96012140  0.81885979  0.08645111  1
  O  O100  1  0.85398531  0.04734550  0.08510018  1
  O  O101  1  0.17959789  0.14707930  0.08612131  1
  O  O102  1  0.66189214  0.14408624  0.74742189  1
  O  O103  1  0.48560283  0.35076756  0.74542918  1
  O  O104  1  0.88444327  0.53012615  0.74030440  1
  O  O105  1  0.64923244  0.51439717  0.24542918  1
  O  O106  1  0.85591376  0.33810786  0.24742189  1
  O  O107  1  0.46987385  0.11555673  0.24030440  1
  O  O108  1  0.61932150  0.47934769  0.91843318  1
  O  O109  1  0.84780721  0.37321160  0.91978411  1
  O  O110  1  0.51958770  0.15373511  0.91945431  1
  O  O111  1  0.62678840  0.15219279  0.41978411  1
  O  O112  1  0.52065231  0.38067850  0.41843318  1
  O  O113  1  0.84626489  0.48041230  0.41945431  1
  O  O114  1  0.32855814  0.47742024  0.08075589  1
  O  O115  1  0.15226883  0.68410156  0.07876318  1
  O  O116  1  0.55110927  0.86346015  0.07363840  1
  O  O117  1  0.31589844  0.84773117  0.57876318  1
  O  O118  1  0.52257976  0.67144186  0.58075589  1
  O  O119  1  0.13653985  0.44889073  0.57363840  1
  O  O120  1  0.28598750  0.81268169  0.25176718  1
  O  O121  1  0.51447321  0.70654560  0.25311811  1
  O  O122  1  0.18625370  0.48706911  0.25278831  1
  O  O123  1  0.29345440  0.48552679  0.75311811  1
  O  O124  1  0.18731831  0.71401250  0.75176718  1
  O  O125  1  0.51293089  0.81374630  0.75278831  1
