# generated using pymatgen
data_NaMgMn2O4
_symmetry_space_group_name_H-M   'P 1'
_cell_length_a   3.15217909
_cell_length_b   5.41785706
_cell_length_c   5.30698133
_cell_angle_alpha   107.30472515
_cell_angle_beta   92.42829121
_cell_angle_gamma   91.86769777
_symmetry_Int_Tables_number   1
_chemical_formula_structural   NaMgMn2O4
_chemical_formula_sum   'Na1 Mg1 Mn2 O4'
_cell_volume   86.35574651
_cell_formula_units_Z   1
loop_
 _symmetry_equiv_pos_site_id
 _symmetry_equiv_pos_as_xyz
  1  'x, y, z'
loop_
 _atom_site_type_symbol
 _atom_site_label
 _atom_site_symmetry_multiplicity
 _atom_site_fract_x
 _atom_site_fract_y
 _atom_site_fract_z
 _atom_site_occupancy
  Na  Na0  1  0.49996200  0.99999800  0.49999700  1
  Mg  Mg1  1  0.99997000  0.50001300  0.50002600  1
  Mn  Mn2  1  0.99996300  0.99997400  0.99997400  1
  Mn  Mn3  1  0.49997900  0.49999900  0.99992300  1
  O  O4  1  0.50057700  0.72202900  0.75869200  1
  O  O5  1  0.04404200  0.27868200  0.76897000  1
  O  O6  1  0.95606000  0.72137300  0.23110600  1
  O  O7  1  0.49944400  0.27794800  0.24132600  1
