# generated using pymatgen
data_Na4ZrInSi2PO12
_symmetry_space_group_name_H-M   'P 1'
_cell_length_a   9.26730636
_cell_length_b   9.26730602
_cell_length_c   22.62961654
_cell_angle_alpha   89.72963574
_cell_angle_beta   90.27036425
_cell_angle_gamma   119.65336695
_symmetry_Int_Tables_number   1
_chemical_formula_structural   Na4ZrInSi2PO12
_chemical_formula_sum   'Na24 Zr6 In6 Si12 P6 O72'
_cell_volume   1688.94208811
_cell_formula_units_Z   6
loop_
 _symmetry_equiv_pos_site_id
 _symmetry_equiv_pos_as_xyz
  1  'x, y, z'
loop_
 _atom_site_type_symbol
 _atom_site_label
 _atom_site_symmetry_multiplicity
 _atom_site_fract_x
 _atom_site_fract_y
 _atom_site_fract_z
 _atom_site_occupancy
  Na  Na0  1  0.64500332  0.00879116  0.25101366  1
  Na  Na1  1  0.37363022  0.36917409  0.24354459  1
  Na  Na2  1  0.98302486  0.62065013  0.24891487  1
  Na  Na3  1  0.63082591  0.62636978  0.74354459  1
  Na  Na4  1  0.99120884  0.35499668  0.75101366  1
  Na  Na5  1  0.37934987  0.01697514  0.74891487  1
  Na  Na6  1  0.31167032  0.34212416  0.58434666  1
  Na  Na7  1  0.04029722  0.70250709  0.57687759  1
  Na  Na8  1  0.64969186  0.95398313  0.58224787  1
  Na  Na9  1  0.29749291  0.95970278  0.07687759  1
  Na  Na10  1  0.65787584  0.68832968  0.08434666  1
  Na  Na11  1  0.04601687  0.35030814  0.08224787  1
  Na  Na12  1  0.97833632  0.67545816  0.91768066  1
  Na  Na13  1  0.70696322  0.03584109  0.91021159  1
  Na  Na14  1  0.31635786  0.28731713  0.91558187  1
  Na  Na15  1  0.96415891  0.29303678  0.41021159  1
  Na  Na16  1  0.32454184  0.02166368  0.41768066  1
  Na  Na17  1  0.71268287  0.68364214  0.41558187  1
  Na  Na18  1  0.99344050  0.98783461  0.49590927  1
  Na  Na19  1  0.01216539  0.00655950  0.99590927  1
  Na  Na20  1  0.66010750  0.32116761  0.82924227  1
  Na  Na21  1  0.67883239  0.33989250  0.32924227  1
  Na  Na22  1  0.32677350  0.65450161  0.16257627  1
  Na  Na23  1  0.34549839  0.67322650  0.66257627  1
  Zr  Zr24  1  0.99879904  0.00096263  0.64862072  1
  Zr  Zr25  1  0.99903737  0.00120096  0.14862072  1
  Zr  Zr26  1  0.66546604  0.33429563  0.98195372  1
  Zr  Zr27  1  0.66570437  0.33453396  0.48195372  1
  Zr  Zr28  1  0.33213204  0.66762963  0.31528772  1
  Zr  Zr29  1  0.33237037  0.66786796  0.81528772  1
  In  In30  1  0.99303136  0.99464254  0.34800885  1
  In  In31  1  0.00535746  0.00696864  0.84800885  1
  In  In32  1  0.65969836  0.32797554  0.68134185  1
  In  In33  1  0.67202446  0.34030164  0.18134185  1
  In  In34  1  0.32636436  0.66130954  0.01467585  1
  In  In35  1  0.33869046  0.67363564  0.51467585  1
  Si  Si36  1  0.69911657  0.69875151  0.25068916  1
  Si  Si37  1  0.99933962  0.29817424  0.25078314  1
  Si  Si38  1  0.30124849  0.30088343  0.75068916  1
  Si  Si39  1  0.70182576  0.00066038  0.75078314  1
  Si  Si40  1  0.36578357  0.03208451  0.58402216  1
  Si  Si41  1  0.66600662  0.63150724  0.58411614  1
  Si  Si42  1  0.96791549  0.63421643  0.08402216  1
  Si  Si43  1  0.36849276  0.33399338  0.08411614  1
  Si  Si44  1  0.03244957  0.36541851  0.91735616  1
  Si  Si45  1  0.33267262  0.96484124  0.91745014  1
  Si  Si46  1  0.63458149  0.96755043  0.41735616  1
  Si  Si47  1  0.03515876  0.66732738  0.41745014  1
  P  P48  1  0.29542453  -0.00023347  0.25101579  1
  P  P49  1  0.00023347  0.70457547  0.75101579  1
  P  P50  1  0.96209153  0.33309953  0.58434879  1
  P  P51  1  0.66690047  0.03790847  0.08434879  1
  P  P52  1  0.62875753  0.66643353  0.91768279  1
  P  P53  1  0.33356647  0.37124247  0.41768279  1
  O  O54  1  0.22186605  0.03136984  0.30725800  1
  O  O55  1  0.81372583  0.77292692  0.30985541  1
  O  O56  1  0.97265820  0.19036616  0.31094234  1
  O  O57  1  0.22707308  0.18627417  0.80985541  1
  O  O58  1  0.96863016  0.77813395  0.80725800  1
  O  O59  1  0.80963384  0.02734180  0.81094234  1
  O  O60  1  0.79386468  0.97079094  0.69350446  1
  O  O61  1  0.17854355  0.20594898  0.69339378  1
  O  O62  1  0.02472185  0.81843467  0.69648642  1
  O  O63  1  0.79405102  0.82145645  0.19339378  1
  O  O64  1  0.02920906  0.20613532  0.19350446  1
  O  O65  1  0.18156533  0.97527815  0.19648642  1
  O  O66  1  0.88853305  0.36470284  0.64059100  1
  O  O67  1  0.48039283  0.10625992  0.64318841  1
  O  O68  1  0.63932520  0.52369916  0.64427534  1
  O  O69  1  0.89374008  0.51960717  0.14318841  1
  O  O70  1  0.63529716  0.11146695  0.14059100  1
  O  O71  1  0.47630084  0.36067480  0.14427534  1
  O  O72  1  0.46053168  0.30412394  0.02683746  1
  O  O73  1  0.84521055  0.53928198  0.02672678  1
  O  O74  1  0.69138885  0.15176767  0.02981942  1
  O  O75  1  0.46071802  0.15478945  0.52672678  1
  O  O76  1  0.69587606  0.53946832  0.52683746  1
  O  O77  1  0.84823233  0.30861115  0.52981942  1
  O  O78  1  0.55519905  0.69803684  0.97392500  1
  O  O79  1  0.14705883  0.43959392  0.97652241  1
  O  O80  1  0.30599120  0.85703316  0.97760934  1
  O  O81  1  0.56040608  0.85294117  0.47652241  1
  O  O82  1  0.30196316  0.44480095  0.47392500  1
  O  O83  1  0.14296684  0.69400880  0.47760934  1
  O  O84  1  0.12719768  0.63745794  0.36017146  1
  O  O85  1  0.51187655  0.87261598  0.36006078  1
  O  O86  1  0.35805485  0.48510167  0.36315342  1
  O  O87  1  0.12738402  0.48812345  0.86006078  1
  O  O88  1  0.36254206  0.87280232  0.86017146  1
  O  O89  1  0.51489833  0.64194515  0.86315342  1
  O  O90  1  0.02280102  0.83779109  0.41313871  1
  O  O91  1  0.82342872  0.99541291  0.41410257  1
  O  O92  1  0.18415223  0.19404957  0.41076977  1
  O  O93  1  0.00458709  0.17657128  0.91410257  1
  O  O94  1  0.16220891  0.97719898  0.91313871  1
  O  O95  1  0.80595043  0.81584777  0.91076977  1
  O  O96  1  0.97066222  0.16917007  0.58800527  1
  O  O97  1  0.18400903  0.02512548  0.58723987  1
  O  O98  1  0.83534141  0.81645072  0.58680335  1
  O  O99  1  0.97487452  0.81599097  0.08723987  1
  O  O100  1  0.83082993  0.02933778  0.08800527  1
  O  O101  1  0.18354928  0.16465859  0.08680335  1
  O  O102  1  0.68946802  0.17112409  0.74647171  1
  O  O103  1  0.49009572  0.32874591  0.74743557  1
  O  O104  1  0.85081923  0.52738257  0.74410277  1
  O  O105  1  0.67125409  0.50990428  0.24743557  1
  O  O106  1  0.82887591  0.31053198  0.24647171  1
  O  O107  1  0.47261743  0.14918077  0.24410277  1
  O  O108  1  0.63732922  0.50250307  0.92133827  1
  O  O109  1  0.85067603  0.35845848  0.92057287  1
  O  O110  1  0.50200841  0.14978372  0.92013635  1
  O  O111  1  0.64154152  0.14932397  0.42057287  1
  O  O112  1  0.49749693  0.36267078  0.42133827  1
  O  O113  1  0.85021628  0.49799159  0.42013635  1
  O  O114  1  0.35613402  0.50445809  0.07980571  1
  O  O115  1  0.15676172  0.66207991  0.08076957  1
  O  O116  1  0.51748523  0.86071657  0.07743677  1
  O  O117  1  0.33792009  0.84323828  0.58076957  1
  O  O118  1  0.49554191  0.64386598  0.57980571  1
  O  O119  1  0.13928343  0.48251477  0.57743677  1
  O  O120  1  0.30399522  0.83583707  0.25467227  1
  O  O121  1  0.51734203  0.69179248  0.25390687  1
  O  O122  1  0.16867441  0.48311772  0.25347035  1
  O  O123  1  0.30820752  0.48265797  0.75390687  1
  O  O124  1  0.16416293  0.69600478  0.75467227  1
  O  O125  1  0.51688228  0.83132559  0.75347035  1
