# generated using pymatgen
data_NaTiAlSi(SO6)2
_symmetry_space_group_name_H-M   'P 1'
_cell_length_a   8.54184843
_cell_length_b   8.55199580
_cell_length_c   22.23136296
_cell_angle_alpha   89.97877373
_cell_angle_beta   90.00000000
_cell_angle_gamma   119.96075697
_symmetry_Int_Tables_number   1
_chemical_formula_structural   NaTiAlSi(SO6)2
_chemical_formula_sum   'Na6 Ti6 Al6 Si6 S12 O72'
_cell_volume   1406.97902126
_cell_formula_units_Z   6
loop_
 _symmetry_equiv_pos_site_id
 _symmetry_equiv_pos_as_xyz
  1  'x, y, z'
loop_
 _atom_site_type_symbol
 _atom_site_label
 _atom_site_symmetry_multiplicity
 _atom_site_fract_x
 _atom_site_fract_y
 _atom_site_fract_z
 _atom_site_occupancy
  Na  Na0  1  0.00661742  0.00350740  0.50159281  1
  Na  Na1  1  0.99688997  0.00350740  0.00159281  1
  Na  Na2  1  0.67366951  0.33357877  0.83470568  1
  Na  Na3  1  0.65991025  0.33357877  0.33470568  1
  Na  Na4  1  0.33611039  0.67397042  0.16787982  1
  Na  Na5  1  0.33785903  0.67397042  0.66787982  1
  Ti  Ti6  1  0.02406469  0.01468021  0.35431911  1
  Ti  Ti7  1  0.99061552  0.01468021  0.85431911  1
  Ti  Ti8  1  0.65750559  0.30852950  0.68755473  1
  Ti  Ti9  1  0.65102491  0.30852950  0.18755473  1
  Ti  Ti10  1  0.33093336  0.66328615  0.02061556  1
  Ti  Ti11  1  0.33235180  0.66328615  0.52061556  1
  Al  Al12  1  0.99782388  0.99410659  0.64791609  1
  Al  Al13  1  0.99628272  0.99410659  0.14791609  1
  Al  Al14  1  0.68205933  0.32650661  0.98050217  1
  Al  Al15  1  0.64444828  0.32650661  0.48050217  1
  Al  Al16  1  0.33911740  0.66921009  0.31363658  1
  Al  Al17  1  0.33009169  0.66921009  0.81363658  1
  Si  Si18  1  0.28196614  0.98543740  0.24692971  1
  Si  Si19  1  0.70347127  0.98543740  0.74692971  1
  Si  Si20  1  0.36563751  0.04147508  0.58135388  1
  Si  Si21  1  0.67583857  0.04147508  0.08135388  1
  Si  Si22  1  0.04406390  0.38831454  0.91429386  1
  Si  Si23  1  0.34424964  0.38831454  0.41429386  1
  S  S24  1  0.71193806  0.71350030  0.25000777  1
  S  S25  1  0.00443989  0.29066641  0.24939927  1
  S  S26  1  0.28622653  0.29066641  0.74939927  1
  S  S27  1  0.00156224  0.71350030  0.75000777  1
  S  S28  1  0.95049796  0.32931185  0.58197231  1
  S  S29  1  0.67107760  0.62140927  0.58307776  1
  S  S30  1  0.95033267  0.62140927  0.08307776  1
  S  S31  1  0.37881489  0.32931185  0.08197231  1
  S  S32  1  0.61904601  0.66018324  0.91650745  1
  S  S33  1  0.33547546  0.95730273  0.91613981  1
  S  S34  1  0.62182627  0.95730273  0.41613981  1
  S  S35  1  0.04113623  0.66018324  0.41650745  1
  O  O36  1  0.19769528  0.03163555  0.30759015  1
  O  O37  1  0.82184431  0.79454953  0.30447312  1
  O  O38  1  0.96545740  0.17643955  0.30405501  1
  O  O39  1  0.21098215  0.17643955  0.80405501  1
  O  O40  1  0.97270523  0.79454953  0.80447312  1
  O  O41  1  0.83394028  0.03163555  0.80759015  1
  O  O42  1  0.80796814  0.96759242  0.69012030  1
  O  O43  1  0.17621081  0.20765401  0.69548110  1
  O  O44  1  0.03391999  0.82509493  0.69544522  1
  O  O45  1  0.79117494  0.82509493  0.19544522  1
  O  O46  1  0.03144321  0.20765401  0.19548110  1
  O  O47  1  0.15962428  0.96759242  0.19012030  1
  O  O48  1  0.87487932  0.36612127  0.63716180  1
  O  O49  1  0.49984668  0.13394904  0.64150444  1
  O  O50  1  0.63812882  0.51154731  0.63756144  1
  O  O51  1  0.87341949  0.51154731  0.13756144  1
  O  O52  1  0.63410336  0.13394904  0.14150444  1
  O  O53  1  0.49124295  0.36612127  0.13716180  1
  O  O54  1  0.46303821  0.30533294  0.02783617  1
  O  O55  1  0.83987120  0.54226221  0.02847944  1
  O  O56  1  0.69923495  0.16819400  0.02557789  1
  O  O57  1  0.46896004  0.16819400  0.52557789  1
  O  O58  1  0.70239201  0.54226221  0.52847944  1
  O  O59  1  0.84229573  0.30533294  0.52783617  1
  O  O60  1  0.54410762  0.70040038  0.97110016  1
  O  O61  1  0.17202636  0.47433741  0.97485912  1
  O  O62  1  0.30510072  0.84444132  0.97066854  1
  O  O63  1  0.53933959  0.84444132  0.47066854  1
  O  O64  1  0.30231005  0.47433741  0.47485912  1
  O  O65  1  0.15629176  0.70040038  0.47110016  1
  O  O66  1  0.12413677  0.63483174  0.36225346  1
  O  O67  1  0.50812238  0.87777237  0.36225460  1
  O  O68  1  0.36283330  0.50823504  0.35665897  1
  O  O69  1  0.14540074  0.50823504  0.85665897  1
  O  O70  1  0.36964899  0.87777237  0.86225460  1
  O  O71  1  0.51069397  0.63483174  0.86225346  1
  O  O72  1  0.01857788  0.82202181  0.41018511  1
  O  O73  1  0.80000027  0.97022766  0.40963466  1
  O  O74  1  0.15643865  0.18518575  0.40936672  1
  O  O75  1  0.02874711  0.18518575  0.90936672  1
  O  O76  1  0.17022739  0.97022766  0.90963466  1
  O  O77  1  0.80344393  0.82202181  0.91018511  1
  O  O78  1  0.97181512  0.16986181  0.58988650  1
  O  O79  1  0.17119882  0.02133330  0.59519252  1
  O  O80  1  0.83017665  0.80401597  0.58946851  1
  O  O81  1  0.97383932  0.80401597  0.08946851  1
  O  O82  1  0.85013448  0.02133330  0.09519252  1
  O  O83  1  0.19804669  0.16986181  0.08988650  1
  O  O84  1  0.69411125  0.17538157  0.74286754  1
  O  O85  1  0.47062044  0.31320150  0.74344807  1
  O  O86  1  0.83825102  0.53349267  0.74256823  1
  O  O87  1  0.69524265  0.53349267  0.24256823  1
  O  O88  1  0.84258206  0.31320150  0.24344807  1
  O  O89  1  0.48127132  0.17538157  0.24286754  1
  O  O90  1  0.63548540  0.49862898  0.92582955  1
  O  O91  1  0.84531150  0.36151226  0.92339713  1
  O  O92  1  0.49370114  0.13973242  0.92418076  1
  O  O93  1  0.64603228  0.13973242  0.42418076  1
  O  O94  1  0.51620176  0.36151226  0.42339713  1
  O  O95  1  0.86314457  0.49862898  0.42582955  1
  O  O96  1  0.36059964  0.49402933  0.07717037  1
  O  O97  1  0.13391371  0.64079728  0.07646574  1
  O  O98  1  0.49039121  0.84390290  0.07424638  1
  O  O99  1  0.35351069  0.84390290  0.57424638  1
  O  O100  1  0.50688256  0.64079728  0.57646574  1
  O  O101  1  0.13342870  0.49402933  0.57717037  1
  O  O102  1  0.31089137  0.81726964  0.26113805  1
  O  O103  1  0.52970996  0.69349234  0.25649453  1
  O  O104  1  0.16486324  0.47054520  0.25697432  1
  O  O105  1  0.30568096  0.47054520  0.75697432  1
  O  O106  1  0.16378138  0.69349234  0.75649453  1
  O  O107  1  0.50637727  0.81726964  0.76113805  1
