# generated using pymatgen
data_MgMn2(PO4)2
_symmetry_space_group_name_H-M   'P 1'
_cell_length_a   5.05088058
_cell_length_b   5.06573754
_cell_length_c   6.46452000
_cell_angle_alpha   90.00000000
_cell_angle_beta   90.00000000
_cell_angle_gamma   67.24101271
_symmetry_Int_Tables_number   1
_chemical_formula_structural   MgMn2(PO4)2
_chemical_formula_sum   'Mg1 Mn2 P2 O8'
_cell_volume   152.52571582
_cell_formula_units_Z   1
loop_
 _symmetry_equiv_pos_site_id
 _symmetry_equiv_pos_as_xyz
  1  'x, y, z'
loop_
 _atom_site_type_symbol
 _atom_site_label
 _atom_site_symmetry_multiplicity
 _atom_site_fract_x
 _atom_site_fract_y
 _atom_site_fract_z
 _atom_site_occupancy
  Mg  Mg0  1  0.67719400  0.66877500  0.25000000  1
  Mn  Mn1  1  0.00877700  0.00759300  0.51633100  1
  Mn  Mn2  1  0.00877700  0.00759300  0.98366900  1
  P  P3  1  0.35018000  0.34988900  0.25000100  1
  P  P4  1  0.64424200  0.64326700  0.75000100  1
  O  O5  1  0.69311400  0.24898100  0.25000100  1
  O  O6  1  0.74844200  0.74773800  0.54863800  1
  O  O7  1  0.24937100  0.25117200  0.05548500  1
  O  O8  1  0.24937100  0.25117200  0.44451500  1
  O  O9  1  0.76819700  0.31152100  0.75000100  1
  O  O10  1  0.31142100  0.76729000  0.75000100  1
  O  O11  1  0.74844200  0.74773800  0.95136200  1
  O  O12  1  0.25080100  0.69171700  0.25000100  1
