# generated using pymatgen
data_Na2Zr3ZnSi2(SO6)4
_symmetry_space_group_name_H-M   'P 1'
_cell_length_a   8.97410399
_cell_length_b   8.95344691
_cell_length_c   23.52367759
_cell_angle_alpha   89.82547579
_cell_angle_beta   89.93383785
_cell_angle_gamma   120.16084332
_symmetry_Int_Tables_number   1
_chemical_formula_structural   Na2Zr3ZnSi2(SO6)4
_chemical_formula_sum   'Na6 Zr9 Zn3 Si6 S12 O72'
_cell_volume   1634.20648125
_cell_formula_units_Z   3
loop_
 _symmetry_equiv_pos_site_id
 _symmetry_equiv_pos_as_xyz
  1  'x, y, z'
loop_
 _atom_site_type_symbol
 _atom_site_label
 _atom_site_symmetry_multiplicity
 _atom_site_fract_x
 _atom_site_fract_y
 _atom_site_fract_z
 _atom_site_occupancy
  Na  Na0  1  0.98419481  0.98789708  0.50907322  1
  Na  Na1  1  0.02079472  0.01608139  0.00167781  1
  Na  Na2  1  0.67118030  0.31786445  0.83546020  1
  Na  Na3  1  0.66482195  0.32054949  0.33500987  1
  Na  Na4  1  0.33494173  0.65995831  0.16634032  1
  Na  Na5  1  0.35204458  0.67404606  0.67067465  1
  Zr  Zr6  1  0.98984002  0.99907538  0.35299395  1
  Zr  Zr7  1  0.00025391  0.01589572  0.85445103  1
  Zr  Zr8  1  0.66428149  0.33417106  0.68841884  1
  Zr  Zr9  1  0.65667186  0.33482568  0.18367992  1
  Zr  Zr10  1  0.65174961  0.31864835  0.97830186  1
  Zr  Zr11  1  0.67020898  0.33630527  0.48235034  1
  Zr  Zr12  1  0.32029006  0.65345859  0.01823292  1
  Zr  Zr13  1  0.35623267  0.67573645  0.52118902  1
  Zr  Zr14  1  0.33420040  0.68040628  0.81512618  1
  Zn  Zn15  1  0.96276277  0.97074742  0.64903938  1
  Zn  Zn16  1  0.01721993  0.01480263  0.14601473  1
  Zn  Zn17  1  0.34266141  0.68199241  0.31828871  1
  Si  Si18  1  0.70783962  0.99725476  0.74788199  1
  Si  Si19  1  0.67854119  0.63222528  0.58410177  1
  Si  Si20  1  0.36427148  0.33095614  0.08304074  1
  Si  Si21  1  0.03862676  0.37760552  0.91553224  1
  Si  Si22  1  0.32536946  0.95416392  0.91795789  1
  Si  Si23  1  0.62056294  0.96095827  0.41329125  1
  S  S24  1  0.28802894  0.99452916  0.24952345  1
  S  S25  1  0.70963152  0.71174179  0.24788191  1
  S  S26  1  0.00509228  0.29710450  0.24987080  1
  S  S27  1  0.28709752  0.28925238  0.74737499  1
  S  S28  1  0.00160618  0.71266208  0.74855022  1
  S  S29  1  0.96003081  0.33327569  0.58318702  1
  S  S30  1  0.37094925  0.04305024  0.58379001  1
  S  S31  1  0.95562508  0.62735910  0.08435669  1
  S  S32  1  0.66956813  0.04119434  0.08474457  1
  S  S33  1  0.62389601  0.66689099  0.91677111  1
  S  S34  1  0.33316758  0.37650185  0.41486269  1
  S  S35  1  0.04509453  0.66650910  0.41493082  1
  O  O36  1  0.20940436  0.02363339  0.30143023  1
  O  O37  1  0.81696184  0.79394218  0.30056346  1
  O  O38  1  0.97845930  0.18432288  0.30189267  1
  O  O39  1  0.21177853  0.18424340  0.80016191  1
  O  O40  1  0.97660894  0.78874360  0.80059152  1
  O  O41  1  0.82367551  0.02444712  0.80536685  1
  O  O42  1  0.78941747  0.97136773  0.69173461  1
  O  O43  1  0.18859453  0.20891908  0.69638995  1
  O  O44  1  0.03201363  0.81471603  0.69706051  1
  O  O45  1  0.79479055  0.81644446  0.19760943  1
  O  O46  1  0.02564832  0.21377821  0.19918951  1
  O  O47  1  0.18588282  0.97632066  0.19858848  1
  O  O48  1  0.87545714  0.35719968  0.63385396  1
  O  O49  1  0.48328070  0.12005570  0.63438618  1
  O  O50  1  0.64398159  0.50442721  0.63845037  1
  O  O51  1  0.87279819  0.51444428  0.13616165  1
  O  O52  1  0.64741959  0.13074785  0.13579676  1
  O  O53  1  0.49167613  0.35652000  0.13942145  1
  O  O54  1  0.47103147  0.31297718  0.02952528  1
  O  O55  1  0.85408687  0.54146722  0.03312478  1
  O  O56  1  0.69480969  0.14894469  0.03326578  1
  O  O57  1  0.46077880  0.14659802  0.53177120  1
  O  O58  1  0.68525136  0.52661560  0.52753597  1
  O  O59  1  0.85030290  0.30989495  0.53156606  1
  O  O60  1  0.54496688  0.69293298  0.96826767  1
  O  O61  1  0.15892663  0.46107332  0.97239172  1
  O  O62  1  0.31101552  0.84192493  0.97448804  1
  O  O63  1  0.53597825  0.84130151  0.47116256  1
  O  O64  1  0.30297797  0.45282975  0.46700528  1
  O  O65  1  0.14690205  0.69042567  0.46711283  1
  O  O66  1  0.11713359  0.63578787  0.36364150  1
  O  O67  1  0.50952220  0.87696358  0.35781780  1
  O  O68  1  0.35836336  0.47846584  0.36360533  1
  O  O69  1  0.13477355  0.49041393  0.85937414  1
  O  O70  1  0.36421726  0.87202158  0.86167628  1
  O  O71  1  0.51860908  0.63939930  0.86538317  1
  O  O72  1  0.02661181  0.82381381  0.40799937  1
  O  O73  1  0.81520729  0.97951660  0.40718764  1
  O  O74  1  0.17882745  0.19866458  0.40894519  1
  O  O75  1  0.01852069  0.18582651  0.91190359  1
  O  O76  1  0.15493015  0.96938059  0.90876396  1
  O  O77  1  0.79713415  0.81990103  0.91025885  1
  O  O78  1  0.98308807  0.18449711  0.58708203  1
  O  O79  1  0.20475586  0.03077893  0.58952213  1
  O  O80  1  0.84800732  0.81887540  0.58405093  1
  O  O81  1  0.96945207  0.79532007  0.09194430  1
  O  O82  1  0.82069016  0.02211026  0.09181620  1
  O  O83  1  0.17939097  0.15884698  0.08869100  1
  O  O84  1  0.68522355  0.17036826  0.74222333  1
  O  O85  1  0.46480082  0.30816986  0.74375000  1
  O  O86  1  0.84383796  0.53486458  0.74313341  1
  O  O87  1  0.69896467  0.53673697  0.24465014  1
  O  O88  1  0.84486174  0.30991715  0.24574310  1
  O  O89  1  0.46686419  0.15513390  0.24424047  1
  O  O90  1  0.64321437  0.51280952  0.92344537  1
  O  O91  1  0.85253742  0.36276282  0.92533451  1
  O  O92  1  0.49798288  0.14692831  0.92227326  1
  O  O93  1  0.65073297  0.15485090  0.42457335  1
  O  O94  1  0.48638085  0.35502850  0.42347412  1
  O  O95  1  0.86670244  0.51449732  0.42266469  1
  O  O96  1  0.36045586  0.51195870  0.08033105  1
  O  O97  1  0.12965602  0.64337011  0.08075461  1
  O  O98  1  0.50939566  0.87236091  0.07998943  1
  O  O99  1  0.35188380  0.86701097  0.57631237  1
  O  O100  1  0.49652880  0.64021847  0.57737248  1
  O  O101  1  0.12824527  0.49599084  0.57481158  1
  O  O102  1  0.30814485  0.84161318  0.25551387  1
  O  O103  1  0.53443700  0.68419232  0.25534981  1
  O  O104  1  0.15815170  0.46893145  0.25895662  1
  O  O105  1  0.31144784  0.46437705  0.75533544  1
  O  O106  1  0.15189642  0.68419862  0.75479282  1
  O  O107  1  0.51418989  0.82616894  0.75547099  1
