# generated using pymatgen
data_Na5CoO4
_symmetry_space_group_name_H-M   'P 1'
_cell_length_a   5.90659547
_cell_length_b   10.22110955
_cell_length_c   17.72073386
_cell_angle_alpha   90.00000000
_cell_angle_beta   90.00000000
_cell_angle_gamma   90.00000000
_symmetry_Int_Tables_number   1
_chemical_formula_structural   Na5CoO4
_chemical_formula_sum   'Na40 Co8 O32'
_cell_volume   1069.83542454
_cell_formula_units_Z   8
loop_
 _symmetry_equiv_pos_site_id
 _symmetry_equiv_pos_as_xyz
  1  'x, y, z'
loop_
 _atom_site_type_symbol
 _atom_site_label
 _atom_site_symmetry_multiplicity
 _atom_site_fract_x
 _atom_site_fract_y
 _atom_site_fract_z
 _atom_site_occupancy
  Na  Na0  1  0.10338164  0.42183148  0.75240038  1
  Na  Na1  1  0.42187374  0.29926586  0.64024069  1
  Na  Na2  1  0.57812726  0.20073314  0.14024069  1
  Na  Na3  1  0.07812726  0.79926686  0.35975931  1
  Na  Na4  1  0.07812726  0.29926586  0.14024069  1
  Na  Na5  1  0.57812726  0.70073314  0.35975931  1
  Na  Na6  1  0.42187374  0.79926686  0.85975931  1
  Na  Na7  1  0.92187374  0.20073314  0.64024069  1
  Na  Na8  1  0.89657532  0.82711100  0.17123499  1
  Na  Na9  1  0.39657532  0.17288800  0.32876501  1
  Na  Na10  1  0.60342568  0.32711200  0.82876501  1
  Na  Na11  1  0.10342468  0.67288900  0.67123499  1
  Na  Na12  1  0.10342468  0.17288800  0.82876501  1
  Na  Na13  1  0.60342568  0.82711100  0.67123499  1
  Na  Na14  1  0.39657532  0.67288900  0.17123499  1
  Na  Na15  1  0.89657532  0.32711200  0.32876501  1
  Na  Na16  1  0.91695033  0.16044173  0.00137924  1
  Na  Na17  1  0.41695033  0.83955827  0.49862076  1
  Na  Na18  1  0.58305067  0.66044073  0.99862076  1
  Na  Na19  1  0.08305067  0.33955927  0.50137924  1
  Na  Na20  1  0.08305067  0.83955827  0.99862076  1
  Na  Na21  1  0.58305067  0.16044173  0.50137924  1
  Na  Na22  1  0.41695033  0.33955927  0.00137924  1
  Na  Na23  1  0.91695033  0.66044073  0.49862076  1
  Na  Na24  1  0.92433055  0.93848138  0.56529209  1
  Na  Na25  1  0.39661936  0.92183148  0.24759962  1
  Na  Na26  1  0.60338164  0.57816752  0.74759962  1
  Na  Na27  1  0.92187374  0.70073314  0.85975931  1
  Na  Na28  1  0.10338164  0.92183148  0.74759962  1
  Na  Na29  1  0.60338164  0.07816852  0.75240038  1
  Na  Na30  1  0.39661936  0.42183148  0.25240038  1
  Na  Na31  1  0.89661936  0.57816752  0.24759962  1
  Na  Na32  1  0.92433055  0.43848038  0.93470791  1
  Na  Na33  1  0.42433055  0.56151862  0.56529209  1
  Na  Na34  1  0.57567045  0.93848138  0.06529209  1
  Na  Na35  1  0.07566945  0.06151962  0.43470791  1
  Na  Na36  1  0.07566945  0.56151862  0.06529209  1
  Na  Na37  1  0.57567045  0.43848038  0.43470791  1
  Na  Na38  1  0.42433055  0.06151962  0.93470791  1
  Na  Na39  1  0.89661936  0.07816852  0.25240038  1
  Co  Co40  1  0.82658686  0.45941032  0.62294897  1
  Co  Co41  1  0.32658686  0.54059068  0.87705103  1
  Co  Co42  1  0.67341414  0.95940932  0.37705103  1
  Co  Co43  1  0.17341314  0.04059068  0.12294897  1
  Co  Co44  1  0.17341314  0.54059068  0.37705103  1
  Co  Co45  1  0.67341414  0.45941032  0.12294897  1
  Co  Co46  1  0.32658686  0.04059068  0.62294897  1
  Co  Co47  1  0.82658686  0.95940932  0.87705103  1
  O  O48  1  0.85916086  0.04427072  0.12097181  1
  O  O49  1  0.35916186  0.95572928  0.37902819  1
  O  O50  1  0.64083814  0.54427072  0.87902819  1
  O  O51  1  0.14083814  0.45572828  0.62097181  1
  O  O52  1  0.14083814  0.95572928  0.87902819  1
  O  O53  1  0.64083814  0.04427072  0.62097181  1
  O  O54  1  0.35916186  0.45572828  0.12097181  1
  O  O55  1  0.85916086  0.54427072  0.37902819  1
  O  O56  1  0.81103074  0.36549379  0.04649711  1
  O  O57  1  0.31103074  0.63450621  0.45350289  1
  O  O58  1  0.68896826  0.86549479  0.95350289  1
  O  O59  1  0.18896826  0.13450521  0.54649711  1
  O  O60  1  0.18896826  0.63450621  0.95350289  1
  O  O61  1  0.68896826  0.36549379  0.54649711  1
  O  O62  1  0.31103074  0.13450521  0.04649711  1
  O  O63  1  0.81103074  0.86549479  0.45350289  1
  O  O64  1  0.73477077  0.37023785  0.71166999  1
  O  O65  1  0.23476977  0.62976215  0.78833001  1
  O  O66  1  0.76522823  0.87023785  0.28833001  1
  O  O67  1  0.26522823  0.12976115  0.21166999  1
  O  O68  1  0.26522823  0.62976215  0.28833001  1
  O  O69  1  0.76522823  0.37023785  0.21166999  1
  O  O70  1  0.23476977  0.12976115  0.71166999  1
  O  O71  1  0.73477077  0.87023785  0.78833001  1
  O  O72  1  0.74281649  0.13761984  0.87570266  1
  O  O73  1  0.24281549  0.86238016  0.62429734  1
  O  O74  1  0.75718451  0.63761984  0.12429734  1
  O  O75  1  0.25718451  0.36238016  0.37570266  1
  O  O76  1  0.25718451  0.86238016  0.12429734  1
  O  O77  1  0.75718451  0.13761984  0.37570266  1
  O  O78  1  0.24281549  0.36238016  0.87570266  1
  O  O79  1  0.74281649  0.63761984  0.62429734  1
