# generated using pymatgen
data_Na3ScNbSi2PO12
_symmetry_space_group_name_H-M   'P 1'
_cell_length_a   9.10148336
_cell_length_b   9.10148305
_cell_length_c   22.66119637
_cell_angle_alpha   89.87401999
_cell_angle_beta   90.12598001
_cell_angle_gamma   119.90071690
_symmetry_Int_Tables_number   1
_chemical_formula_structural   Na3ScNbSi2PO12
_chemical_formula_sum   'Na18 Sc6 Nb6 Si12 P6 O72'
_cell_volume   1627.30900059
_cell_formula_units_Z   6
loop_
 _symmetry_equiv_pos_site_id
 _symmetry_equiv_pos_as_xyz
  1  'x, y, z'
loop_
 _atom_site_type_symbol
 _atom_site_label
 _atom_site_symmetry_multiplicity
 _atom_site_fract_x
 _atom_site_fract_y
 _atom_site_fract_z
 _atom_site_occupancy
  Na  Na0  1  0.99643833  0.99471772  0.49578185  1
  Na  Na1  1  0.00528228  0.00356167  0.99578185  1
  Na  Na2  1  0.66310533  0.32805072  0.82911485  1
  Na  Na3  1  0.67194928  0.33689467  0.32911485  1
  Na  Na4  1  0.32977133  0.66138472  0.16244885  1
  Na  Na5  1  0.33861528  0.67022867  0.66244885  1
  Na  Na6  1  0.64496942  0.01085300  0.24969021  1
  Na  Na7  1  0.98826402  0.62593472  0.24853677  1
  Na  Na8  1  0.98914700  0.35503058  0.74969021  1
  Na  Na9  1  0.37406528  0.01173598  0.74853677  1
  Na  Na10  1  0.31163642  0.34418600  0.58302321  1
  Na  Na11  1  0.65493102  0.95926772  0.58186977  1
  Na  Na12  1  0.65581400  0.68836358  0.08302321  1
  Na  Na13  1  0.04073228  0.34506898  0.08186977  1
  Na  Na14  1  0.97830242  0.67752000  0.91635721  1
  Na  Na15  1  0.32159702  0.29260172  0.91520377  1
  Na  Na16  1  0.32248000  0.02169758  0.41635721  1
  Na  Na17  1  0.70739828  0.67840298  0.41520377  1
  Sc  Sc18  1  0.99283470  0.00163949  0.35219798  1
  Sc  Sc19  1  0.99836051  0.00716530  0.85219798  1
  Sc  Sc20  1  0.65950170  0.33497249  0.68553098  1
  Sc  Sc21  1  0.66502751  0.34049830  0.18553098  1
  Sc  Sc22  1  0.32616770  0.66830649  0.01886498  1
  Sc  Sc23  1  0.33169351  0.67383230  0.51886498  1
  Nb  Nb24  1  0.99710602  0.99393214  0.64732130  1
  Nb  Nb25  1  0.00606786  0.00289398  0.14732130  1
  Nb  Nb26  1  0.66377302  0.32726514  0.98065430  1
  Nb  Nb27  1  0.67273486  0.33622698  0.48065430  1
  Nb  Nb28  1  0.33043902  0.66059914  0.31398830  1
  Nb  Nb29  1  0.33940086  0.66956098  0.81398830  1
  Si  Si30  1  0.70579970  0.70672247  0.25149123  1
  Si  Si31  1  0.00149472  0.29321123  0.25024704  1
  Si  Si32  1  0.29327753  0.29420030  0.75149123  1
  Si  Si33  1  0.70678877  0.99850528  0.75024704  1
  Si  Si34  1  0.37246670  0.04005547  0.58482423  1
  Si  Si35  1  0.66816172  0.62654423  0.58358004  1
  Si  Si36  1  0.95994453  0.62753330  0.08482423  1
  Si  Si37  1  0.37345577  0.33183828  0.08358004  1
  Si  Si38  1  0.03913270  0.37338947  0.91815823  1
  Si  Si39  1  0.33482772  0.95987823  0.91691404  1
  Si  Si40  1  0.62661053  0.96086730  0.41815823  1
  Si  Si41  1  0.04012177  0.66517228  0.41691404  1
  P  P42  1  0.29179631  0.99938464  0.25243819  1
  P  P43  1  0.00061536  0.70820369  0.75243819  1
  P  P44  1  0.95846331  0.33271764  0.58577119  1
  P  P45  1  0.66728236  0.04153669  0.08577119  1
  P  P46  1  0.62512931  0.66605164  0.91910519  1
  P  P47  1  0.33394836  0.37487069  0.41910519  1
  O  O48  1  0.21328691  0.02108730  0.30822792  1
  O  O49  1  0.82164252  0.79174614  0.30902289  1
  O  O50  1  0.97125581  0.17099100  0.30490771  1
  O  O51  1  0.20825386  0.17835748  0.80902289  1
  O  O52  1  0.97891270  0.78671309  0.80822792  1
  O  O53  1  0.82900900  0.02874419  0.80490771  1
  O  O54  1  0.80015457  0.97066374  0.69021995  1
  O  O55  1  0.16432415  0.19664184  0.69278830  1
  O  O56  1  0.02723938  0.82949702  0.69761950  1
  O  O57  1  0.80335816  0.83567585  0.19278830  1
  O  O58  1  0.02933626  0.19984543  0.19021995  1
  O  O59  1  0.17050298  0.97276062  0.19761950  1
  O  O60  1  0.87995391  0.35442030  0.64156092  1
  O  O61  1  0.48830952  0.12507914  0.64235589  1
  O  O62  1  0.63792281  0.50432400  0.63824071  1
  O  O63  1  0.87492086  0.51169048  0.14235589  1
  O  O64  1  0.64557970  0.12004609  0.14156092  1
  O  O65  1  0.49567600  0.36207719  0.13824071  1
  O  O66  1  0.46682157  0.30399674  0.02355295  1
  O  O67  1  0.83099115  0.52997484  0.02612130  1
  O  O68  1  0.69390638  0.16283002  0.03095250  1
  O  O69  1  0.47002516  0.16900885  0.52612130  1
  O  O70  1  0.69600326  0.53317843  0.52355295  1
  O  O71  1  0.83716998  0.30609362  0.53095250  1
  O  O72  1  0.54661991  0.68775430  0.97489492  1
  O  O73  1  0.15497552  0.45841314  0.97568989  1
  O  O74  1  0.30458881  0.83765800  0.97157471  1
  O  O75  1  0.54158686  0.84502448  0.47568989  1
  O  O76  1  0.31224570  0.45338009  0.47489492  1
  O  O77  1  0.16234200  0.69541119  0.47157471  1
  O  O78  1  0.13348757  0.63733074  0.35688695  1
  O  O79  1  0.49765715  0.86330884  0.35945530  1
  O  O80  1  0.36057238  0.49616402  0.36428650  1
  O  O81  1  0.13669116  0.50234285  0.85945530  1
  O  O82  1  0.36266926  0.86651243  0.85688695  1
  O  O83  1  0.50383598  0.63942762  0.86428650  1
  O  O84  1  0.01945378  0.83156468  0.41122222  1
  O  O85  1  0.81062797  0.97737800  0.41176841  1
  O  O86  1  0.18872420  0.19426945  0.41048968  1
  O  O87  1  0.02262200  0.18937203  0.91176841  1
  O  O88  1  0.16843532  0.98054622  0.91122222  1
  O  O89  1  0.80573055  0.81127580  0.91048968  1
  O  O90  1  0.96399597  0.16148132  0.58721890  1
  O  O91  1  0.18787821  0.03677126  0.58977141  1
  O  O92  1  0.83968836  0.81848788  0.58903854  1
  O  O93  1  0.96322874  0.81212179  0.08977141  1
  O  O94  1  0.83851868  0.03600403  0.08721890  1
  O  O95  1  0.18151212  0.16031164  0.08903854  1
  O  O96  1  0.68612078  0.16489768  0.74455522  1
  O  O97  1  0.47729497  0.31071100  0.74510141  1
  O  O98  1  0.85539120  0.52760245  0.74382268  1
  O  O99  1  0.68928900  0.52270503  0.24510141  1
  O  O100  1  0.83510232  0.31387922  0.24455522  1
  O  O101  1  0.47239755  0.14460880  0.24382268  1
  O  O102  1  0.63066297  0.49481432  0.92055190  1
  O  O103  1  0.85454521  0.37010426  0.92310441  1
  O  O104  1  0.50635536  0.15182088  0.92237154  1
  O  O105  1  0.62989574  0.14545479  0.42310441  1
  O  O106  1  0.50518568  0.36933703  0.42055190  1
  O  O107  1  0.84817912  0.49364464  0.42237154  1
  O  O108  1  0.35278678  0.49823168  0.07788922  1
  O  O109  1  0.14396097  0.64404500  0.07843541  1
  O  O110  1  0.52205720  0.86093645  0.07715668  1
  O  O111  1  0.35595500  0.85603903  0.57843541  1
  O  O112  1  0.50176832  0.64721322  0.57788922  1
  O  O113  1  0.13906355  0.47794280  0.57715668  1
  O  O114  1  0.29732897  0.82814832  0.25388590  1
  O  O115  1  0.52121121  0.70343826  0.25643841  1
  O  O116  1  0.17302136  0.48515488  0.25570554  1
  O  O117  1  0.29656174  0.47878879  0.75643841  1
  O  O118  1  0.17185168  0.70267103  0.75388590  1
  O  O119  1  0.51484512  0.82697864  0.75570554  1
