# generated using pymatgen
data_Na3Ca2La2PS5O24
_symmetry_space_group_name_H-M   'P 1'
_cell_length_a   9.38825924
_cell_length_b   9.40232369
_cell_length_c   24.73588269
_cell_angle_alpha   90.13894653
_cell_angle_beta   89.89703168
_cell_angle_gamma   119.93536870
_symmetry_Int_Tables_number   1
_chemical_formula_structural   Na3Ca2La2PS5O24
_chemical_formula_sum   'Na9 Ca6 La6 P3 S15 O72'
_cell_volume   1892.16678005
_cell_formula_units_Z   3
loop_
 _symmetry_equiv_pos_site_id
 _symmetry_equiv_pos_as_xyz
  1  'x, y, z'
loop_
 _atom_site_type_symbol
 _atom_site_label
 _atom_site_symmetry_multiplicity
 _atom_site_fract_x
 _atom_site_fract_y
 _atom_site_fract_z
 _atom_site_occupancy
  Na  Na0  1  0.36965560  0.99223385  0.75001776  1
  Na  Na1  1  0.65786195  0.96591101  0.58886488  1
  Na  Na2  1  0.67446719  0.69846509  0.08211064  1
  Na  Na3  1  0.03063102  0.00129555  0.50767613  1
  Na  Na4  1  0.01688532  0.00123335  0.00555277  1
  Na  Na5  1  0.68170730  0.33443853  0.83330450  1
  Na  Na6  1  0.66690843  0.33352593  0.33342663  1
  Na  Na7  1  0.30295965  0.66462654  0.16629443  1
  Na  Na8  1  0.33476135  0.66317426  0.66697448  1
  Ca  Ca9  1  0.00292079  0.00015893  0.65118028  1
  Ca  Ca10  1  0.00880429  0.00254030  0.15167871  1
  Ca  Ca11  1  0.31792287  0.66832169  0.01670668  1
  Ca  Ca12  1  0.32610614  0.66641757  0.51571904  1
  Ca  Ca13  1  0.33331914  0.66732967  0.31612450  1
  Ca  Ca14  1  0.34108870  0.66469639  0.81686975  1
  La  La15  1  0.00005464  0.99916759  0.35124276  1
  La  La16  1  0.98276764  0.99958115  0.85035639  1
  La  La17  1  0.67041290  0.33428949  0.68145672  1
  La  La18  1  0.67555143  0.33546003  0.18304400  1
  La  La19  1  0.67370994  0.33503528  0.98344657  1
  La  La20  1  0.65602799  0.32946533  0.48314079  1
  P  P21  1  0.68954579  0.99488043  0.74580684  1
  P  P22  1  0.36241056  0.02497446  0.58514479  1
  P  P23  1  0.96759472  0.64148834  0.08380216  1
  S  S24  1  0.30020415  0.99540695  0.24968465  1
  S  S25  1  0.69555690  0.70247197  0.24782067  1
  S  S26  1  0.00716563  0.30264423  0.24978000  1
  S  S27  1  0.29606247  0.29802880  0.74966515  1
  S  S28  1  0.00815621  0.70565240  0.75052718  1
  S  S29  1  0.97148500  0.32972731  0.58207658  1
  S  S30  1  0.66711460  0.64474204  0.58281581  1
  S  S31  1  0.66716874  0.02201431  0.08326660  1
  S  S32  1  0.36503831  0.33748148  0.08287127  1
  S  S33  1  0.62557094  0.66446015  0.91967238  1
  S  S34  1  0.04101749  0.37468232  0.91588901  1
  S  S35  1  0.33318105  0.96370684  0.91398736  1
  S  S36  1  0.62673575  0.95971249  0.41781222  1
  S  S37  1  0.33261770  0.37499476  0.41598960  1
  S  S38  1  0.03699756  0.66420748  0.41614531  1
  O  O39  1  0.21802390  0.01196544  0.29913543  1
  O  O40  1  0.79927586  0.78925889  0.29586973  1
  O  O41  1  0.99293008  0.20551640  0.29912345  1
  O  O42  1  0.21546731  0.19605332  0.79853148  1
  O  O43  1  0.99006349  0.78530418  0.80008541  1
  O  O44  1  0.79636002  0.00961345  0.79598595  1
  O  O45  1  0.77158614  0.98646489  0.69300920  1
  O  O46  1  0.20093721  0.21648627  0.70079343  1
  O  O47  1  0.02314294  0.80445965  0.70235132  1
  O  O48  1  0.77597135  0.79279927  0.19764101  1
  O  O49  1  0.01506065  0.21699407  0.20097074  1
  O  O50  1  0.20464660  0.98461612  0.20108706  1
  O  O51  1  0.89396974  0.35322506  0.63156564  1
  O  O52  1  0.46553009  0.11034644  0.63767834  1
  O  O53  1  0.65248605  0.54788424  0.63198281  1
  O  O54  1  0.87768046  0.53409756  0.13429700  1
  O  O55  1  0.64601683  0.10283042  0.13179543  1
  O  O56  1  0.46760634  0.35489246  0.13134128  1
  O  O57  1  0.44450937  0.31350666  0.03407359  1
  O  O58  1  0.85611400  0.54933506  0.03382218  1
  O  O59  1  0.68308337  0.12100505  0.03454421  1
  O  O60  1  0.45932310  0.13859333  0.53629062  1
  O  O61  1  0.68594205  0.56148014  0.53452021  1
  O  O62  1  0.86660019  0.31328472  0.53449666  1
  O  O63  1  0.54650000  0.67318735  0.97035153  1
  O  O64  1  0.13048499  0.45631247  0.96557893  1
  O  O65  1  0.32370524  0.86706827  0.96206700  1
  O  O66  1  0.55092819  0.87302174  0.46866399  1
  O  O67  1  0.32419117  0.45608803  0.46563177  1
  O  O68  1  0.12893061  0.67623684  0.46556162  1
  O  O69  1  0.11975668  0.65390385  0.36701206  1
  O  O70  1  0.52911210  0.87293086  0.36995807  1
  O  O71  1  0.34112371  0.46664301  0.36696856  1
  O  O72  1  0.12358470  0.46556234  0.86682504  1
  O  O73  1  0.34397862  0.88560312  0.86329931  1
  O  O74  1  0.53149718  0.65674185  0.87140130  1
  O  O75  1  0.01800125  0.81414680  0.41405285  1
  O  O76  1  0.79504767  0.97887042  0.41409717  1
  O  O77  1  0.18416366  0.20551197  0.41429967  1
  O  O78  1  0.02150938  0.20615627  0.91495139  1
  O  O79  1  0.18395122  0.98296297  0.91312817  1
  O  O80  1  0.79425823  0.81366910  0.91730799  1
  O  O81  1  0.97217882  0.17216697  0.58645041  1
  O  O82  1  0.19009677  0.00441913  0.58725696  1
  O  O83  1  0.81268715  0.81302479  0.58629086  1
  O  O84  1  0.96815751  0.80682337  0.08719931  1
  O  O85  1  0.81665479  0.00595670  0.08790814  1
  O  O86  1  0.19797555  0.19528285  0.08809509  1
  O  O87  1  0.66681906  0.15140322  0.74729167  1
  O  O88  1  0.46182250  0.30833757  0.74663819  1
  O  O89  1  0.86172806  0.53794966  0.74705268  1
  O  O90  1  0.67857526  0.53474208  0.24671302  1
  O  O91  1  0.85526171  0.31834549  0.24862180  1
  O  O92  1  0.46743988  0.14552641  0.24728055  1
  O  O93  1  0.64503411  0.51514111  0.91970289  1
  O  O94  1  0.87104842  0.35405123  0.91696453  1
  O  O95  1  0.48373299  0.13135446  0.91742224  1
  O  O96  1  0.64659392  0.12891329  0.41878550  1
  O  O97  1  0.48260153  0.35531212  0.41695831  1
  O  O98  1  0.86814649  0.51569540  0.41836896  1
  O  O99  1  0.36364013  0.49461535  0.07796415  1
  O  O100  1  0.13955473  0.66195396  0.08018500  1
  O  O101  1  0.52280934  0.85329468  0.07866720  1
  O  O102  1  0.36423154  0.86134718  0.58023235  1
  O  O103  1  0.51812204  0.66158984  0.57869492  1
  O  O104  1  0.13810027  0.47099370  0.57702767  1
  O  O105  1  0.31620227  0.84689566  0.25321400  1
  O  O106  1  0.53174316  0.68674683  0.25302446  1
  O  O107  1  0.15434847  0.46793599  0.25282112  1
  O  O108  1  0.31721476  0.46346311  0.75457064  1
  O  O109  1  0.16145252  0.69588187  0.75442125  1
  O  O110  1  0.51346066  0.84422732  0.75074756  1
