# generated using pymatgen
data_Na2Ga8SiS11O48
_symmetry_space_group_name_H-M   'P 1'
_cell_length_a   16.94826212
_cell_length_b   8.47227012
_cell_length_c   22.09245333
_cell_angle_alpha   89.97839949
_cell_angle_beta   89.96418615
_cell_angle_gamma   120.05095952
_symmetry_Int_Tables_number   1
_chemical_formula_structural   Na2Ga8SiS11O48
_chemical_formula_sum   'Na6 Ga24 Si3 S33 O144'
_cell_volume   2745.84539757
_cell_formula_units_Z   3
loop_
 _symmetry_equiv_pos_site_id
 _symmetry_equiv_pos_as_xyz
  1  'x, y, z'
loop_
 _atom_site_type_symbol
 _atom_site_label
 _atom_site_symmetry_multiplicity
 _atom_site_fract_x
 _atom_site_fract_y
 _atom_site_fract_z
 _atom_site_occupancy
  Na  Na0  1  0.00118619  0.99231280  0.49961084  1
  Na  Na1  1  0.50113437  0.00956085  0.99607070  1
  Na  Na2  1  0.33725957  0.33350704  0.83506818  1
  Na  Na3  1  0.83785604  0.34440923  0.82996229  1
  Na  Na4  1  0.33165063  0.33100732  0.33412274  1
  Na  Na5  1  0.83953144  0.34284582  0.33650662  1
  Ga  Ga6  1  0.00195404  0.99109092  0.35403493  1
  Ga  Ga7  1  0.49915537  0.99985502  0.35481696  1
  Ga  Ga8  1  0.99785795  0.98700930  0.85089340  1
  Ga  Ga9  1  0.50110979  0.01376723  0.85312125  1
  Ga  Ga10  1  0.99977630  0.99368689  0.65265960  1
  Ga  Ga11  1  0.50118129  -0.00023439  0.64641044  1
  Ga  Ga12  1  0.99983428  0.00161909  0.14508877  1
  Ga  Ga13  1  0.50003237  0.99917899  0.14833797  1
  Ga  Ga14  1  0.33242766  0.33442120  0.68530938  1
  Ga  Ga15  1  0.83874475  0.34385504  0.68781056  1
  Ga  Ga16  1  0.33153814  0.33315942  0.18269015  1
  Ga  Ga17  1  0.83518195  0.33210315  0.18341613  1
  Ga  Ga18  1  0.33787045  0.33400274  0.97773878  1
  Ga  Ga19  1  0.83408037  0.33471665  0.98074491  1
  Ga  Ga20  1  0.33293063  0.33280610  0.48415814  1
  Ga  Ga21  1  0.84046741  0.34401371  0.48178839  1
  Ga  Ga22  1  0.16508292  0.66428486  0.01808629  1
  Ga  Ga23  1  0.66391658  0.65648762  0.01640388  1
  Ga  Ga24  1  0.16145861  0.66970017  0.52057931  1
  Ga  Ga25  1  0.66682445  0.66849832  0.52274375  1
  Ga  Ga26  1  0.16042057  0.66351656  0.31573923  1
  Ga  Ga27  1  0.66728555  0.66572858  0.31370528  1
  Ga  Ga28  1  0.16145893  0.66841263  0.80926407  1
  Ga  Ga29  1  0.66243320  0.65721336  0.81382136  1
  Si  Si30  1  0.99960860  0.70868101  0.74984916  1
  Si  Si31  1  0.52198938  0.37677467  0.91648604  1
  Si  Si32  1  0.02061933  0.66530063  0.41705537  1
  S  S33  1  0.14667416  0.00137096  0.24844266  1
  S  S34  1  0.64557195  0.99967306  0.25065691  1
  S  S35  1  0.35325229  0.70899638  0.25077600  1
  S  S36  1  0.85336215  0.70767771  0.24901570  1
  S  S37  1  0.00051289  0.28791629  0.24995363  1
  S  S38  1  0.50011758  0.29176911  0.25011882  1
  S  S39  1  0.14711798  0.29357629  0.75039775  1
  S  S40  1  0.64474027  0.28952878  0.74867415  1
  S  S41  1  0.50057723  0.71272670  0.75011352  1
  S  S42  1  0.35508445  0.00011424  0.74870735  1
  S  S43  1  0.85118517  0.99531538  0.75136214  1
  S  S44  1  0.47898672  0.33273051  0.58355342  1
  S  S45  1  0.98011405  0.32877978  0.58431405  1
  S  S46  1  0.18795970  0.04237024  0.58352593  1
  S  S47  1  0.68961474  0.04720826  0.58324784  1
  S  S48  1  0.33272546  0.62662673  0.58298034  1
  S  S49  1  0.83202165  0.62588223  0.58297094  1
  S  S50  1  0.47971715  0.62618933  0.08416524  1
  S  S51  1  0.97979658  0.62598760  0.08322035  1
  S  S52  1  0.33227573  0.03884769  0.08374666  1
  S  S53  1  0.83209167  0.03907727  0.08278606  1
  S  S54  1  0.18814767  0.33398818  0.08206720  1
  S  S55  1  0.68841107  0.33477971  0.08417258  1
  S  S56  1  0.30884627  0.66554453  0.91578111  1
  S  S57  1  0.81398181  0.67000287  0.91752991  1
  S  S58  1  0.02090744  0.37072303  0.91673840  1
  S  S59  1  0.16509940  0.95598274  0.91742339  1
  S  S60  1  0.66835934  0.95880090  0.91671538  1
  S  S61  1  0.31346516  0.95865730  0.41679683  1
  S  S62  1  0.80970522  0.95508299  0.41670458  1
  S  S63  1  0.16892207  0.37892862  0.41691041  1
  S  S64  1  0.66472147  0.37497045  0.41657234  1
  S  S65  1  0.52151464  0.66652269  0.41658429  1
  O  O66  1  0.10892134  0.04230320  0.30291770  1
  O  O67  1  0.60568531  0.03653421  0.30500458  1
  O  O68  1  0.41274963  0.78780003  0.30483995  1
  O  O69  1  0.90994761  0.78580358  0.30373943  1
  O  O70  1  0.48173144  0.17615471  0.30462694  1
  O  O71  1  0.98211396  0.17255306  0.30476210  1
  O  O72  1  0.10823774  0.17995336  0.80522768  1
  O  O73  1  0.60621163  0.17394718  0.80354157  1
  O  O74  1  0.48199755  0.79135415  0.80483274  1
  O  O75  1  0.97670628  0.78714598  0.81043733  1
  O  O76  1  0.41279424  0.03971817  0.80342712  1
  O  O77  1  0.91034439  0.04005845  0.80558215  1
  O  O78  1  0.39550312  0.97047342  0.69350621  1
  O  O79  1  0.89035687  0.96560898  0.69541099  1
  O  O80  1  0.09198382  0.21987390  0.69468459  1
  O  O81  1  0.58677448  0.21024095  0.69423174  1
  O  O82  1  0.01986661  0.83011050  0.68873028  1
  O  O83  1  0.51410039  0.82170128  0.69453011  1
  O  O84  1  0.39343644  0.82143950  0.19570446  1
  O  O85  1  0.89317597  0.81949224  0.19428871  1
  O  O86  1  0.01396256  0.20554422  0.19469033  1
  O  O87  1  0.51670053  0.21227374  0.19524118  1
  O  O88  1  0.08988353  0.96927267  0.19414096  1
  O  O89  1  0.58937726  0.96633087  0.19566769  1
  O  O90  1  0.43896390  0.36998215  0.63751415  1
  O  O91  1  0.93876382  0.36223207  0.63745276  1
  O  O92  1  0.24498145  0.12647281  0.63772700  1
  O  O93  1  0.74672871  0.12633216  0.63745211  1
  O  O94  1  0.31490074  0.51012864  0.63730941  1
  O  O95  1  0.81433940  0.51168075  0.63673253  1
  O  O96  1  0.43945186  0.51336341  0.13979859  1
  O  O97  1  0.94070690  0.51093441  0.13847671  1
  O  O98  1  0.31662202  0.11757923  0.13966308  1
  O  O99  1  0.81434070  0.11787056  0.13836390  1
  O  O100  1  0.24454960  0.37110591  0.13815003  1
  O  O101  1  0.74371994  0.36177660  0.13958722  1
  O  O102  1  0.22983146  0.29836941  0.02909556  1
  O  O103  1  0.72690119  0.29544156  0.02972687  1
  O  O104  1  0.42022581  0.54827766  0.03076615  1
  O  O105  1  0.92115541  0.54625568  0.02944570  1
  O  O106  1  0.35085778  0.15516490  0.03018318  1
  O  O107  1  0.85157550  0.15893814  0.02933615  1
  O  O108  1  0.22802905  0.15654886  0.52763796  1
  O  O109  1  0.72942159  0.16044803  0.52776807  1
  O  O110  1  0.35256496  0.54790551  0.52819174  1
  O  O111  1  0.84916850  0.54744279  0.52762112  1
  O  O112  1  0.42216826  0.29687827  0.52812969  1
  O  O113  1  0.92265306  0.28935766  0.52880997  1
  O  O114  1  0.27193128  0.70242175  0.97219528  1
  O  O115  1  0.77470859  0.70088501  0.97325551  1
  O  O116  1  0.07559651  0.44897465  0.97299337  1
  O  O117  1  0.58093430  0.45363925  0.97840802  1
  O  O118  1  0.14944237  0.84401284  0.97321991  1
  O  O119  1  0.65366145  0.85307072  0.97319635  1
  O  O120  1  0.27614719  0.84796160  0.47117862  1
  O  O121  1  0.77049181  0.83894219  0.47085883  1
  O  O122  1  0.15469779  0.45676626  0.47202759  1
  O  O123  1  0.64799280  0.45623907  0.47045259  1
  O  O124  1  0.08318789  0.70855976  0.47667670  1
  O  O125  1  0.57779480  0.69936169  0.47075577  1
  O  O126  1  0.05979994  0.62315814  0.35551461  1
  O  O127  1  0.55988783  0.62977292  0.36112510  1
  O  O128  1  0.25870718  0.88367165  0.36067080  1
  O  O129  1  0.75425459  0.87587762  0.36086674  1
  O  O130  1  0.18894360  0.49006852  0.36095226  1
  O  O131  1  0.68322481  0.48918189  0.36087894  1
  O  O132  1  0.06080800  0.48871936  0.86375436  1
  O  O133  1  0.56281469  0.50097054  0.85640671  1
  O  O134  1  0.18641312  0.87906153  0.86428812  1
  O  O135  1  0.68807648  0.88636563  0.86204720  1
  O  O136  1  0.25296115  0.63592691  0.86175718  1
  O  O137  1  0.75761537  0.63202060  0.86271045  1
  O  O138  1  0.01057120  0.84726287  0.41134098  1
  O  O139  1  0.51286405  0.83013809  0.40859127  1
  O  O140  1  0.40506189  0.97875521  0.40882875  1
  O  O141  1  0.90142017  0.97786882  0.40978469  1
  O  O142  1  0.08498507  0.19926838  0.40972651  1
  O  O143  1  0.58170176  0.19504321  0.40833757  1
  O  O144  1  0.01118076  0.18983082  0.90894413  1
  O  O145  1  0.51073689  0.17389463  0.91167426  1
  O  O146  1  0.08441100  0.97551726  0.91149728  1
  O  O147  1  0.58457274  0.97090684  0.91039273  1
  O  O148  1  0.40170171  0.82520601  0.91007616  1
  O  O149  1  0.90364968  0.83476193  0.91260855  1
  O  O150  1  0.48768129  0.16964972  0.59099316  1
  O  O151  1  0.98834296  0.16195513  0.59112481  1
  O  O152  1  0.09802089  0.03090607  0.58723534  1
  O  O153  1  0.59796927  0.02648359  0.59032484  1
  O  O154  1  0.41538006  0.80655848  0.59090314  1
  O  O155  1  0.91337114  0.81070606  0.58755359  1
  O  O156  1  0.48680995  0.80951269  0.09107647  1
  O  O157  1  0.98774713  0.80618714  0.09160021  1
  O  O158  1  0.41615088  0.02334682  0.09072712  1
  O  O159  1  0.91501811  0.02526074  0.09113287  1
  O  O160  1  0.09786309  0.16956038  0.09060601  1
  O  O161  1  0.59627329  0.16671669  0.09051117  1
  O  O162  1  0.34654774  0.16748761  0.74232342  1
  O  O163  1  0.83924733  0.15582913  0.74375983  1
  O  O164  1  0.23876064  0.30626781  0.74361919  1
  O  O165  1  0.73364327  0.29940501  0.74183669  1
  O  O166  1  0.41689774  0.52785774  0.74375098  1
  O  O167  1  0.90801590  0.50736483  0.74490949  1
  O  O168  1  0.34562583  0.52603876  0.24376909  1
  O  O169  1  0.84399690  0.52296375  0.24258652  1
  O  O170  1  0.41714244  0.30914927  0.24337503  1
  O  O171  1  0.91686261  0.30582636  0.24389496  1
  O  O172  1  0.23897037  0.17025554  0.24231501  1
  O  O173  1  0.73721596  0.16544132  0.24390360  1
  O  O174  1  0.31423362  0.49729496  0.92316350  1
  O  O175  1  0.82153257  0.50077298  0.92418390  1
  O  O176  1  0.42118786  0.35748191  0.92174702  1
  O  O177  1  0.92924085  0.35598059  0.92408624  1
  O  O178  1  0.24717624  0.13947412  0.92467438  1
  O  O179  1  0.75048843  0.14540368  0.92342619  1
  O  O180  1  0.32329250  0.14444898  0.42288176  1
  O  O181  1  0.81459187  0.13290328  0.42321417  1
  O  O182  1  0.25107677  0.35589093  0.42273109  1
  O  O183  1  0.74501345  0.35262986  0.42286985  1
  O  O184  1  0.42940413  0.50091965  0.42291692  1
  O  O185  1  0.91939941  0.48356114  0.42207989  1
  O  O186  1  0.17917998  0.49755440  0.07482165  1
  O  O187  1  0.68188604  0.49968563  0.07922101  1
  O  O188  1  0.07001647  0.64235456  0.07567300  1
  O  O189  1  0.57046929  0.64846619  0.07830868  1
  O  O190  1  0.25109063  0.85755065  0.07670896  1
  O  O191  1  0.75057917  0.85926140  0.07464514  1
  O  O192  1  0.18363089  0.86594210  0.57842690  1
  O  O193  1  0.67947723  0.86386626  0.57527001  1
  O  O194  1  0.25109025  0.64175730  0.57387555  1
  O  O195  1  0.74906095  0.64056280  0.57552974  1
  O  O196  1  0.07073293  0.49039391  0.57749153  1
  O  O197  1  0.56903446  0.49768619  0.57545884  1
  O  O198  1  0.15797741  0.84151945  0.25504855  1
  O  O199  1  0.65384439  0.83574742  0.25819051  1
  O  O200  1  0.26328660  0.69161631  0.25893192  1
  O  O201  1  0.76245342  0.68936910  0.25655140  1
  O  O202  1  0.08341438  0.46736101  0.25490442  1
  O  O203  1  0.58188191  0.47259230  0.25758999  1
  O  O204  1  0.16031053  0.47564693  0.75812083  1
  O  O205  1  0.65537340  0.47138580  0.75502109  1
  O  O206  1  0.08895808  0.69028386  0.75669779  1
  O  O207  1  0.58304219  0.69933043  0.75507516  1
  O  O208  1  0.26704233  0.83727355  0.75667240  1
  O  O209  1  0.76173163  0.82873089  0.75976858  1
