# generated using pymatgen
data_Na4La3Ta(PO4)6
_symmetry_space_group_name_H-M   'P 1'
_cell_length_a   9.40313461
_cell_length_b   9.39738261
_cell_length_c   23.91934873
_cell_angle_alpha   89.95689590
_cell_angle_beta   90.14604745
_cell_angle_gamma   120.01791162
_symmetry_Int_Tables_number   1
_chemical_formula_structural   Na4La3Ta(PO4)6
_chemical_formula_sum   'Na12 La9 Ta3 P18 O72'
_cell_volume   1830.12031101
_cell_formula_units_Z   3
loop_
 _symmetry_equiv_pos_site_id
 _symmetry_equiv_pos_as_xyz
  1  'x, y, z'
loop_
 _atom_site_type_symbol
 _atom_site_label
 _atom_site_symmetry_multiplicity
 _atom_site_fract_x
 _atom_site_fract_y
 _atom_site_fract_z
 _atom_site_occupancy
  Na  Na0  1  0.63851360  0.99809205  0.25283008  1
  Na  Na1  1  0.36281830  0.36250962  0.25206863  1
  Na  Na2  1  0.99845332  0.63917335  0.25126326  1
  Na  Na3  1  0.29943064  0.33686848  0.58357926  1
  Na  Na4  1  0.03730773  0.69665983  0.58398546  1
  Na  Na5  1  0.66079346  0.70399547  0.07637564  1
  Na  Na6  1  0.98843883  0.00045230  0.49852561  1
  Na  Na7  1  0.01193617  0.01289191  0.99719653  1
  Na  Na8  1  0.66668683  0.33452148  0.83083596  1
  Na  Na9  1  0.66648946  0.33326593  0.33835035  1
  Na  Na10  1  0.32029095  0.66807356  0.16339144  1
  Na  Na11  1  0.34897096  0.68284368  0.67361441  1
  La  La12  1  0.00092322  0.99835553  0.35518883  1
  La  La13  1  0.99970592  0.99758914  0.85232808  1
  La  La14  1  0.98708147  0.00011191  0.65745710  1
  La  La15  1  0.01205737  0.01156858  0.14189588  1
  La  La16  1  0.66672110  0.32766166  0.69079624  1
  La  La17  1  0.66612555  0.32653796  0.17771419  1
  La  La18  1  0.32193321  0.66536947  0.01329478  1
  La  La19  1  0.34394808  0.67703917  0.51375513  1
  La  La20  1  0.33463124  0.66733037  0.33087580  1
  Ta  Ta21  1  0.66700562  0.33027987  0.97747333  1
  Ta  Ta22  1  0.66644512  0.32943595  0.48386217  1
  Ta  Ta23  1  0.33082622  0.66460583  0.82107407  1
  P  P24  1  0.30175600  0.99472257  0.25066348  1
  P  P25  1  0.69437348  0.69919924  0.24714854  1
  P  P26  1  0.00604232  0.30701186  0.25092645  1
  P  P27  1  0.30129163  0.32171919  0.75316358  1
  P  P28  1  0.02017948  0.69806619  0.75271473  1
  P  P29  1  0.67622389  0.97850808  0.75659946  1
  P  P30  1  0.95446417  0.32919662  0.57955592  1
  P  P31  1  0.37111205  0.04855674  0.58032490  1
  P  P32  1  0.67297679  0.61861784  0.58052532  1
  P  P33  1  0.94870247  0.62346624  0.07770572  1
  P  P34  1  0.67271261  0.04228259  0.07623462  1
  P  P35  1  0.38048671  0.33173860  0.07608158  1
  P  P36  1  0.61718395  0.64533129  0.91929968  1
  P  P37  1  0.02518634  0.37922116  0.91634520  1
  P  P38  1  0.35536945  0.97408651  0.91626420  1
  P  P39  1  0.64703079  0.99582742  0.41747971  1
  P  P40  1  0.34894855  0.35549798  0.42172295  1
  P  P41  1  0.00618724  0.64977157  0.42159550  1
  O  O42  1  0.21774313  0.01739861  0.30194855  1
  O  O43  1  0.80643171  0.78962282  0.29720829  1
  O  O44  1  0.98475032  0.20020241  0.30211382  1
  O  O45  1  0.20513064  0.20097337  0.79928012  1
  O  O46  1  0.99483873  0.79309199  0.79911166  1
  O  O47  1  0.79325832  0.00547539  0.80411382  1
  O  O48  1  0.74094759  0.94639993  0.70061479  1
  O  O49  1  0.20819432  0.26215025  0.69587264  1
  O  O50  1  0.05005679  0.79034370  0.69552837  1
  O  O51  1  0.77325577  0.79651831  0.19234500  1
  O  O52  1  0.02571427  0.22369638  0.19774711  1
  O  O53  1  0.19902514  0.97637779  0.19749283  1
  O  O54  1  0.87672134  0.34897759  0.63245087  1
  O  O55  1  0.46569900  0.12657639  0.63363988  1
  O  O56  1  0.65595804  0.52339488  0.63382718  1
  O  O57  1  0.87843448  0.54696307  0.13538485  1
  O  O58  1  0.66519368  0.11158836  0.13391402  1
  O  O59  1  0.45576235  0.33722462  0.13416099  1
  O  O60  1  0.49640070  0.32771969  0.02814383  1
  O  O61  1  0.83441705  0.50338264  0.02903838  1
  O  O62  1  0.67035005  0.15845608  0.02789661  1
  O  O63  1  0.48360660  0.15627117  0.52922208  1
  O  O64  1  0.67708241  0.51068429  0.52956692  1
  O  O65  1  0.84189721  0.32239022  0.52838964  1
  O  O66  1  0.55473251  0.67176308  0.97471116  1
  O  O67  1  0.11892150  0.44358763  0.97046956  1
  O  O68  1  0.32885531  0.88177377  0.97046676  1
  O  O69  1  0.54917108  0.87555528  0.46411702  1
  O  O70  1  0.32851805  0.44663486  0.47146152  1
  O  O71  1  0.11784925  0.67023314  0.47136654  1
  O  O72  1  0.07686864  0.62349983  0.36606546  1
  O  O73  1  0.55509139  0.93300186  0.36067376  1
  O  O74  1  0.37777841  0.45370394  0.36620343  1
  O  O75  1  0.12918359  0.50358175  0.86744430  1
  O  O76  1  0.37184628  0.86874828  0.86724310  1
  O  O77  1  0.49149134  0.62702914  0.87084766  1
  O  O78  1  0.97664148  0.79567914  0.41916540  1
  O  O79  1  0.82200614  0.02525159  0.41766549  1
  O  O80  1  0.20246327  0.18082756  0.41892168  1
  O  O81  1  0.99065171  0.20526721  0.90596249  1
  O  O82  1  0.21660642  0.01034057  0.90661571  1
  O  O83  1  0.79091028  0.78469212  0.90809610  1
  O  O84  1  0.97364110  0.17473882  0.57929010  1
  O  O85  1  0.20671796  0.05144898  0.57804842  1
  O  O86  1  0.83709919  0.78495257  0.57919931  1
  O  O87  1  0.94076476  0.78399974  0.07166123  1
  O  O88  1  0.83188170  0.03264520  0.07089891  1
  O  O89  1  0.21126490  0.17618348  0.07025172  1
  O  O90  1  0.64162992  0.12127909  0.75267028  1
  O  O91  1  0.47877166  0.35597291  0.75062246  1
  O  O92  1  0.87732525  0.52007298  0.75073495  1
  O  O93  1  0.67127455  0.52237413  0.24646992  1
  O  O94  1  0.85201760  0.32871717  0.24813511  1
  O  O95  1  0.47781828  0.14831388  0.24815897  1
  O  O96  1  0.62614113  0.47897033  0.92536862  1
  O  O97  1  0.85249931  0.37298155  0.92394579  1
  O  O98  1  0.52203863  0.14748528  0.92350546  1
  O  O99  1  0.65521381  0.16434319  0.42971296  1
  O  O100  1  0.50898879  0.34361435  0.43139438  1
  O  O101  1  0.83456980  0.48914110  0.43085915  1
  O  O102  1  0.37849993  0.49421902  0.07332371  1
  O  O103  1  0.12238824  0.64987013  0.07619680  1
  O  O104  1  0.52380418  0.86673232  0.07450351  1
  O  O105  1  0.33280739  0.86854017  0.57619170  1
  O  O106  1  0.51731183  0.63339478  0.57511591  1
  O  O107  1  0.12709643  0.48549640  0.57404727  1
  O  O108  1  0.31685654  0.83672070  0.25505853  1
  O  O109  1  0.52122897  0.68338421  0.25386769  1
  O  O110  1  0.16289561  0.48132004  0.25542295  1
  O  O111  1  0.31108316  0.49266742  0.76903586  1
  O  O112  1  0.18233716  0.68992809  0.76815607  1
  O  O113  1  0.50581469  0.81598552  0.76955805  1
