# generated using pymatgen
data_Dy4Mg(CuO4)2
_symmetry_space_group_name_H-M   'P 1'
_cell_length_a   6.10299570
_cell_length_b   6.70987813
_cell_length_c   6.50561474
_cell_angle_alpha   121.77975535
_cell_angle_beta   106.33651472
_cell_angle_gamma   92.15248077
_symmetry_Int_Tables_number   1
_chemical_formula_structural   Dy4Mg(CuO4)2
_chemical_formula_sum   'Dy4 Mg1 Cu2 O8'
_cell_volume   211.61827743
_cell_formula_units_Z   1
loop_
 _symmetry_equiv_pos_site_id
 _symmetry_equiv_pos_as_xyz
  1  'x, y, z'
loop_
 _atom_site_type_symbol
 _atom_site_label
 _atom_site_symmetry_multiplicity
 _atom_site_fract_x
 _atom_site_fract_y
 _atom_site_fract_z
 _atom_site_occupancy
  Dy  Dy0  1  0.98283210  0.22957297  0.48641996  1
  Dy  Dy1  1  0.00072546  0.71876460  0.47843999  1
  Dy  Dy2  1  0.53699811  0.63685089  0.81980172  1
  Dy  Dy3  1  0.41582910  0.33345407  0.12899414  1
  Mg  Mg4  1  0.11609078  0.79174651  0.03414466  1
  Cu  Cu5  1  0.80793800  0.19187156  -0.02221254  1
  Cu  Cu6  1  0.51732763  0.98304056  0.51050414  1
  O  O7  1  0.20370744  0.94444056  0.40800581  1
  O  O8  1  0.23960004  0.48732375  0.90353197  1
  O  O9  1  0.24082502  0.45017726  0.42281383  1
  O  O10  1  0.29580250  0.92767147  0.90484118  1
  O  O11  1  0.83887109  -0.05015935  0.05169735  1
  O  O12  1  0.74432043  0.49185605  0.53103434  1
  O  O13  1  0.72722279  0.49782222  0.06881869  1
  O  O14  1  0.83190951  0.02556687  0.60649776  1
