# generated using pymatgen
data_Mg2Ta4P6(SO12)3
_symmetry_space_group_name_H-M   'P 1'
_cell_length_a   8.74508554
_cell_length_b   8.74508526
_cell_length_c   22.52231150
_cell_angle_alpha   90.00000000
_cell_angle_beta   90.00000000
_cell_angle_gamma   120.00000107
_symmetry_Int_Tables_number   1
_chemical_formula_structural   Mg2Ta4P6(SO12)3
_chemical_formula_sum   'Mg4 Ta8 P12 S6 O72'
_cell_volume   1491.66636658
_cell_formula_units_Z   2
loop_
 _symmetry_equiv_pos_site_id
 _symmetry_equiv_pos_as_xyz
  1  'x, y, z'
loop_
 _atom_site_type_symbol
 _atom_site_label
 _atom_site_symmetry_multiplicity
 _atom_site_fract_x
 _atom_site_fract_y
 _atom_site_fract_z
 _atom_site_occupancy
  Mg  Mg0  1  0.00000000  0.00000000  0.35850551  1
  Mg  Mg1  1  0.00000000  0.00000000  0.85850551  1
  Mg  Mg2  1  0.66666700  0.33333300  0.68656108  1
  Mg  Mg3  1  0.66666700  0.33333300  0.18656108  1
  Ta  Ta4  1  0.00000000  0.00000000  0.64144046  1
  Ta  Ta5  1  0.00000000  0.00000000  0.14144046  1
  Ta  Ta6  1  0.66666700  0.33333300  0.97592635  1
  Ta  Ta7  1  0.66666700  0.33333300  0.47592635  1
  Ta  Ta8  1  0.33333300  0.66666700  0.02282838  1
  Ta  Ta9  1  0.33333300  0.66666700  0.52282838  1
  Ta  Ta10  1  0.33333300  0.66666700  0.31160950  1
  Ta  Ta11  1  0.33333300  0.66666700  0.81160950  1
  P  P12  1  0.95006458  0.33548204  0.58487929  1
  P  P13  1  0.38541846  0.04993542  0.58487929  1
  P  P14  1  0.66451796  0.61458154  0.58487929  1
  P  P15  1  0.95006458  0.61458154  0.08487929  1
  P  P16  1  0.66451796  0.04993542  0.08487929  1
  P  P17  1  0.38541846  0.33548204  0.08487929  1
  P  P18  1  0.62231146  0.66970192  0.91642267  1
  P  P19  1  0.04738946  0.37768854  0.91642267  1
  P  P20  1  0.33029808  0.95261054  0.91642267  1
  P  P21  1  0.62231146  0.95261054  0.41642267  1
  P  P22  1  0.33029808  0.37768854  0.41642267  1
  P  P23  1  0.04738946  0.66970192  0.41642267  1
  S  S24  1  0.28920980  0.00414318  0.25110899  1
  S  S25  1  0.71493338  0.71079020  0.25110899  1
  S  S26  1  0.99585683  0.28506662  0.25110899  1
  S  S27  1  0.28920980  0.28506662  0.75110899  1
  S  S28  1  0.99585683  0.71079020  0.75110899  1
  S  S29  1  0.71493338  0.00414318  0.75110899  1
  O  O30  1  0.20444538  0.02549981  0.30299264  1
  O  O31  1  0.82105444  0.79555462  0.30299264  1
  O  O32  1  0.97450019  0.17894556  0.30299264  1
  O  O33  1  0.20444538  0.17894556  0.80299264  1
  O  O34  1  0.97450019  0.79555462  0.80299264  1
  O  O35  1  0.82105444  0.02549981  0.80299264  1
  O  O36  1  0.79683364  0.96907350  0.69656699  1
  O  O37  1  0.17223986  0.20316636  0.69656699  1
  O  O38  1  0.03092650  0.82776014  0.69656699  1
  O  O39  1  0.79683364  0.82776014  0.19656699  1
  O  O40  1  0.03092650  0.20316636  0.19656699  1
  O  O41  1  0.17223986  0.96907350  0.19656699  1
  O  O42  1  0.87722463  0.36934321  0.63964994  1
  O  O43  1  0.49211958  0.12277537  0.63964994  1
  O  O44  1  0.63065679  0.50788042  0.63964994  1
  O  O45  1  0.87722463  0.50788042  0.13964994  1
  O  O46  1  0.63065679  0.12277537  0.13964994  1
  O  O47  1  0.49211958  0.36934321  0.13964994  1
  O  O48  1  0.46572379  0.30031449  0.02850965  1
  O  O49  1  0.83459170  0.53427621  0.02850965  1
  O  O50  1  0.69968551  0.16540830  0.02850965  1
  O  O51  1  0.46572379  0.16540830  0.52850965  1
  O  O52  1  0.69968551  0.53427621  0.52850965  1
  O  O53  1  0.83459170  0.30031449  0.52850965  1
  O  O54  1  0.52590483  0.68906883  0.97109965  1
  O  O55  1  0.16316300  0.47409517  0.97109965  1
  O  O56  1  0.31093117  0.83683700  0.97109965  1
  O  O57  1  0.52590483  0.83683700  0.47109965  1
  O  O58  1  0.31093117  0.47409517  0.47109965  1
  O  O59  1  0.16316300  0.68906883  0.47109965  1
  O  O60  1  0.13576804  0.63230768  0.36122681  1
  O  O61  1  0.49653864  0.86423196  0.36122681  1
  O  O62  1  0.36769232  0.50346136  0.36122681  1
  O  O63  1  0.13576804  0.50346136  0.86122681  1
  O  O64  1  0.36769232  0.86423196  0.86122681  1
  O  O65  1  0.49653864  0.63230768  0.86122681  1
  O  O66  1  0.02737951  0.82624617  0.40761985  1
  O  O67  1  0.79886667  0.97262049  0.40761985  1
  O  O68  1  0.17375383  0.20113333  0.40761985  1
  O  O69  1  0.02737951  0.20113333  0.90761985  1
  O  O70  1  0.17375383  0.97262049  0.90761985  1
  O  O71  1  0.79886667  0.82624617  0.90761985  1
  O  O72  1  0.97470132  0.16947010  0.59402847  1
  O  O73  1  0.19476878  0.02529868  0.59402847  1
  O  O74  1  0.83052990  0.80523122  0.59402847  1
  O  O75  1  0.97470132  0.80523122  0.09402847  1
  O  O76  1  0.83052990  0.02529868  0.09402847  1
  O  O77  1  0.19476878  0.16947010  0.09402847  1
  O  O78  1  0.68790996  0.15142334  0.74116682  1
  O  O79  1  0.46351438  0.31209004  0.74116682  1
  O  O80  1  0.84857666  0.53648562  0.74116682  1
  O  O81  1  0.68790996  0.53648562  0.24116682  1
  O  O82  1  0.84857666  0.31209004  0.24116682  1
  O  O83  1  0.46351438  0.15142334  0.24116682  1
  O  O84  1  0.63026609  0.49712461  0.92672794  1
  O  O85  1  0.86685952  0.36973391  0.92672794  1
  O  O86  1  0.50287539  0.13314048  0.92672794  1
  O  O87  1  0.63026609  0.13314048  0.42672794  1
  O  O88  1  0.50287539  0.36973391  0.42672794  1
  O  O89  1  0.86685952  0.49712461  0.42672794  1
  O  O90  1  0.35223607  0.49071202  0.07117077  1
  O  O91  1  0.13847495  0.64776393  0.07117077  1
  O  O92  1  0.50928798  0.86152505  0.07117077  1
  O  O93  1  0.35223607  0.86152505  0.57117077  1
  O  O94  1  0.50928798  0.64776393  0.57117077  1
  O  O95  1  0.13847495  0.49071202  0.57117077  1
  O  O96  1  0.30136493  0.83585873  0.25787242  1
  O  O97  1  0.53449280  0.69863507  0.25787242  1
  O  O98  1  0.16414127  0.46550720  0.25787242  1
  O  O99  1  0.30136493  0.46550720  0.75787242  1
  O  O100  1  0.16414127  0.69863507  0.75787242  1
  O  O101  1  0.53449280  0.83585873  0.75787242  1
