# generated using pymatgen
data_Na5Al3Ge(PO4)6
_symmetry_space_group_name_H-M   'P 1'
_cell_length_a   8.52565650
_cell_length_b   8.51922592
_cell_length_c   21.58699168
_cell_angle_alpha   89.98063117
_cell_angle_beta   89.99181846
_cell_angle_gamma   120.01435304
_symmetry_Int_Tables_number   1
_chemical_formula_structural   Na5Al3Ge(PO4)6
_chemical_formula_sum   'Na15 Al9 Ge3 P18 O72'
_cell_volume   1357.65004603
_cell_formula_units_Z   3
loop_
 _symmetry_equiv_pos_site_id
 _symmetry_equiv_pos_as_xyz
  1  'x, y, z'
loop_
 _atom_site_type_symbol
 _atom_site_label
 _atom_site_symmetry_multiplicity
 _atom_site_fract_x
 _atom_site_fract_y
 _atom_site_fract_z
 _atom_site_occupancy
  Na  Na0  1  0.63451985  0.99977688  0.25225112  1
  Na  Na1  1  0.36467217  0.36493779  0.25254534  1
  Na  Na2  1  0.00056505  0.63573977  0.25226877  1
  Na  Na3  1  0.63758892  0.63438462  0.74969842  1
  Na  Na4  1  0.99970987  0.36303089  0.74983092  1
  Na  Na5  1  0.03208342  0.70024263  0.58219509  1
  Na  Na6  1  0.66547201  0.96728501  0.58205863  1
  Na  Na7  1  0.66592981  0.69888368  0.08221504  1
  Na  Na8  1  0.03201120  0.33171395  0.08237260  1
  Na  Na9  1  0.00648230  0.00709185  0.49694421  1
  Na  Na10  1  0.00628199  0.99913982  0.99651928  1
  Na  Na11  1  0.66009117  0.32619941  0.83427438  1
  Na  Na12  1  0.66628644  0.33325193  0.33741797  1
  Na  Na13  1  0.33259655  0.67256575  0.16593104  1
  Na  Na14  1  0.33329978  0.66630151  0.66523077  1
  Al  Al15  1  0.00083268  0.00029010  0.35681052  1
  Al  Al16  1  0.00206218  0.00088529  0.85451830  1
  Al  Al17  1  0.00616874  0.00557038  0.64775518  1
  Al  Al18  1  0.00494004  0.99914520  0.14797436  1
  Al  Al19  1  0.66103293  0.32815122  0.68502357  1
  Al  Al20  1  0.66589380  0.33224003  0.18460020  1
  Al  Al21  1  0.33257008  0.67177851  0.01686001  1
  Al  Al22  1  0.33257061  0.66145383  0.51637756  1
  Al  Al23  1  0.33328617  0.66647933  0.32000200  1
  Ge  Ge24  1  0.66488987  0.33192419  0.97809005  1
  Ge  Ge25  1  0.66432299  0.33243851  0.47846371  1
  Ge  Ge26  1  0.33409129  0.67249960  0.81724623  1
  P  P27  1  0.28706991  0.99975711  0.25052467  1
  P  P28  1  0.71268068  0.71280679  0.25016094  1
  P  P29  1  0.00001446  0.28746479  0.25018396  1
  P  P30  1  0.28831924  0.28274653  0.75092007  1
  P  P31  1  0.00332936  0.71637248  0.75041250  1
  P  P32  1  0.71113634  0.00144331  0.75056483  1
  P  P33  1  0.95798433  0.33368119  0.58371131  1
  P  P34  1  0.37747611  0.04820850  0.58334215  1
  P  P35  1  0.66175057  0.61847268  0.58383663  1
  P  P36  1  0.95824057  0.62460692  0.08344132  1
  P  P37  1  0.66177542  0.04316343  0.08370709  1
  P  P38  1  0.37687886  0.32898133  0.08345668  1
  P  P39  1  0.62510962  0.66946547  0.91787082  1
  P  P40  1  0.04417513  0.37503353  0.91802827  1
  P  P41  1  0.33031264  0.95538640  0.91789782  1
  P  P42  1  0.62412672  0.95576602  0.41722866  1
  P  P43  1  0.33164900  0.37636518  0.41694090  1
  P  P44  1  0.04406733  0.66790430  0.41734372  1
  O  O45  1  0.20347628  0.03900402  0.30654992  1
  O  O46  1  0.83653390  0.79810402  0.30576529  1
  O  O47  1  0.96154991  0.16338665  0.30576195  1
  O  O48  1  0.20157735  0.16929940  0.80846524  1
  O  O49  1  0.96388857  0.79883806  0.80673631  1
  O  O50  1  0.83319318  0.03631722  0.80677790  1
  O  O51  1  0.78974386  0.96042992  0.69197106  1
  O  O52  1  0.16641419  0.20615418  0.69372646  1
  O  O53  1  0.03438696  0.82744031  0.69115200  1
  O  O54  1  0.79276768  0.83020239  0.19090271  1
  O  O55  1  0.03690719  0.20724415  0.19092135  1
  O  O56  1  0.16683092  0.96128252  0.19270742  1
  O  O57  1  0.87361861  0.37110907  0.64172152  1
  O  O58  1  0.50212365  0.13051768  0.63979614  1
  O  O59  1  0.63369061  0.50451370  0.64251500  1
  O  O60  1  0.87354291  0.50272661  0.14122365  1
  O  O61  1  0.63318690  0.12852996  0.14197738  1
  O  O62  1  0.49845954  0.37005457  0.14115108  1
  O  O63  1  0.46348513  0.29618741  0.02554783  1
  O  O64  1  0.83017456  0.53891681  0.02647029  1
  O  O65  1  0.70841078  0.17096152  0.02652095  1
  O  O66  1  0.46154347  0.16625485  0.52495091  1
  O  O67  1  0.70836380  0.53767176  0.52681641  1
  O  O68  1  0.83039668  0.29103992  0.52678946  1
  O  O69  1  0.53634255  0.69670041  0.97551427  1
  O  O70  1  0.16083660  0.46351456  0.97551876  1
  O  O71  1  0.30154156  0.83720687  0.97422520  1
  O  O72  1  0.53731756  0.84056835  0.47558941  1
  O  O73  1  0.30223021  0.46506657  0.47368527  1
  O  O74  1  0.15975936  0.69717272  0.47556947  1
  O  O75  1  0.12573835  0.63228327  0.35833566  1
  O  O76  1  0.50674530  0.87387707  0.35829401  1
  O  O77  1  0.36782702  0.49240846  0.35734201  1
  O  O78  1  0.12405113  0.49557292  0.85806213  1
  O  O79  1  0.37373866  0.87658096  0.85868840  1
  O  O80  1  0.50428001  0.62869960  0.85805711  1
  O  O81  1  0.02346883  0.83506754  0.40906114  1
  O  O82  1  0.81175715  0.97625427  0.40895563  1
  O  O83  1  0.16473913  0.18831780  0.40871316  1
  O  O84  1  0.02457864  0.18918432  0.90918490  1
  O  O85  1  0.16414501  0.97469299  0.90876948  1
  O  O86  1  0.81071964  0.83613325  0.90885581  1
  O  O87  1  0.97196394  0.16136988  0.59160330  1
  O  O88  1  0.18643610  0.02226024  0.59106462  1
  O  O89  1  0.83377487  0.81020247  0.59072712  1
  O  O90  1  0.97217705  0.81071754  0.09100209  1
  O  O91  1  0.83380180  0.02381028  0.09038577  1
  O  O92  1  0.18586668  0.16387068  0.09079947  1
  O  O93  1  0.69205653  0.17073430  0.74220672  1
  O  O94  1  0.48150372  0.31394030  0.74264134  1
  O  O95  1  0.83466535  0.52196877  0.74304430  1
  O  O96  1  0.69008127  0.52044332  0.24174828  1
  O  O97  1  0.83061433  0.31042194  0.24200856  1
  O  O98  1  0.47935656  0.16950729  0.24190908  1
  O  O99  1  0.64119955  0.49461887  0.92356192  1
  O  O100  1  0.85352333  0.35936555  0.92386606  1
  O  O101  1  0.50541690  0.14651860  0.92376764  1
  O  O102  1  0.64131974  0.14722861  0.42347296  1
  O  O103  1  0.50628609  0.35971497  0.42337278  1
  O  O104  1  0.85279539  0.49346224  0.42387809  1
  O  O105  1  0.35737831  0.50066170  0.07617586  1
  O  O106  1  0.14403914  0.63852864  0.07552738  1
  O  O107  1  0.49697090  0.85219906  0.07577083  1
  O  O108  1  0.35691017  0.85639639  0.57591244  1
  O  O109  1  0.49700453  0.64464638  0.57587025  1
  O  O110  1  0.14426486  0.50538843  0.57558307  1
  O  O111  1  0.31098694  0.83093814  0.25727872  1
  O  O112  1  0.52050100  0.68953721  0.25675551  1
  O  O113  1  0.16899631  0.47983203  0.25680862  1
  O  O114  1  0.31031035  0.48048668  0.75735450  1
  O  O115  1  0.17169549  0.68798181  0.75732524  1
  O  O116  1  0.51963920  0.82536340  0.75752182  1
