# generated using pymatgen
data_Na5La2SiGe2P5O24
_symmetry_space_group_name_H-M   'P 1'
_cell_length_a   9.16720145
_cell_length_b   9.21745973
_cell_length_c   22.85759262
_cell_angle_alpha   90.31960814
_cell_angle_beta   89.39199744
_cell_angle_gamma   120.70551625
_symmetry_Int_Tables_number   1
_chemical_formula_structural   Na5La2SiGe2P5O24
_chemical_formula_sum   'Na15 La6 Si3 Ge6 P15 O72'
_cell_volume   1660.55423945
_cell_formula_units_Z   3
loop_
 _symmetry_equiv_pos_site_id
 _symmetry_equiv_pos_as_xyz
  1  'x, y, z'
loop_
 _atom_site_type_symbol
 _atom_site_label
 _atom_site_symmetry_multiplicity
 _atom_site_fract_x
 _atom_site_fract_y
 _atom_site_fract_z
 _atom_site_occupancy
  Na  Na0  1  0.99782753  0.64801580  0.24744025  1
  Na  Na1  1  0.62743932  0.63163493  0.74578624  1
  Na  Na2  1  0.37547718  0.99720404  0.74941123  1
  Na  Na3  1  0.66649388  0.96996074  0.58675284  1
  Na  Na4  1  0.30688352  0.97578040  0.08042897  1
  Na  Na5  1  0.67438267  0.69856977  0.07835777  1
  Na  Na6  1  0.02981299  0.33153375  0.08192811  1
  Na  Na7  1  0.96161435  0.30109987  0.42151952  1
  Na  Na8  1  0.34206053  0.03884755  0.42295571  1
  Na  Na9  1  0.00808831  0.99068580  0.50754431  1
  Na  Na10  1  0.00128100  0.99247716  0.99170913  1
  Na  Na11  1  0.68336238  0.33643809  0.82951195  1
  Na  Na12  1  0.65061734  0.33226890  0.32862940  1
  Na  Na13  1  0.34555311  0.66683211  0.16476698  1
  Na  Na14  1  0.31583446  0.64845807  0.66059116  1
  La  La15  1  0.99145694  0.99340872  0.34969457  1
  La  La16  1  0.00055383  0.00328213  0.15763675  1
  La  La17  1  0.66752865  0.33780225  0.97438782  1
  La  La18  1  0.66013307  0.34232638  0.50062777  1
  La  La19  1  0.34883816  0.66727232  0.31419788  1
  La  La20  1  0.32378438  0.65885062  0.80605758  1
  Si  Si21  1  0.73903870  0.02485290  0.74605638  1
  Si  Si22  1  0.34803203  0.01824012  0.58598043  1
  Si  Si23  1  0.97221648  0.62619428  0.08232990  1
  Ge  Ge24  1  0.99013929  0.00393478  0.85152050  1
  Ge  Ge25  1  0.00465476  0.00020748  0.65055785  1
  Ge  Ge26  1  0.67263182  0.31489911  0.68133710  1
  Ge  Ge27  1  0.67208424  0.33128591  0.18014785  1
  Ge  Ge28  1  0.31700537  0.66491132  0.00886156  1
  Ge  Ge29  1  0.32810163  0.66984639  0.52304363  1
  P  P30  1  0.33312357  0.01966123  0.24511315  1
  P  P31  1  0.68579007  0.66050960  0.23886265  1
  P  P32  1  0.97845299  0.31278984  0.24541472  1
  P  P33  1  0.28684915  0.26467978  0.74615810  1
  P  P34  1  0.97912108  0.71686718  0.74647483  1
  P  P35  1  0.97706490  0.33097445  0.58631937  1
  P  P36  1  0.66972430  0.64642130  0.59160125  1
  P  P37  1  0.65144766  0.03210945  0.08382409  1
  P  P38  1  0.38246656  0.35039625  0.08521988  1
  P  P39  1  0.63641838  0.69622196  0.91388101  1
  P  P40  1  0.05134722  0.35141036  0.91622755  1
  P  P41  1  0.30004755  0.94614675  0.91249520  1
  P  P42  1  0.62685139  0.95853714  0.42861210  1
  P  P43  1  0.32743629  0.37597365  0.42722352  1
  P  P44  1  0.04988167  0.67065495  0.42317020  1
  O  O45  1  0.24785451  0.03879824  0.30182549  1
  O  O46  1  0.80291496  0.75658057  0.29199429  1
  O  O47  1  0.96451193  0.20957834  0.30092382  1
  O  O48  1  0.20397031  0.15853009  0.80325764  1
  O  O49  1  0.94894244  0.79561934  0.80346097  1
  O  O50  1  0.84806541  0.04624442  0.80661126  1
  O  O51  1  0.82920593  0.99707173  0.68931807  1
  O  O52  1  0.17751781  0.17828334  0.69238592  1
  O  O53  1  0.00261679  0.82727591  0.69303768  1
  O  O54  1  0.76165233  0.75641215  0.18171233  1
  O  O55  1  0.00548773  0.24048921  0.18874043  1
  O  O56  1  0.22188930  0.98708036  0.19101116  1
  O  O57  1  0.87436696  0.36619788  0.63623143  1
  O  O58  1  0.50704486  0.12792138  0.63714722  1
  O  O59  1  0.63772448  0.51752065  0.64264095  1
  O  O60  1  0.88023648  0.49600270  0.14090394  1
  O  O61  1  0.62461781  0.12348134  0.13862713  1
  O  O62  1  0.50127711  0.37141404  0.13840621  1
  O  O63  1  0.44264354  0.30085606  0.03056254  1
  O  O64  1  0.84406621  0.55528267  0.02912962  1
  O  O65  1  0.69177123  0.14161820  0.03011002  1
  O  O66  1  0.40416413  0.11284270  0.52401114  1
  O  O67  1  0.71217969  0.59504878  0.53344281  1
  O  O68  1  0.87542557  0.28468810  0.52935132  1
  O  O69  1  0.53718943  0.70902008  0.97185178  1
  O  O70  1  0.15712950  0.44594716  0.97455581  1
  O  O71  1  0.28440337  0.83347644  0.96996426  1
  O  O72  1  0.52873903  0.84791044  0.48413960  1
  O  O73  1  0.31845584  0.48326813  0.48036404  1
  O  O74  1  0.17136158  0.68520531  0.47486585  1
  O  O75  1  0.12000255  0.65982323  0.36299809  1
  O  O76  1  0.53118756  0.88170113  0.37203265  1
  O  O77  1  0.33709453  0.45923538  0.36879029  1
  O  O78  1  0.13519309  0.45928906  0.86325395  1
  O  O79  1  0.32495822  0.87129068  0.85664609  1
  O  O80  1  0.54141259  0.67532717  0.85772590  1
  O  O81  1  0.04393726  0.83582629  0.42560969  1
  O  O82  1  0.80496706  0.97899799  0.42736293  1
  O  O83  1  0.15864059  0.20135840  0.42853143  1
  O  O84  1  0.04989469  0.18040589  0.91147478  1
  O  O85  1  0.13170691  0.95117761  0.90953854  1
  O  O86  1  0.81412964  0.86521324  0.91131630  1
  O  O87  1  0.99562845  0.17581299  0.59909055  1
  O  O88  1  0.16282638  -0.00167612  0.60042446  1
  O  O89  1  0.82416224  0.83129414  0.60049943  1
  O  O90  1  0.02173042  0.82134584  0.09034226  1
  O  O91  1  0.79958979  -0.00087327  0.09092115  1
  O  O92  1  0.19573436  0.20701545  0.09281906  1
  O  O93  1  0.70784990  0.19231347  0.73886252  1
  O  O94  1  0.46816163  0.27903474  0.74129381  1
  O  O95  1  0.81578672  0.53420745  0.74123349  1
  O  O96  1  0.69245089  0.49492937  0.23742926  1
  O  O97  1  0.80850540  0.31228600  0.24155188  1
  O  O98  1  0.50292482  0.18811676  0.23721204  1
  O  O99  1  0.66346373  0.54621092  0.91894906  1
  O  O100  1  0.87102264  0.31849625  0.91973833  1
  O  O101  1  0.45331214  0.12343141  0.91872570  1
  O  O102  1  0.64635080  0.13579706  0.43092912  1
  O  O103  1  0.47822038  0.34610726  0.42831165  1
  O  O104  1  0.87678946  0.50743553  0.42904628  1
  O  O105  1  0.38341255  0.52093980  0.07924486  1
  O  O106  1  0.15788247  0.62581418  0.07011789  1
  O  O107  1  0.48088491  0.85706191  0.07818618  1
  O  O108  1  0.34662159  0.83368896  0.58071801  1
  O  O109  1  0.50703030  0.66275131  0.58651249  1
  O  O110  1  0.15322568  0.49811871  0.58032834  1
  O  O111  1  0.35330022  0.86469815  0.24813123  1
  O  O112  1  0.50635403  0.62720693  0.24353321  1
  O  O113  1  0.12543553  0.49724996  0.24860730  1
  O  O114  1  0.32168454  0.44642142  0.74596464  1
  O  O115  1  0.14103368  0.70631085  0.74652724  1
  O  O116  1  0.54715664  0.85943117  0.74518046  1
