# generated using pymatgen
data_Na5ScH4(C2O7)2
_symmetry_space_group_name_H-M   'P 1'
_cell_length_a   7.43453632
_cell_length_b   7.43453632
_cell_length_c   11.38504993
_cell_angle_alpha   90.00000000
_cell_angle_beta   90.00000000
_cell_angle_gamma   90.00000000
_symmetry_Int_Tables_number   1
_chemical_formula_structural   Na5ScH4(C2O7)2
_chemical_formula_sum   'Na10 Sc2 H8 C8 O28'
_cell_volume   629.27824014
_cell_formula_units_Z   2
loop_
 _symmetry_equiv_pos_site_id
 _symmetry_equiv_pos_as_xyz
  1  'x, y, z'
loop_
 _atom_site_type_symbol
 _atom_site_label
 _atom_site_symmetry_multiplicity
 _atom_site_fract_x
 _atom_site_fract_y
 _atom_site_fract_z
 _atom_site_occupancy
  Na  Na0  1  0.68001775  0.81833946  0.70936908  1
  Na  Na1  1  0.31998225  0.18166054  0.70936908  1
  Na  Na2  1  0.68166054  0.81998225  0.20936908  1
  Na  Na3  1  0.18166054  0.68001775  0.29063092  1
  Na  Na4  1  0.81833946  0.31998225  0.29063092  1
  Na  Na5  1  0.81998225  0.31833946  0.79063092  1
  Na  Na6  1  0.18001775  0.68166054  0.79063092  1
  Na  Na7  1  0.31833946  0.18001775  0.20936908  1
  Na  Na8  1  0.00000000  0.00000000  0.50000000  1
  Na  Na9  1  0.50000000  0.50000000  0.00000000  1
  Sc  Sc10  1  0.50000000  0.50000000  0.50000000  1
  Sc  Sc11  1  0.00000000  0.00000000  0.00000000  1
  H  H12  1  0.91384493  0.56085108  0.61560443  1
  H  H13  1  0.08615507  0.43914892  0.61560443  1
  H  H14  1  0.93914892  0.58615507  0.11560443  1
  H  H15  1  0.43914892  0.91384493  0.38439557  1
  H  H16  1  0.56085108  0.08615507  0.38439557  1
  H  H17  1  0.58615507  0.06085108  0.88439557  1
  H  H18  1  0.41384493  0.93914892  0.88439557  1
  H  H19  1  0.06085108  0.41384493  0.11560443  1
  C  C20  1  0.82299972  0.71751367  0.92158029  1
  C  C21  1  0.17700028  0.28248633  0.92158029  1
  C  C22  1  0.78248633  0.67700028  0.42158029  1
  C  C23  1  0.28248633  0.82299972  0.07841971  1
  C  C24  1  0.32299972  0.78248633  0.57841971  1
  C  C25  1  0.21751367  0.32299972  0.42158029  1
  C  C26  1  0.71751367  0.17700028  0.07841971  1
  C  C27  1  0.67700028  0.21751367  0.57841971  1
  O  O28  1  0.66015354  0.25299568  0.46589367  1
  O  O29  1  0.83984646  0.75299568  0.03410633  1
  O  O30  1  0.25299568  0.33984646  0.53410633  1
  O  O31  1  0.74700432  0.66015354  0.53410633  1
  O  O32  1  0.32949776  0.40734210  0.35266099  1
  O  O33  1  0.33984646  0.74700432  0.46589367  1
  O  O34  1  0.59265790  0.32949776  0.64733901  1
  O  O35  1  0.82949776  0.09265790  0.14733901  1
  O  O36  1  0.17050224  0.90734210  0.14733901  1
  O  O37  1  0.67050224  0.59265790  0.35266099  1
  O  O38  1  0.09265790  0.17050224  0.85266099  1
  O  O39  1  0.90734210  0.82949776  0.85266099  1
  O  O40  1  0.08793997  0.23158703  0.38257833  1
  O  O41  1  0.23158703  0.91206003  0.61742167  1
  O  O42  1  0.76841297  0.08793997  0.61742167  1
  O  O43  1  0.58793997  0.26841297  0.11742167  1
  O  O44  1  0.41206003  0.73158703  0.11742167  1
  O  O45  1  0.91206003  0.76841297  0.38257833  1
  O  O46  1  0.26841297  0.41206003  0.88257833  1
  O  O47  1  0.73158703  0.58793997  0.88257833  1
  O  O48  1  0.00000000  0.50000000  0.16775750  1
  O  O49  1  0.50000000  0.00000000  0.83224250  1
  O  O50  1  0.50000000  0.00000000  0.33224250  1
  O  O51  1  0.00000000  0.50000000  0.66775750  1
  O  O52  1  0.24700432  0.83984646  0.96589367  1
  O  O53  1  0.16015354  0.24700432  0.03410633  1
  O  O54  1  0.40734210  0.67050224  0.64733901  1
  O  O55  1  0.75299568  0.16015354  0.96589367  1
