# generated using pymatgen
data_Na2Ta3AlSi4(SO12)2
_symmetry_space_group_name_H-M   'P 1'
_cell_length_a   8.75616440
_cell_length_b   8.78812225
_cell_length_c   22.61148150
_cell_angle_alpha   89.42953526
_cell_angle_beta   90.88332404
_cell_angle_gamma   119.84589791
_symmetry_Int_Tables_number   1
_chemical_formula_structural   Na2Ta3AlSi4(SO12)2
_chemical_formula_sum   'Na6 Ta9 Al3 Si12 S6 O72'
_cell_volume   1508.99854743
_cell_formula_units_Z   3
loop_
 _symmetry_equiv_pos_site_id
 _symmetry_equiv_pos_as_xyz
  1  'x, y, z'
loop_
 _atom_site_type_symbol
 _atom_site_label
 _atom_site_symmetry_multiplicity
 _atom_site_fract_x
 _atom_site_fract_y
 _atom_site_fract_z
 _atom_site_occupancy
  Na  Na0  1  0.98312396  0.97895993  0.49877247  1
  Na  Na1  1  0.00417670  0.99230210  0.99795714  1
  Na  Na2  1  0.65653001  0.32165872  0.83044577  1
  Na  Na3  1  0.67209744  0.31993729  0.32305255  1
  Na  Na4  1  0.31944608  0.65345939  0.16359061  1
  Na  Na5  1  0.34862779  0.66333751  0.66498160  1
  Ta  Ta6  1  0.00092450  0.00249702  0.35389549  1
  Ta  Ta7  1  0.00283527  0.01586626  0.85651674  1
  Ta  Ta8  1  0.98522353  0.99645166  0.64628934  1
  Ta  Ta9  1  0.01859870  0.01042561  0.14200560  1
  Ta  Ta10  1  0.66272786  0.34188818  0.97605075  1
  Ta  Ta11  1  0.67729809  0.34228185  0.47704039  1
  Ta  Ta12  1  0.32412016  0.65872707  0.02245543  1
  Ta  Ta13  1  0.32257286  0.67550812  0.31021444  1
  Ta  Ta14  1  0.34005752  0.66669555  0.81096535  1
  Al  Al15  1  0.64377203  0.33252585  0.69090556  1
  Al  Al16  1  0.67268148  0.33374396  0.18714204  1
  Al  Al17  1  0.35936999  0.69013881  0.52008076  1
  Si  Si18  1  0.30356160  0.01971150  0.24916912  1
  Si  Si19  1  0.99150693  0.28890634  0.24783417  1
  Si  Si20  1  0.29319965  0.29075192  0.74824870  1
  Si  Si21  1  0.70540687  0.01512424  0.74796194  1
  Si  Si22  1  0.65063885  0.61104170  0.58598128  1
  Si  Si23  1  0.94514454  0.61128228  0.08827535  1
  Si  Si24  1  0.39754238  0.34313380  0.08749442  1
  Si  Si25  1  0.62150936  0.67363725  0.91850582  1
  Si  Si26  1  0.04520634  0.38542716  0.91524313  1
  Si  Si27  1  0.33421427  0.95062552  0.91591713  1
  Si  Si28  1  0.61857949  0.94913995  0.41931817  1
  Si  Si29  1  0.06309212  0.67546753  0.42266100  1
  S  S30  1  0.71148696  0.70942553  0.24992075  1
  S  S31  1  0.99298608  0.70712394  0.74866235  1
  S  S32  1  0.95846528  0.34013702  0.58496793  1
  S  S33  1  0.38132317  0.04384391  0.58430071  1
  S  S34  1  0.66459748  0.04844879  0.08581476  1
  S  S35  1  0.33217640  0.38280003  0.41890837  1
  O  O36  1  0.19558914  0.02850366  0.30717635  1
  O  O37  1  0.82122092  0.79868140  0.30483468  1
  O  O38  1  0.97111249  0.16655593  0.30717158  1
  O  O39  1  0.19362907  0.16679667  0.80546009  1
  O  O40  1  0.96978759  0.78931809  0.80148647  1
  O  O41  1  0.82970117  0.03157115  0.80507057  1
  O  O42  1  0.79881078  0.97159693  0.69064716  1
  O  O43  1  0.16624273  0.18614826  0.69020121  1
  O  O44  1  0.01955748  0.82095768  0.69462583  1
  O  O45  1  0.78813945  0.82037502  0.19754310  1
  O  O46  1  0.01843555  0.18735140  0.19210510  1
  O  O47  1  0.16993178  0.97211725  0.19197903  1
  O  O48  1  0.87185872  0.35642940  0.63610618  1
  O  O49  1  0.48785299  0.12599846  0.63742382  1
  O  O50  1  0.63965204  0.49165580  0.64161769  1
  O  O51  1  0.86076338  0.49355266  0.14526911  1
  O  O52  1  0.64221103  0.12761004  0.13903681  1
  O  O53  1  0.50823567  0.35802338  0.14517020  1
  O  O54  1  0.47166257  0.30454524  0.02666463  1
  O  O55  1  0.83367719  0.52193008  0.02697328  1
  O  O56  1  0.69255800  0.15044179  0.03090211  1
  O  O57  1  0.46332892  0.15153864  0.53011108  1
  O  O58  1  0.68401182  0.51853073  0.52633648  1
  O  O59  1  0.84541647  0.30502614  0.52916800  1
  O  O60  1  0.53195123  0.70039950  0.97638002  1
  O  O61  1  0.16482923  0.46879784  0.97501823  1
  O  O62  1  0.30442724  0.83246618  0.97502724  1
  O  O63  1  0.54040688  0.83238473  0.47696917  1
  O  O64  1  0.30707829  0.45987842  0.47174082  1
  O  O65  1  0.17893684  0.68882029  0.47929633  1
  O  O66  1  0.13716826  0.63725106  0.36075238  1
  O  O67  1  0.50100951  0.85656131  0.35953692  1
  O  O68  1  0.36203919  0.48465901  0.36398321  1
  O  O69  1  0.13445754  0.50222781  0.85667895  1
  O  O70  1  0.36168907  0.86002166  0.85747228  1
  O  O71  1  0.50188090  0.63832044  0.85811938  1
  O  O72  1  0.03385985  0.84339518  0.41119112  1
  O  O73  1  0.81818799  0.98175156  0.40815484  1
  O  O74  1  0.17537630  0.20269506  0.41225076  1
  O  O75  1  0.03159866  0.19303928  0.91015287  1
  O  O76  1  0.15901555  0.96846329  0.90655666  1
  O  O77  1  0.81521125  0.83999299  0.90814377  1
  O  O78  1  0.97277924  0.17333515  0.58711766  1
  O  O79  1  0.20194921  0.02674362  0.58781256  1
  O  O80  1  0.83511085  0.80975953  0.59004999  1
  O  O81  1  0.95834132  0.80698521  0.09235910  1
  O  O82  1  0.82176710  0.02348083  0.09081897  1
  O  O83  1  0.19149527  0.16888461  0.08987676  1
  O  O84  1  0.70072109  0.19126584  0.73443897  1
  O  O85  1  0.48514539  0.31323659  0.74316397  1
  O  O86  1  0.83974889  0.53338072  0.74019980  1
  O  O87  1  0.69914085  0.53886003  0.24760522  1
  O  O88  1  0.82410532  0.31387624  0.24223683  1
  O  O89  1  0.49229073  0.18689047  0.24242194  1
  O  O90  1  0.63689192  0.49633078  0.92256907  1
  O  O91  1  0.85058529  0.35569945  0.92390044  1
  O  O92  1  0.50699945  0.14204205  0.92433805  1
  O  O93  1  0.63475707  0.14401992  0.42656022  1
  O  O94  1  0.48850391  0.35468259  0.42462778  1
  O  O95  1  0.86048242  0.50022795  0.42755637  1
  O  O96  1  0.37040141  0.51400118  0.08000603  1
  O  O97  1  0.14854177  0.64818539  0.07871872  1
  O  O98  1  0.50744047  0.87042769  0.08048311  1
  O  O99  1  0.35990483  0.86623541  0.57823721  1
  O  O100  1  0.47921128  0.63519180  0.57571446  1
  O  O101  1  0.13378333  0.49118109  0.57652026  1
  O  O102  1  0.31302211  0.83496157  0.25618239  1
  O  O103  1  0.53406785  0.69111457  0.25803895  1
  O  O104  1  0.17789208  0.47667076  0.25824197  1
  O  O105  1  0.29782191  0.47883646  0.75299353  1
  O  O106  1  0.15683374  0.69748591  0.75157041  1
  O  O107  1  0.51293145  0.83719194  0.75358666  1
