# generated using pymatgen
data_Na6Ta8Si11SO48
_symmetry_space_group_name_H-M   'P 1'
_cell_length_a   17.86483430
_cell_length_b   8.92704156
_cell_length_c   22.79124581
_cell_angle_alpha   90.09951809
_cell_angle_beta   89.92351364
_cell_angle_gamma   120.12182107
_symmetry_Int_Tables_number   1
_chemical_formula_structural   Na6Ta8Si11SO48
_chemical_formula_sum   'Na18 Ta24 Si33 S3 O144'
_cell_volume   3143.90996841
_cell_formula_units_Z   3
loop_
 _symmetry_equiv_pos_site_id
 _symmetry_equiv_pos_as_xyz
  1  'x, y, z'
loop_
 _atom_site_type_symbol
 _atom_site_label
 _atom_site_symmetry_multiplicity
 _atom_site_fract_x
 _atom_site_fract_y
 _atom_site_fract_z
 _atom_site_occupancy
  Na  Na0  1  0.68246767  0.99940174  0.75037682  1
  Na  Na1  1  0.01587795  0.69527368  0.58233228  1
  Na  Na2  1  0.51641985  0.70032495  0.58337495  1
  Na  Na3  1  0.83228619  0.69465116  0.08189637  1
  Na  Na4  1  0.34957532  0.03202203  0.91738760  1
  Na  Na5  1  0.48463838  0.30487595  0.41732300  1
  Na  Na6  1  0.00121607  0.00777233  0.49860009  1
  Na  Na7  1  0.50116248  0.99996544  0.50191890  1
  Na  Na8  1  0.00513686  0.00899181  0.99868293  1
  Na  Na9  1  0.50418814  0.99942596  0.99939656  1
  Na  Na10  1  0.33535006  0.34075896  0.83417991  1
  Na  Na11  1  0.83685790  0.34077489  0.83518631  1
  Na  Na12  1  0.33199501  0.33718102  0.33262397  1
  Na  Na13  1  0.83608375  0.33762886  0.33451975  1
  Na  Na14  1  0.16762062  0.66442849  0.16469741  1
  Na  Na15  1  0.66330323  0.66211154  0.16566602  1
  Na  Na16  1  0.17069570  0.67097681  0.66712370  1
  Na  Na17  1  0.66921189  0.65926022  0.66759925  1
  Ta  Ta18  1  0.99308482  0.99519390  0.35740450  1
  Ta  Ta19  1  0.49386952  0.99251315  0.35574230  1
  Ta  Ta20  1  0.99269894  0.99013898  0.85816216  1
  Ta  Ta21  1  0.50153606  0.99815750  0.85467571  1
  Ta  Ta22  1  0.99549999  0.99174923  0.64394080  1
  Ta  Ta23  1  0.49929289  0.00427777  0.64626101  1
  Ta  Ta24  1  0.99801676  0.00856521  0.14331535  1
  Ta  Ta25  1  0.49370932  0.00331465  0.14208564  1
  Ta  Ta26  1  0.33723455  0.33205921  0.68618938  1
  Ta  Ta27  1  0.83557293  0.33868573  0.68868277  1
  Ta  Ta28  1  0.33824910  0.34151264  0.18577878  1
  Ta  Ta29  1  0.83877763  0.34286552  0.18607985  1
  Ta  Ta30  1  0.33305235  0.33888001  0.97914578  1
  Ta  Ta31  1  0.83292891  0.33165222  0.97730710  1
  Ta  Ta32  1  0.33062315  0.33450024  0.47875817  1
  Ta  Ta33  1  0.83487415  0.33202022  0.47783478  1
  Ta  Ta34  1  0.16660619  0.66430386  0.02163196  1
  Ta  Ta35  1  0.66361598  0.66521562  0.02095388  1
  Ta  Ta36  1  0.16805063  0.66524531  0.52085051  1
  Ta  Ta37  1  0.66876344  0.66933809  0.52128345  1
  Ta  Ta38  1  0.16656283  0.65726762  0.31364534  1
  Ta  Ta39  1  0.66802635  0.65792252  0.31330883  1
  Ta  Ta40  1  0.16700202  0.67527308  0.81443387  1
  Ta  Ta41  1  0.66580566  0.66231025  0.81276081  1
  Si  Si42  1  0.35420747  0.70918003  0.24912557  1
  Si  Si43  1  0.85561115  0.71121596  0.24940948  1
  Si  Si44  1  0.99917172  0.28888244  0.25085626  1
  Si  Si45  1  0.49921790  0.28845334  0.25016116  1
  Si  Si46  1  0.64413346  0.29143242  0.75001132  1
  Si  Si47  1  0.00174687  0.71357028  0.75019000  1
  Si  Si48  1  0.49736960  0.70785899  0.74961179  1
  Si  Si49  1  0.35479966  0.99788909  0.75100754  1
  Si  Si50  1  0.85633861  0.00073760  0.75059150  1
  Si  Si51  1  0.47761271  0.32946981  0.58118883  1
  Si  Si52  1  0.97713755  0.33034143  0.58326811  1
  Si  Si53  1  0.18987601  0.04616018  0.58380767  1
  Si  Si54  1  0.69049793  0.04926806  0.58368837  1
  Si  Si55  1  0.33129169  0.61979962  0.58455002  1
  Si  Si56  1  0.82975677  0.61475403  0.58291017  1
  Si  Si57  1  0.47888415  0.62511696  0.08291384  1
  Si  Si58  1  0.98006051  0.62333693  0.08195954  1
  Si  Si59  1  0.32990948  0.04602382  0.08252062  1
  Si  Si60  1  0.83077772  0.04793929  0.08332452  1
  Si  Si61  1  0.19050188  0.33426320  0.08401278  1
  Si  Si62  1  0.68869749  0.32930141  0.08336371  1
  Si  Si63  1  0.30951433  0.66287147  0.91598872  1
  Si  Si64  1  0.80755110  0.66108933  0.91795052  1
  Si  Si65  1  0.02330585  0.38014763  0.91637883  1
  Si  Si66  1  0.52250750  0.37842716  0.91670361  1
  Si  Si67  1  0.16481827  0.95585826  0.91837802  1
  Si  Si68  1  0.66678516  0.95462473  0.91608382  1
  Si  Si69  1  0.30733509  0.95325584  0.41607064  1
  Si  Si70  1  0.80791324  0.95417012  0.41602884  1
  Si  Si71  1  0.16593483  0.37548341  0.41703987  1
  Si  Si72  1  0.66857872  0.37669822  0.41759991  1
  Si  Si73  1  0.02356703  0.66750582  0.41663854  1
  Si  Si74  1  0.52404528  0.67047377  0.41663252  1
  S  S75  1  0.14341486  -0.00019300  0.25008608  1
  S  S76  1  0.64325428  -0.00031928  0.24983670  1
  S  S77  1  0.14354396  0.28653973  0.75017197  1
  O  O78  1  0.10362481  0.02646893  0.30309070  1
  O  O79  1  0.60282668  0.02595384  0.30331391  1
  O  O80  1  0.41677421  0.80462058  0.30671566  1
  O  O81  1  0.91761301  0.80550036  0.30629824  1
  O  O82  1  0.48806946  0.17047961  0.30867561  1
  O  O83  1  0.98809082  0.16584747  0.30708601  1
  O  O84  1  0.10419168  0.18147092  0.80271267  1
  O  O85  1  0.59854763  0.16343873  0.80624610  1
  O  O86  1  0.48467477  0.80419381  0.80655975  1
  O  O87  1  0.98892694  0.81285469  0.80616810  1
  O  O88  1  0.41426766  0.03010726  0.80926522  1
  O  O89  1  0.91810040  0.03061721  0.80694596  1
  O  O90  1  0.40255315  0.97190034  0.69336337  1
  O  O91  1  0.90527698  0.97499479  0.69347613  1
  O  O92  1  0.09027923  0.20535792  0.69668602  1
  O  O93  1  0.58364752  0.19574365  0.69249644  1
  O  O94  1  0.01558795  0.83158059  0.69110101  1
  O  O95  1  0.51601261  0.83048061  0.69136378  1
  O  O96  1  0.40451536  0.83330138  0.19321814  1
  O  O97  1  0.90279878  0.82982920  0.19134917  1
  O  O98  1  0.01456906  0.19513236  0.19347096  1
  O  O99  1  0.51487939  0.19419153  0.19382862  1
  O  O100  1  0.08997897  0.97359919  0.19709446  1
  O  O101  1  0.59048580  0.97271485  0.19733323  1
  O  O102  1  0.43246492  0.36693620  0.63864730  1
  O  O103  1  0.93216952  0.36808837  0.63987526  1
  O  O104  1  0.25002297  0.13819792  0.64111208  1
  O  O105  1  0.74869098  0.13453407  0.64265309  1
  O  O106  1  0.31840451  0.49738927  0.64130997  1
  O  O107  1  0.81843050  0.50024807  0.64113532  1
  O  O108  1  0.43289698  0.50158595  0.14072759  1
  O  O109  1  0.93296328  0.50205438  0.14065974  1
  O  O110  1  0.31888474  0.14004449  0.14072481  1
  O  O111  1  0.81818211  0.13871828  0.14168849  1
  O  O112  1  0.25081094  0.36132029  0.14150805  1
  O  O113  1  0.75233743  0.36618213  0.14052424  1
  O  O114  1  0.23519237  0.30187024  0.02634845  1
  O  O115  1  0.73555742  0.30277225  0.02612470  1
  O  O116  1  0.41702090  0.53188485  0.02625024  1
  O  O117  1  0.91425066  0.53488686  0.02707476  1
  O  O118  1  0.34803300  0.16409018  0.02394990  1
  O  O119  1  0.84905865  0.16897082  0.02626408  1
  O  O120  1  0.23566601  0.16760435  0.52624030  1
  O  O121  1  0.73683583  0.17034866  0.52657599  1
  O  O122  1  0.35035252  0.53034083  0.52738221  1
  O  O123  1  0.85236124  0.53289767  0.52659168  1
  O  O124  1  0.41882159  0.30396591  0.52330968  1
  O  O125  1  0.91706315  0.30067078  0.52590985  1
  O  O126  1  0.26566472  0.70214636  0.97262279  1
  O  O127  1  0.76689238  0.69639456  0.97678985  1
  O  O128  1  0.08420125  0.47062126  0.97369182  1
  O  O129  1  0.58365476  0.47032708  0.97389618  1
  O  O130  1  0.15063137  0.83229382  0.97437404  1
  O  O131  1  0.65249709  0.83168304  0.97331199  1
  O  O132  1  0.26450108  0.83261557  0.47374044  1
  O  O133  1  0.76383840  0.83156810  0.47351529  1
  O  O134  1  0.15080287  0.46848328  0.47389704  1
  O  O135  1  0.64739119  0.46696657  0.47294250  1
  O  O136  1  0.08182883  0.69710979  0.47580638  1
  O  O137  1  0.58116525  0.69737311  0.47585229  1
  O  O138  1  0.07086149  0.63911092  0.35952206  1
  O  O139  1  0.56958769  0.63382147  0.36030451  1
  O  O140  1  0.24937293  0.86257690  0.35830120  1
  O  O141  1  0.74874191  0.86106353  0.35849214  1
  O  O142  1  0.18212707  0.49892953  0.35936404  1
  O  O143  1  0.68176895  0.49832841  0.35953444  1
  O  O144  1  0.06967271  0.50150126  0.85857475  1
  O  O145  1  0.56875723  0.50065583  0.85945929  1
  O  O146  1  0.18397612  0.86664760  0.86042835  1
  O  O147  1  0.68096063  0.86698066  0.85688135  1
  O  O148  1  0.24921531  0.63644365  0.85839870  1
  O  O149  1  0.74922586  0.63869559  0.85989203  1
  O  O150  1  0.01452333  0.83977124  0.40724043  1
  O  O151  1  0.51442231  0.84121131  0.40765588  1
  O  O152  1  0.40593926  0.97887935  0.40898093  1
  O  O153  1  0.90416073  0.97260296  0.40963517  1
  O  O154  1  0.08194272  0.18481140  0.40723340  1
  O  O155  1  0.58022175  0.18946035  0.40731584  1
  O  O156  1  0.01448365  0.18983865  0.90696775  1
  O  O157  1  0.50959842  0.18448176  0.90937394  1
  O  O158  1  0.08177040  0.97959155  0.90749406  1
  O  O159  1  0.58053445  0.97327191  0.90922835  1
  O  O160  1  0.40399450  0.83979171  0.90879373  1
  O  O161  1  0.90422516  0.83557551  0.91010861  1
  O  O162  1  0.48720517  0.15988005  0.58951186  1
  O  O163  1  0.99004425  0.16387688  0.59292912  1
  O  O164  1  0.09281650  0.02132211  0.59178461  1
  O  O165  1  0.59197698  0.01777936  0.59038261  1
  O  O166  1  0.42013344  0.80737045  0.59112585  1
  O  O167  1  0.91892227  0.80727027  0.59100982  1
  O  O168  1  0.48922005  0.81475799  0.09325643  1
  O  O169  1  0.98594850  0.81115824  0.09311715  1
  O  O170  1  0.41707857  0.02708572  0.09053018  1
  O  O171  1  0.91668955  0.02197331  0.09102806  1
  O  O172  1  0.09497392  0.16029177  0.09285148  1
  O  O173  1  0.59376741  0.15940353  0.09280449  1
  O  O174  1  0.34323360  0.16841616  0.74193889  1
  O  O175  1  0.84370629  0.16885459  0.74274421  1
  O  O176  1  0.23091814  0.30561515  0.74350088  1
  O  O177  1  0.73783022  0.30170496  0.74278648  1
  O  O178  1  0.41121004  0.51692836  0.74304987  1
  O  O179  1  0.91493102  0.52355342  0.74274593  1
  O  O180  1  0.34308181  0.51642444  0.24338283  1
  O  O181  1  0.84305026  0.51697920  0.24300268  1
  O  O182  1  0.41204400  0.30377574  0.24347364  1
  O  O183  1  0.91214329  0.30400958  0.24325046  1
  O  O184  1  0.23071176  0.15571135  0.24416919  1
  O  O185  1  0.73064792  0.15627392  0.24472704  1
  O  O186  1  0.32035361  0.49384643  0.92317391  1
  O  O187  1  0.82053768  0.49479633  0.92361005  1
  O  O188  1  0.42551248  0.35195337  0.92372437  1
  O  O189  1  0.92796252  0.35968952  0.92440779  1
  O  O190  1  0.25418848  0.14250296  0.92391792  1
  O  O191  1  0.75221152  0.14532103  0.92391069  1
  O  O192  1  0.32483666  0.15018145  0.42325523  1
  O  O193  1  0.82045810  0.14570487  0.42337545  1
  O  O194  1  0.25267008  0.36000390  0.42408653  1
  O  O195  1  0.75348041  0.35928556  0.42412594  1
  O  O196  1  0.42927433  0.49466608  0.42372735  1
  O  O197  1  0.92797641  0.49667644  0.42409353  1
  O  O198  1  0.17977070  0.50313108  0.07586878  1
  O  O199  1  0.68251964  0.50583200  0.07652521  1
  O  O200  1  0.07411757  0.64166402  0.07665691  1
  O  O201  1  0.57334616  0.64137412  0.07670404  1
  O  O202  1  0.24717674  0.85312684  0.07618536  1
  O  O203  1  0.74987443  0.85047060  0.07717191  1
  O  O204  1  0.17536442  0.85126368  0.57638445  1
  O  O205  1  0.67643438  0.85276859  0.57582610  1
  O  O206  1  0.24685577  0.64095867  0.57648252  1
  O  O207  1  0.74693763  0.64110452  0.57596611  1
  O  O208  1  0.07112084  0.50745116  0.57614482  1
  O  O209  1  0.57107353  0.50804348  0.57603134  1
  O  O210  1  0.15237161  0.84359379  0.25560454  1
  O  O211  1  0.65246455  0.84369857  0.25667983  1
  O  O212  1  0.26005239  0.69575789  0.25710827  1
  O  O213  1  0.76048112  0.69595832  0.25699648  1
  O  O214  1  0.08442727  0.48246591  0.25716830  1
  O  O215  1  0.58437869  0.48288357  0.25736822  1
  O  O216  1  0.15274263  0.46125043  0.75501853  1
  O  O217  1  0.65424756  0.48125122  0.75638363  1
  O  O218  1  0.08616813  0.68914759  0.75705503  1
  O  O219  1  0.58577943  0.69666198  0.75687004  1
  O  O220  1  0.25940636  0.82370744  0.75702294  1
  O  O221  1  0.75929435  0.83259838  0.75634852  1
