# generated using pymatgen
data_MgFe4(HO2)4
_symmetry_space_group_name_H-M   'P 1'
_cell_length_a   8.74627265
_cell_length_b   8.74627265
_cell_length_c   7.48549524
_cell_angle_alpha   78.14834352
_cell_angle_beta   105.90988712
_cell_angle_gamma   160.24782179
_symmetry_Int_Tables_number   1
_chemical_formula_structural   MgFe4(HO2)4
_chemical_formula_sum   'Mg1 Fe4 H4 O8'
_cell_volume   183.65026765
_cell_formula_units_Z   1
loop_
 _symmetry_equiv_pos_site_id
 _symmetry_equiv_pos_as_xyz
  1  'x, y, z'
loop_
 _atom_site_type_symbol
 _atom_site_label
 _atom_site_symmetry_multiplicity
 _atom_site_fract_x
 _atom_site_fract_y
 _atom_site_fract_z
 _atom_site_occupancy
  Mg  Mg0  1  0.50000000  0.50000000  0.00000000  1
  Fe  Fe1  1  0.36705966  0.81575497  0.18281463  1
  Fe  Fe2  1  0.63294034  0.18424503  0.81718537  1
  Fe  Fe3  1  0.21748949  0.41065732  0.62814781  1
  Fe  Fe4  1  0.78251051  0.58934268  0.37185219  1
  H  H5  1  0.58820509  0.75612659  0.34433168  1
  H  H6  1  0.41179491  0.24387341  0.65566832  1
  H  H7  1  0.25465773  0.59606450  0.85072223  1
  H  H8  1  0.74534227  0.40393550  0.14927777  1
  O  O9  1  0.15233129  0.78860366  0.94093496  1
  O  O10  1  0.84766871  0.21139634  0.05906504  1
  O  O11  1  0.13536052  0.06137474  0.19673625  1
  O  O12  1  0.86463948  0.93862526  0.80326375  1
  O  O13  1  0.58053909  0.83237729  0.41291637  1
  O  O14  1  0.41946091  0.16762271  0.58708363  1
  O  O15  1  0.15431555  0.56973975  0.72405530  1
  O  O16  1  0.84568445  0.43026025  0.27594470  1
