# generated using pymatgen
data_Na14Sc4Si9Sn4(SO16)3
_symmetry_space_group_name_H-M   'P 1'
_cell_length_a   18.31174400
_cell_length_b   9.15269358
_cell_length_c   22.61019053
_cell_angle_alpha   89.99060517
_cell_angle_beta   89.66591973
_cell_angle_gamma   119.98013962
_symmetry_Int_Tables_number   1
_chemical_formula_structural   Na14Sc4Si9Sn4(SO16)3
_chemical_formula_sum   'Na42 Sc12 Si27 Sn12 S9 O144'
_cell_volume   3282.39044634
_cell_formula_units_Z   3
loop_
 _symmetry_equiv_pos_site_id
 _symmetry_equiv_pos_as_xyz
  1  'x, y, z'
loop_
 _atom_site_type_symbol
 _atom_site_label
 _atom_site_symmetry_multiplicity
 _atom_site_fract_x
 _atom_site_fract_y
 _atom_site_fract_z
 _atom_site_occupancy
  Na  Na0  1  0.81854230  0.00679338  0.25431741  1
  Na  Na1  1  0.17737785  0.35886871  0.25320938  1
  Na  Na2  1  0.69156427  0.37103495  0.25409440  1
  Na  Na3  1  0.99784351  0.63077828  0.24620554  1
  Na  Na4  1  0.50272713  0.64802723  0.24980519  1
  Na  Na5  1  0.31813778  0.62897409  0.75091995  1
  Na  Na6  1  0.00065609  0.35627611  0.74327233  1
  Na  Na7  1  0.49963470  0.36685669  0.74282325  1
  Na  Na8  1  0.18993067  0.01146618  0.74987517  1
  Na  Na9  1  0.68041356  -0.00174992  0.74783681  1
  Na  Na10  1  0.14622502  0.32343051  0.58200285  1
  Na  Na11  1  0.65335436  0.33500242  0.58321349  1
  Na  Na12  1  0.33520679  0.98425783  0.58615192  1
  Na  Na13  1  0.83282726  0.96794844  0.58301847  1
  Na  Na14  1  0.14516523  0.96590368  0.08094615  1
  Na  Na15  1  0.64972323  0.97210765  0.08111269  1
  Na  Na16  1  0.33255577  0.68761861  0.08240686  1
  Na  Na17  1  0.83513587  0.68696764  0.08652608  1
  Na  Na18  1  0.48112837  0.67892097  0.91548675  1
  Na  Na19  1  0.98116620  0.67757643  0.92238233  1
  Na  Na20  1  0.34562304  0.02306243  0.90827073  1
  Na  Na21  1  0.84495550  0.02327295  0.91085973  1
  Na  Na22  1  0.17068740  0.29409873  0.91033552  1
  Na  Na23  1  0.66923412  0.29152161  0.91033231  1
  Na  Na24  1  0.48368958  0.29016009  0.42606774  1
  Na  Na25  1  0.97858988  0.28171932  0.42037072  1
  Na  Na26  1  0.16852634  0.04722475  0.41368532  1
  Na  Na27  1  0.67445045  0.05062288  0.41636060  1
  Na  Na28  1  0.34570990  0.66681225  0.41399339  1
  Na  Na29  1  0.84555203  0.66651361  0.41930571  1
  Na  Na30  1  0.99737165  0.99747169  0.50174612  1
  Na  Na31  1  0.50541137  0.01293757  0.50255172  1
  Na  Na32  1  0.00246444  0.99449961  0.00058817  1
  Na  Na33  1  0.50360939  0.99636576  0.99721134  1
  Na  Na34  1  0.32950835  0.33394364  0.82681474  1
  Na  Na35  1  0.82325693  0.32979661  0.82999412  1
  Na  Na36  1  0.32328897  0.31609624  0.33506975  1
  Na  Na37  1  0.82891043  0.32353646  0.33245903  1
  Na  Na38  1  0.15921748  0.65384426  0.16897247  1
  Na  Na39  1  0.66529623  0.66221012  0.16884088  1
  Na  Na40  1  0.16261791  0.66656021  0.66665268  1
  Na  Na41  1  0.66626433  0.66572853  0.66505820  1
  Sc  Sc42  1  0.00028941  0.00985743  0.34957247  1
  Sc  Sc43  1  0.50131079  0.00122394  0.35170257  1
  Sc  Sc44  1  0.99967104  -0.00000252  0.84940052  1
  Sc  Sc45  1  0.50101474  0.99209134  0.84839632  1
  Sc  Sc46  1  0.33585569  0.32378692  0.68574860  1
  Sc  Sc47  1  0.83590424  0.34746764  0.18668293  1
  Sc  Sc48  1  0.32718193  0.33904058  0.98181254  1
  Sc  Sc49  1  0.82618958  0.34074802  0.98384142  1
  Sc  Sc50  1  0.32753818  0.31321350  0.48390185  1
  Sc  Sc51  1  0.82836079  0.32847974  0.48561543  1
  Sc  Sc52  1  0.67741633  0.68011753  0.31574711  1
  Sc  Sc53  1  0.17610874  0.67381755  0.81358027  1
  Si  Si54  1  0.15106154  0.00119857  0.25042185  1
  Si  Si55  1  0.64800956  0.99673998  0.25052602  1
  Si  Si56  1  0.35529805  0.71013481  0.24931135  1
  Si  Si57  1  0.85458446  0.71092401  0.24992951  1
  Si  Si58  1  0.00010337  0.29581596  0.25095059  1
  Si  Si59  1  0.14571237  0.29426432  0.74964065  1
  Si  Si60  1  0.65094999  0.29995368  0.75176701  1
  Si  Si61  1  0.49988284  0.70413579  0.75149962  1
  Si  Si62  1  0.35473076  -0.00126550  0.75031745  1
  Si  Si63  1  0.85551592  0.00712529  0.74960002  1
  Si  Si64  1  0.48143946  0.33279679  0.58303261  1
  Si  Si65  1  0.98144751  0.34071783  0.58299000  1
  Si  Si66  1  0.18367428  0.03211675  0.58474019  1
  Si  Si67  1  0.68107216  0.02939576  0.58274306  1
  Si  Si68  1  0.83692191  0.62778715  0.58233045  1
  Si  Si69  1  0.48112040  0.62324826  0.08306892  1
  Si  Si70  1  0.98205897  0.62983139  0.08303570  1
  Si  Si71  1  0.18121761  0.33319293  0.08281653  1
  Si  Si72  1  0.68139189  0.33304126  0.08508140  1
  Si  Si73  1  0.31463872  0.67045366  0.91839690  1
  Si  Si74  1  0.81187359  0.66698518  0.91746845  1
  Si  Si75  1  0.16661052  0.96051538  0.91631387  1
  Si  Si76  1  0.66773422  0.96003562  0.91779498  1
  Si  Si77  1  0.31199743  0.95737508  0.41699024  1
  Si  Si78  1  0.81579900  0.96443928  0.41762635  1
  Si  Si79  1  0.16784000  0.37551271  0.41712848  1
  Si  Si80  1  0.66620137  0.37168842  0.41520722  1
  Sn  Sn81  1  0.99788748  0.00303974  0.64518654  1
  Sn  Sn82  1  0.50641069  0.00990569  0.65198764  1
  Sn  Sn83  1  0.00571078  0.00325064  0.15236226  1
  Sn  Sn84  1  0.50258080  0.99152594  0.14921256  1
  Sn  Sn85  1  0.82880449  0.32384724  0.68063945  1
  Sn  Sn86  1  0.33078049  0.34381282  0.18374976  1
  Sn  Sn87  1  0.16271649  0.66234737  0.01816821  1
  Sn  Sn88  1  0.66474840  0.66355119  0.01924702  1
  Sn  Sn89  1  0.16432778  0.66617722  0.51918525  1
  Sn  Sn90  1  0.66999324  0.66153987  0.52206632  1
  Sn  Sn91  1  0.17465761  0.67387913  0.31084572  1
  Sn  Sn92  1  0.67552506  0.67749817  0.80991575  1
  S  S93  1  0.49692074  0.28961302  0.24915011  1
  S  S94  1  0.99831215  0.70424384  0.75069115  1
  S  S95  1  0.33475148  0.62796794  0.58271410  1
  S  S96  1  0.33575438  0.04490839  0.08346924  1
  S  S97  1  0.83485901  0.04148195  0.08275670  1
  S  S98  1  0.01945695  0.37267699  0.91599698  1
  S  S99  1  0.52023411  0.37386096  0.91678603  1
  S  S100  1  0.02121720  0.66672005  0.41502710  1
  S  S101  1  0.52083749  0.66603829  0.41630800  1
  O  O102  1  0.11128004  0.04351963  0.30777539  1
  O  O103  1  0.60278329  0.03233170  0.30676932  1
  O  O104  1  0.41377886  0.79474654  0.30665163  1
  O  O105  1  0.91476076  0.79863275  0.30660186  1
  O  O106  1  0.48527841  0.18963756  0.30323451  1
  O  O107  1  0.98383394  0.18246734  0.31013538  1
  O  O108  1  0.10372689  0.17561664  0.80874416  1
  O  O109  1  0.60866680  0.18067933  0.81002341  1
  O  O110  1  0.48303839  0.78228066  0.81174192  1
  O  O111  1  0.98727787  0.78180997  0.80537825  1
  O  O112  1  0.41217796  0.02816244  0.80878727  1
  O  O113  1  0.91160818  0.03584914  0.80899820  1
  O  O114  1  0.39585782  0.95998184  0.69092551  1
  O  O115  1  0.89698547  0.97543258  0.69055585  1
  O  O116  1  0.08536612  0.20514246  0.69148756  1
  O  O117  1  0.59256163  0.22413493  0.69197228  1
  O  O118  1  0.01335271  0.81338524  0.69834936  1
  O  O119  1  0.52268695  0.83569159  0.69574657  1
  O  O120  1  0.39466198  0.82228260  0.18798781  1
  O  O121  1  0.89488194  0.82995990  0.18935781  1
  O  O122  1  0.02437876  0.21315139  0.19444499  1
  O  O123  1  0.51075142  0.20927185  0.19594134  1
  O  O124  1  0.09483533  0.96410566  0.18951398  1
  O  O125  1  0.58887931  0.95912596  0.19029451  1
  O  O126  1  0.43823046  0.35594092  0.64230000  1
  O  O127  1  0.94114559  0.36808058  0.64462805  1
  O  O128  1  0.24357035  0.11666079  0.64191974  1
  O  O129  1  0.74043027  0.10647412  0.64244807  1
  O  O130  1  0.32298771  0.52517195  0.63578061  1
  O  O131  1  0.81605995  0.50164774  0.63939681  1
  O  O132  1  0.44023470  0.51002450  0.14399893  1
  O  O133  1  0.93957602  0.52043972  0.14208259  1
  O  O134  1  0.32262444  0.12606321  0.13649219  1
  O  O135  1  0.82308366  0.12051660  0.13555103  1
  O  O136  1  0.24279696  0.37473628  0.14130700  1
  O  O137  1  0.74062977  0.36474350  0.14207091  1
  O  O138  1  0.22454558  0.29655530  0.02574124  1
  O  O139  1  0.72074330  0.29291534  0.02578499  1
  O  O140  1  0.42216154  0.53429386  0.02623439  1
  O  O141  1  0.92512676  0.54354645  0.02391684  1
  O  O142  1  0.34603972  0.14157704  0.02916317  1
  O  O143  1  0.84320887  0.13812891  0.02819922  1
  O  O144  1  0.22376973  0.14900354  0.52510577  1
  O  O145  1  0.72333598  0.15238778  0.52551972  1
  O  O146  1  0.34329355  0.54814720  0.52828263  1
  O  O147  1  0.84908207  0.54908078  0.52144763  1
  O  O148  1  0.42303700  0.30176720  0.52430589  1
  O  O149  1  0.92396903  0.31099393  0.52528497  1
  O  O150  1  0.26956774  0.70012565  0.97814528  1
  O  O151  1  0.77183560  0.70413798  0.97803480  1
  O  O152  1  0.07344560  0.44810619  0.96958721  1
  O  O153  1  0.57422950  0.45172182  0.97009631  1
  O  O154  1  0.14804419  0.84073478  0.97663938  1
  O  O155  1  0.64796110  0.83842350  0.97743822  1
  O  O156  1  0.27100237  0.83807045  0.47678404  1
  O  O157  1  0.76917247  0.84116420  0.47543675  1
  O  O158  1  0.14903071  0.46066322  0.47588821  1
  O  O159  1  0.64543777  0.45453561  0.47373258  1
  O  O160  1  0.07533122  0.69739969  0.46820836  1
  O  O161  1  0.57480003  0.69420142  0.46836994  1
  O  O162  1  0.06035615  0.63957536  0.36128159  1
  O  O163  1  0.55744824  0.63888279  0.36171210  1
  O  O164  1  0.24637744  0.87304962  0.36179368  1
  O  O165  1  0.75613992  0.88117534  0.35911043  1
  O  O166  1  0.18417829  0.49501170  0.35801782  1
  O  O167  1  0.67591458  0.48426553  0.35634336  1
  O  O168  1  0.05799913  0.47766567  0.86332309  1
  O  O169  1  0.55748973  0.48006448  0.86347884  1
  O  O170  1  0.17837251  0.86690365  0.85888416  1
  O  O171  1  0.68335288  0.86968527  0.86009415  1
  O  O172  1  0.25345951  0.63142950  0.86134788  1
  O  O173  1  0.74520490  0.62008615  0.86325014  1
  O  O174  1  0.01378892  0.82008174  0.41068888  1
  O  O175  1  0.51217482  0.82002910  0.41218193  1
  O  O176  1  0.40446262  0.97160575  0.41068049  1
  O  O177  1  0.90741080  0.97210723  0.41452301  1
  O  O178  1  0.08537610  0.18653386  0.41415815  1
  O  O179  1  0.58145125  0.18137340  0.41277526  1
  O  O180  1  0.01146526  0.20284871  0.91208864  1
  O  O181  1  0.51268037  0.20561793  0.91256870  1
  O  O182  1  0.08282556  0.98300193  0.91392653  1
  O  O183  1  0.58507178  0.98391756  0.91503433  1
  O  O184  1  0.40654825  0.84301206  0.91627872  1
  O  O185  1  0.90475821  0.83676774  0.91134204  1
  O  O186  1  0.48674295  0.15445467  0.58730143  1
  O  O187  1  0.99057611  0.16889698  0.58600338  1
  O  O188  1  0.09121297  0.01880309  0.59034131  1
  O  O189  1  0.58926488  0.02152995  0.58834941  1
  O  O190  1  0.40836642  0.80150239  0.58589916  1
  O  O191  1  0.91732671  0.82020327  0.58881932  1
  O  O192  1  0.48548210  0.81101987  0.08634428  1
  O  O193  1  0.98877084  0.82014977  0.08669713  1
  O  O194  1  0.41030500  0.02165414  0.08877968  1
  O  O195  1  0.90858883  0.01497213  0.08554339  1
  O  O196  1  0.08951784  0.15975410  0.08809160  1
  O  O197  1  0.58595560  0.16117256  0.09008816  1
  O  O198  1  0.34432962  0.16596374  0.74683869  1
  O  O199  1  0.84989300  0.18364982  0.74552599  1
  O  O200  1  0.24024231  0.32002833  0.74334252  1
  O  O201  1  0.74309013  0.30906642  0.74515014  1
  O  O202  1  0.41583011  0.52024204  0.74406427  1
  O  O203  1  0.92314886  0.53368995  0.74626815  1
  O  O204  1  0.35102551  0.52268729  0.24590729  1
  O  O205  1  0.84428333  0.52291024  0.24574030  1
  O  O206  1  0.42061806  0.30779529  0.24373394  1
  O  O207  1  0.91623307  0.31156654  0.24310007  1
  O  O208  1  0.24567979  0.17473401  0.24210239  1
  O  O209  1  0.74153081  0.16063355  0.24325683  1
  O  O210  1  0.32550246  0.50239715  0.92232310  1
  O  O211  1  0.82351839  0.49982580  0.92136268  1
  O  O212  1  0.43533334  0.35444897  0.92446419  1
  O  O213  1  0.93462851  0.35326395  0.92393179  1
  O  O214  1  0.25459650  0.14318008  0.92199977  1
  O  O215  1  0.75549739  0.14301868  0.92261395  1
  O  O216  1  0.32383665  0.14780560  0.42042185  1
  O  O217  1  0.82703568  0.15340251  0.42143688  1
  O  O218  1  0.25572499  0.36825680  0.42163112  1
  O  O219  1  0.75268192  0.36070842  0.41888891  1
  O  O220  1  0.43502501  0.51599683  0.42315440  1
  O  O221  1  0.93761468  0.51452375  0.42077868  1
  O  O222  1  0.17907129  0.51126374  0.07761251  1
  O  O223  1  0.67857052  0.51116047  0.07839698  1
  O  O224  1  0.08084823  0.66461904  0.07917753  1
  O  O225  1  0.57936191  0.66110456  0.08045810  1
  O  O226  1  0.25778303  0.87331449  0.08146141  1
  O  O227  1  0.75545349  0.86862396  0.08042947  1
  O  O228  1  0.18090747  0.84828458  0.57813727  1
  O  O229  1  0.67603770  0.84637412  0.57674583  1
  O  O230  1  0.25537191  0.64152758  0.58030069  1
  O  O231  1  0.75053421  0.64487647  0.58121082  1
  O  O232  1  0.08010627  0.50259376  0.58036076  1
  O  O233  1  0.57774299  0.49411920  0.57837780  1
  O  O234  1  0.15279401  0.82386355  0.25500429  1
  O  O235  1  0.65023035  0.82017392  0.25457219  1
  O  O236  1  0.25838068  0.67369638  0.25061014  1
  O  O237  1  0.75960626  0.68905542  0.25206975  1
  O  O238  1  0.08486280  0.48627996  0.25614212  1
  O  O239  1  0.57252522  0.46023684  0.25297113  1
  O  O240  1  0.14899384  0.47712204  0.75427350  1
  O  O241  1  0.65216950  0.48071046  0.75660251  1
  O  O242  1  0.07488039  0.68652326  0.75544567  1
  O  O243  1  0.58465166  0.68371579  0.75695779  1
  O  O244  1  0.25975329  0.82978905  0.75243557  1
  O  O245  1  0.75869335  0.84720950  0.75164637  1
