# generated using pymatgen
data_Cs2Ni3S4
_symmetry_space_group_name_H-M   'P 1'
_cell_length_a   5.84909551
_cell_length_b   5.84909378
_cell_length_c   15.21693818
_cell_angle_alpha   90.00000000
_cell_angle_beta   90.00000000
_cell_angle_gamma   119.99999812
_symmetry_Int_Tables_number   1
_chemical_formula_structural   Cs2Ni3S4
_chemical_formula_sum   'Cs4 Ni6 S8'
_cell_volume   450.85325916
_cell_formula_units_Z   2
loop_
 _symmetry_equiv_pos_site_id
 _symmetry_equiv_pos_as_xyz
  1  'x, y, z'
loop_
 _atom_site_type_symbol
 _atom_site_label
 _atom_site_symmetry_multiplicity
 _atom_site_fract_x
 _atom_site_fract_y
 _atom_site_fract_z
 _atom_site_occupancy
  Cs  Cs0  1  0.33333300  0.66666700  0.91085366  1
  Cs  Cs1  1  0.66666700  0.33333300  0.41085366  1
  Cs  Cs2  1  0.66666700  0.33333300  0.08914634  1
  Cs  Cs3  1  0.33333300  0.66666700  0.58914634  1
  Ni  Ni4  1  0.16643192  0.83356808  0.25000000  1
  Ni  Ni5  1  0.83356808  0.66713517  0.75000000  1
  Ni  Ni6  1  0.83356808  0.16643192  0.75000000  1
  Ni  Ni7  1  0.16643192  0.33286483  0.25000000  1
  Ni  Ni8  1  0.33286483  0.16643192  0.75000000  1
  Ni  Ni9  1  0.66713517  0.83356808  0.25000000  1
  S  S10  1  0.33333300  0.66666700  0.34328831  1
  S  S11  1  0.66666700  0.33333300  0.84328831  1
  S  S12  1  0.66666700  0.33333300  0.65671169  1
  S  S13  1  0.33333300  0.66666700  0.15671169  1
  S  S14  1  -0.00000000  0.00000000  0.65689312  1
  S  S15  1  -0.00000000  0.00000000  0.15689312  1
  S  S16  1  -0.00000000  0.00000000  0.84310688  1
  S  S17  1  -0.00000000  0.00000000  0.34310688  1
