# generated using pymatgen
data_KNiCl3
_symmetry_space_group_name_H-M   'P 1'
_cell_length_a   11.80821896
_cell_length_b   11.80821937
_cell_length_c   5.92176056
_cell_angle_alpha   89.99999449
_cell_angle_beta   90.00004025
_cell_angle_gamma   119.99955083
_symmetry_Int_Tables_number   1
_chemical_formula_structural   KNiCl3
_chemical_formula_sum   'K6 Ni6 Cl18'
_cell_volume   715.07608007
_cell_formula_units_Z   6
loop_
 _symmetry_equiv_pos_site_id
 _symmetry_equiv_pos_as_xyz
  1  'x, y, z'
loop_
 _atom_site_type_symbol
 _atom_site_label
 _atom_site_symmetry_multiplicity
 _atom_site_fract_x
 _atom_site_fract_y
 _atom_site_fract_z
 _atom_site_occupancy
  K  K0  1  0.33463586  0.33463467  0.33004374  1
  K  K1  1  0.99999775  0.33463515  0.83005151  1
  K  K2  1  0.33463628  0.00000144  0.83004305  1
  K  K3  1  0.66536371  0.99999845  0.33004394  1
  K  K4  1  0.00000011  0.66536535  0.33004145  1
  K  K5  1  0.66536387  0.66536519  0.83004497  1
  Ni  Ni6  1  1.00000128  0.99999927  0.00841335  1
  Ni  Ni7  1  0.00000050  -0.00000018  0.50841243  1
  Ni  Ni8  1  0.33333538  0.66666740  0.13147000  1
  Ni  Ni9  1  0.66666486  0.33333322  0.63146833  1
  Ni  Ni10  1  0.33333404  0.66666586  0.63146790  1
  Ni  Ni11  1  0.66666526  0.33333428  0.13146803  1
  Cl  Cl12  1  0.49366545  0.66748818  0.38311207  1
  Cl  Cl13  1  0.33251221  0.82617654  0.38311172  1
  Cl  Cl14  1  0.17382347  0.50633487  0.38311140  1
  Cl  Cl15  1  0.82617800  0.49366649  0.88311136  1
  Cl  Cl16  1  0.50633309  0.33251166  0.88311149  1
  Cl  Cl17  1  0.66748757  0.17382172  0.88311173  1
  Cl  Cl18  1  0.49366629  0.82617767  0.88311132  1
  Cl  Cl19  1  0.66748821  0.49366584  0.38311213  1
  Cl  Cl20  1  0.82617700  0.33251149  0.38311222  1
  Cl  Cl21  1  0.17382354  0.66748802  0.88311216  1
  Cl  Cl22  1  0.33251255  0.50633484  0.88311230  1
  Cl  Cl23  1  0.50633334  0.17382191  0.38311137  1
  Cl  Cl24  1  0.15994462  0.00000060  0.25548079  1
  Cl  Cl25  1  0.15994521  0.15994525  0.75547958  1
  Cl  Cl26  1  1.00000008  0.84005524  0.75547964  1
  Cl  Cl27  1  -0.00000003  0.15994386  0.25548118  1
  Cl  Cl28  1  0.84005586  0.84005507  0.25548020  1
  Cl  Cl29  1  0.84005564  0.00000065  0.75547962  1
