# generated using pymatgen
data_Na4Hf2In2Si3(SO8)3
_symmetry_space_group_name_H-M   'P 1'
_cell_length_a   9.07261846
_cell_length_b   9.06774942
_cell_length_c   23.13168139
_cell_angle_alpha   90.19779766
_cell_angle_beta   89.23361191
_cell_angle_gamma   119.88780305
_symmetry_Int_Tables_number   1
_chemical_formula_structural   Na4Hf2In2Si3(SO8)3
_chemical_formula_sum   'Na12 Hf6 In6 Si9 S9 O72'
_cell_volume   1649.74966095
_cell_formula_units_Z   3
loop_
 _symmetry_equiv_pos_site_id
 _symmetry_equiv_pos_as_xyz
  1  'x, y, z'
loop_
 _atom_site_type_symbol
 _atom_site_label
 _atom_site_symmetry_multiplicity
 _atom_site_fract_x
 _atom_site_fract_y
 _atom_site_fract_z
 _atom_site_occupancy
  Na  Na0  1  0.99069241  0.64499493  0.25444115  1
  Na  Na1  1  0.99194198  0.35057034  0.73797637  1
  Na  Na2  1  0.65884025  0.97822428  0.59207407  1
  Na  Na3  1  0.66865705  0.69636263  0.08010471  1
  Na  Na4  1  0.33709746  0.31029806  0.90079439  1
  Na  Na5  1  0.31745298  0.01806834  0.42238161  1
  Na  Na6  1  0.01195387  0.99327556  0.50325530  1
  Na  Na7  1  0.98405561  0.97528176  0.99400390  1
  Na  Na8  1  0.65286935  0.32169552  0.81899272  1
  Na  Na9  1  0.65777457  0.34755444  0.33104240  1
  Na  Na10  1  0.33050368  0.67925546  0.16963223  1
  Na  Na11  1  0.32428680  0.66878202  0.65824240  1
  Hf  Hf12  1  0.01167805  0.01444309  0.64692227  1
  Hf  Hf13  1  -0.00031716  0.98489633  0.15060297  1
  Hf  Hf14  1  0.67586143  0.34886069  0.98009560  1
  Hf  Hf15  1  0.67734520  0.33671595  0.48431163  1
  Hf  Hf16  1  0.33225304  0.67071487  0.31288136  1
  Hf  Hf17  1  0.35209199  0.67094143  0.80978061  1
  In  In18  1  0.00256030  0.98717490  0.34905284  1
  In  In19  1  0.98600346  0.99030811  0.84618248  1
  In  In20  1  0.64954931  0.31737117  0.68314793  1
  In  In21  1  0.66924973  0.33673681  0.18678255  1
  In  In22  1  0.33378182  0.67605139  0.01667634  1
  In  In23  1  0.30519038  0.65609022  0.51929023  1
  Si  Si24  1  0.30272088  0.00481000  0.25222433  1
  Si  Si25  1  0.69752107  0.70274313  0.24901596  1
  Si  Si26  1  0.29493222  0.28942685  0.75469626  1
  Si  Si27  1  0.70871355  0.00342077  0.74823540  1
  Si  Si28  1  0.96208320  0.33434111  0.58814658  1
  Si  Si29  1  0.36937210  0.03519237  0.57899852  1
  Si  Si30  1  0.96853191  0.62739615  0.08549461  1
  Si  Si31  1  0.63137316  0.67550769  0.92005990  1
  Si  Si32  1  0.02972339  0.66355542  0.41438278  1
  S  S33  1  0.00599883  0.29086604  0.25086244  1
  S  S34  1  0.00383317  0.70465837  0.75131948  1
  S  S35  1  0.66942036  0.62878257  0.58341106  1
  S  S36  1  0.67273295  0.04459273  0.08292503  1
  S  S37  1  0.36917151  0.32847464  0.08190926  1
  S  S38  1  0.03804750  0.37409157  0.91760089  1
  S  S39  1  0.33490901  0.96588942  0.91748099  1
  S  S40  1  0.62683137  0.95998399  0.41664901  1
  S  S41  1  0.33429454  0.37558997  0.41629403  1
  O  O42  1  0.23456198  0.04121653  0.31264511  1
  O  O43  1  0.82260291  0.79339482  0.30226005  1
  O  O44  1  0.98519633  0.19329578  0.30366545  1
  O  O45  1  0.22094032  0.18684021  0.81567224  1
  O  O46  1  0.98080112  0.77564846  0.80645331  1
  O  O47  1  0.82034567  0.03807232  0.80643200  1
  O  O48  1  0.79424443  0.96864028  0.69065368  1
  O  O49  1  0.16588641  0.19275971  0.70064171  1
  O  O50  1  0.02750549  0.81415630  0.70057080  1
  O  O51  1  0.78622867  0.81803570  0.18806122  1
  O  O52  1  0.02251184  0.20464512  0.19758258  1
  O  O53  1  0.16688933  0.97140781  0.19830345  1
  O  O54  1  0.88432579  0.36588600  0.64710192  1
  O  O55  1  0.48989602  0.11950957  0.63361247  1
  O  O56  1  0.64266555  0.53016258  0.63623507  1
  O  O57  1  0.88510124  0.52120349  0.14381677  1
  O  O58  1  0.64961558  0.12132939  0.13533512  1
  O  O59  1  0.47547610  0.35224354  0.13213905  1
  O  O60  1  0.45023309  0.30381061  0.02813152  1
  O  O61  1  0.83505451  0.52738079  0.03041997  1
  O  O62  1  0.67879640  0.14288413  0.03001892  1
  O  O63  1  0.45543152  0.15169093  0.51878472  1
  O  O64  1  0.68812857  0.53852966  0.53101116  1
  O  O65  1  0.83697876  0.30969115  0.53226536  1
  O  O66  1  0.55166041  0.69393563  0.98182246  1
  O  O67  1  0.14159736  0.45821928  0.96949360  1
  O  O68  1  0.30838620  0.86762166  0.97142681  1
  O  O69  1  0.55708839  0.86030991  0.47002872  1
  O  O70  1  0.32540901  0.45918366  0.46974800  1
  O  O71  1  0.16422121  0.70938195  0.46575391  1
  O  O72  1  0.12126416  0.64049068  0.35413391  1
  O  O73  1  0.51319466  0.86689184  0.36594942  1
  O  O74  1  0.35139102  0.48146955  0.36415960  1
  O  O75  1  0.11196789  0.47776326  0.86483127  1
  O  O76  1  0.35009483  0.87640566  0.86622401  1
  O  O77  1  0.49537447  0.63805571  0.86759424  1
  O  O78  1  0.01768315  0.83966410  0.41464052  1
  O  O79  1  0.80195861  0.99607665  0.40708786  1
  O  O80  1  0.17814617  0.20565102  0.41282755  1
  O  O81  1  0.02715029  0.20571948  0.91483060  1
  O  O82  1  0.18897740  0.99701544  0.91402103  1
  O  O83  1  0.82346899  0.83168814  0.91341225  1
  O  O84  1  0.95911997  0.14885216  0.58927997  1
  O  O85  1  0.17781062  0.00977350  0.58787819  1
  O  O86  1  0.82827723  0.79718658  0.58612183  1
  O  O87  1  0.97116219  0.81471981  0.08732551  1
  O  O88  1  0.83248336  0.03490085  0.08429119  1
  O  O89  1  0.19736733  0.17802899  0.08735958  1
  O  O90  1  0.69456102  0.17554511  0.74651807  1
  O  O91  1  0.49060907  0.33544855  0.74659047  1
  O  O92  1  0.85514713  0.53281603  0.74583406  1
  O  O93  1  0.69377010  0.52116711  0.24572495  1
  O  O94  1  0.85913724  0.31921163  0.24643015  1
  O  O95  1  0.49396480  0.15624743  0.24116970  1
  O  O96  1  0.63179514  0.48832472  0.92524652  1
  O  O97  1  0.86242001  0.34978059  0.92558655  1
  O  O98  1  0.49455952  0.13611288  0.92241536  1
  O  O99  1  0.62506862  0.12604982  0.41950757  1
  O  O100  1  0.48677470  0.35232332  0.41712108  1
  O  O101  1  0.84246225  0.49120450  0.42208091  1
  O  O102  1  0.35902333  0.48618343  0.07688056  1
  O  O103  1  0.15824611  0.65522716  0.07742079  1
  O  O104  1  0.52597494  0.86682221  0.08013103  1
  O  O105  1  0.37107543  0.85548255  0.57592930  1
  O  O106  1  0.52420777  0.65748915  0.57486753  1
  O  O107  1  0.15785912  0.48570085  0.58253449  1
  O  O108  1  0.29698748  0.81786407  0.25511530  1
  O  O109  1  0.50945237  0.68148236  0.25554571  1
  O  O110  1  0.16448509  0.46267907  0.25340323  1
  O  O111  1  0.28865490  0.47148031  0.76043331  1
  O  O112  1  0.15994398  0.68802365  0.75680197  1
  O  O113  1  0.51756307  0.83190206  0.75628111  1
