# generated using pymatgen
data_Na14Mg5Ge3(PO4)12
_symmetry_space_group_name_H-M   'P 1'
_cell_length_a   17.68046744
_cell_length_b   8.84371456
_cell_length_c   21.68453638
_cell_angle_alpha   90.06066930
_cell_angle_beta   89.89322329
_cell_angle_gamma   119.92421392
_symmetry_Int_Tables_number   1
_chemical_formula_structural   Na14Mg5Ge3(PO4)12
_chemical_formula_sum   'Na42 Mg15 Ge9 P36 O144'
_cell_volume   2938.59425554
_cell_formula_units_Z   3
loop_
 _symmetry_equiv_pos_site_id
 _symmetry_equiv_pos_as_xyz
  1  'x, y, z'
loop_
 _atom_site_type_symbol
 _atom_site_label
 _atom_site_symmetry_multiplicity
 _atom_site_fract_x
 _atom_site_fract_y
 _atom_site_fract_z
 _atom_site_occupancy
  Na  Na0  1  0.18404382  0.36083584  0.24816358  1
  Na  Na1  1  0.68509986  0.36282404  0.24805193  1
  Na  Na2  1  0.99483507  0.63091580  0.24836978  1
  Na  Na3  1  0.49517670  0.63003944  0.24775762  1
  Na  Na4  1  0.31894285  0.63124035  0.74797489  1
  Na  Na5  1  0.81959451  0.63114601  0.74829227  1
  Na  Na6  1  0.18454218  0.01017606  0.74796050  1
  Na  Na7  1  0.68446133  0.01011474  0.74781015  1
  Na  Na8  1  0.15640476  0.34144884  0.58014524  1
  Na  Na9  1  0.65650303  0.34167169  0.58015536  1
  Na  Na10  1  0.01389179  0.68576742  0.58061544  1
  Na  Na11  1  0.51387558  0.68561771  0.58062450  1
  Na  Na12  1  0.32914888  0.97152451  0.57987869  1
  Na  Na13  1  0.82915769  0.97137846  0.58008326  1
  Na  Na14  1  0.15500182  0.96966685  0.08032411  1
  Na  Na15  1  0.65482782  0.96794816  0.08238508  1
  Na  Na16  1  0.32899056  0.68585040  0.08026936  1
  Na  Na17  1  0.01606856  0.34364472  0.08186941  1
  Na  Na18  1  0.51581267  0.34230391  0.07953862  1
  Na  Na19  1  0.48324399  0.66988768  0.91749959  1
  Na  Na20  1  0.98545173  0.67392408  0.91516406  1
  Na  Na21  1  0.35290385  0.03795026  0.91738078  1
  Na  Na22  1  0.16550923  0.29307869  0.91779340  1
  Na  Na23  1  0.66461445  0.29967181  0.91536857  1
  Na  Na24  1  0.48124693  0.29453623  0.41781775  1
  Na  Na25  1  0.98125403  0.29444397  0.41762547  1
  Na  Na26  1  0.16627717  0.03713735  0.41774372  1
  Na  Na27  1  0.66638485  0.03711093  0.41790974  1
  Na  Na28  1  0.35244016  0.66699126  0.41807511  1
  Na  Na29  1  0.85253905  0.66717109  0.41780721  1
  Na  Na30  1  0.99968969  0.00031256  0.49714448  1
  Na  Na31  1  0.49969296  0.00035109  0.49719504  1
  Na  Na32  1  0.98723239  0.99036871  0.99651666  1
  Na  Na33  1  0.49967389  0.00072807  0.99726931  1
  Na  Na34  1  0.34006284  0.33444521  0.83098524  1
  Na  Na35  1  0.84115173  0.32445588  0.82993460  1
  Na  Na36  1  0.33255339  0.31955428  0.33116027  1
  Na  Na37  1  0.83303618  0.32039593  0.33138477  1
  Na  Na38  1  0.17169114  0.67810603  0.16535390  1
  Na  Na39  1  0.67895250  0.68010562  0.16273653  1
  Na  Na40  1  0.16100146  0.65670188  0.66504517  1
  Na  Na41  1  0.66082662  0.65632541  0.66524588  1
  Mg  Mg42  1  0.99939652  0.00046935  0.35081247  1
  Mg  Mg43  1  0.49945019  0.00048143  0.35107406  1
  Mg  Mg44  1  0.99676153  0.00059255  0.85301905  1
  Mg  Mg45  1  0.50033384  0.00165408  0.85121310  1
  Mg  Mg46  1  0.33625165  0.33412392  0.68515013  1
  Mg  Mg47  1  0.83607407  0.33404152  0.68490240  1
  Mg  Mg48  1  0.33266721  0.32732668  0.18503930  1
  Mg  Mg49  1  0.83306028  0.32886585  0.18616132  1
  Mg  Mg50  1  0.33353533  0.33270730  0.98322191  1
  Mg  Mg51  1  0.33375349  0.33293574  0.48320725  1
  Mg  Mg52  1  0.83378796  0.33298965  0.48318923  1
  Mg  Mg53  1  0.16587025  0.66603423  0.01853851  1
  Mg  Mg54  1  0.67038199  0.66793751  0.01940634  1
  Mg  Mg55  1  0.16690445  0.66705052  0.51838953  1
  Mg  Mg56  1  0.66693051  0.66708103  0.51842158  1
  Ge  Ge57  1  0.99964396  0.00201595  0.65178430  1
  Ge  Ge58  1  0.50025029  0.00253505  0.65195945  1
  Ge  Ge59  1  0.99525275  0.99506269  0.14948385  1
  Ge  Ge60  1  0.49923633  0.99894794  0.15137177  1
  Ge  Ge61  1  0.83426962  0.32930738  0.98257396  1
  Ge  Ge62  1  0.16883278  0.67177727  0.31435955  1
  Ge  Ge63  1  0.66931697  0.67226908  0.31426553  1
  Ge  Ge64  1  0.16137252  0.65923477  0.81533092  1
  Ge  Ge65  1  0.66800371  0.66651581  0.81573980  1
  P  P66  1  0.14576502  0.99456191  0.25122728  1
  P  P67  1  0.64667001  0.99540787  0.25219076  1
  P  P68  1  0.35123109  0.71062845  0.25188472  1
  P  P69  1  0.85193770  0.71280831  0.25169207  1
  P  P70  1  0.00116923  0.29506492  0.25197541  1
  P  P71  1  0.50172347  0.29580175  0.25182754  1
  P  P72  1  0.14365273  0.29606321  0.75283241  1
  P  P73  1  0.64512505  0.29847137  0.75194501  1
  P  P74  1  0.00206967  0.70700942  0.75247270  1
  P  P75  1  0.50292257  0.70726315  0.75269582  1
  P  P76  1  0.35160052  0.99658265  0.75266661  1
  P  P77  1  0.85256832  0.99744898  0.75210037  1
  P  P78  1  0.48099069  0.32662333  0.58496110  1
  P  P79  1  0.98098810  0.32676034  0.58497039  1
  P  P80  1  0.18170331  0.03778346  0.58644671  1
  P  P81  1  0.68171321  0.03771966  0.58634344  1
  P  P82  1  0.33673198  0.63598159  0.58643206  1
  P  P83  1  0.83669257  0.63584466  0.58638509  1
  P  P84  1  0.48129461  0.63587985  0.08635752  1
  P  P85  1  0.97617254  0.63023750  0.08493692  1
  P  P86  1  0.33685716  0.03820737  0.08498191  1
  P  P87  1  0.83568344  0.04392885  0.08481821  1
  P  P88  1  0.18108378  0.32460561  0.08646583  1
  P  P89  1  0.68691066  0.33103714  0.08587304  1
  P  P90  1  0.31089240  0.66507104  0.91574578  1
  P  P91  1  0.81244611  0.66240627  0.91775179  1
  P  P92  1  0.01806400  0.37442338  0.91920590  1
  P  P93  1  0.52233517  0.37976281  0.91666361  1
  P  P94  1  0.16691148  0.95716877  0.91562787  1
  P  P95  1  0.67146874  0.96175542  0.91827272  1
  P  P96  1  0.31131029  0.95655811  0.41650474  1
  P  P97  1  0.81141104  0.95671081  0.41657119  1
  P  P98  1  0.16722957  0.37755428  0.41556505  1
  P  P99  1  0.66722017  0.37760203  0.41558569  1
  P  P100  1  0.02184498  0.66614623  0.41559506  1
  P  P101  1  0.52193570  0.66601994  0.41545114  1
  O  O102  1  0.10399863  0.02096664  0.30820905  1
  O  O103  1  0.60418082  0.02131866  0.30866050  1
  O  O104  1  0.40720515  0.79162070  0.30810857  1
  O  O105  1  0.90658486  0.78996491  0.30879838  1
  O  O106  1  0.49166208  0.19117828  0.30904989  1
  O  O107  1  0.99142106  0.19202405  0.30948540  1
  O  O108  1  0.10344757  0.18397182  0.80899517  1
  O  O109  1  0.60436890  0.18593575  0.80823660  1
  O  O110  1  0.48951013  0.79134253  0.80952280  1
  O  O111  1  0.99023250  0.79263650  0.80908179  1
  O  O112  1  0.40389756  0.01655495  0.80997604  1
  O  O113  1  0.90762510  0.01822036  0.80712091  1
  O  O114  1  0.39515933  0.95966275  0.69376579  1
  O  O115  1  0.89231205  0.95718734  0.69166154  1
  O  O116  1  0.08675579  0.21120499  0.69255473  1
  O  O117  1  0.58752182  0.21210274  0.69213974  1
  O  O118  1  0.02139805  0.83082517  0.69336690  1
  O  O119  1  0.52170626  0.83140055  0.69364405  1
  O  O120  1  0.39434248  0.82569232  0.19190385  1
  O  O121  1  0.89551476  0.83239654  0.19302434  1
  O  O122  1  0.01904733  0.20862147  0.19288341  1
  O  O123  1  0.52091962  0.20991948  0.19244856  1
  O  O124  1  0.08316028  0.95388807  0.19229109  1
  O  O125  1  0.58440403  0.95692724  0.19300408  1
  O  O126  1  0.43729230  0.35910834  0.63890290  1
  O  O127  1  0.93740206  0.35926361  0.63891071  1
  O  O128  1  0.23767784  0.12146509  0.64314073  1
  O  O129  1  0.73760054  0.12147605  0.64294357  1
  O  O130  1  0.32175060  0.52311860  0.64302831  1
  O  O131  1  0.82181927  0.52328434  0.64298177  1
  O  O132  1  0.43876820  0.52468875  0.14298685  1
  O  O133  1  0.93632540  0.51829770  0.14133097  1
  O  O134  1  0.32088134  0.12537263  0.13894490  1
  O  O135  1  0.82040324  0.12864376  0.13960695  1
  O  O136  1  0.23755214  0.35543564  0.14302767  1
  O  O137  1  0.73878430  0.35110360  0.14309060  1
  O  O138  1  0.21863623  0.28728162  0.02781358  1
  O  O139  1  0.72843035  0.29056104  0.02613501  1
  O  O140  1  0.42512645  0.56300475  0.02764758  1
  O  O141  1  0.91966668  0.54415089  0.02437679  1
  O  O142  1  0.35689781  0.14560383  0.02482235  1
  O  O143  1  0.85830986  0.16990164  0.02555740  1
  O  O144  1  0.21886410  0.15022040  0.52779891  1
  O  O145  1  0.71884145  0.15015163  0.52765044  1
  O  O146  1  0.35590640  0.56192327  0.52762901  1
  O  O147  1  0.85576005  0.56157319  0.52756908  1
  O  O148  1  0.42681532  0.28563293  0.52500313  1
  O  O149  1  0.92682113  0.28569875  0.52500270  1
  O  O150  1  0.26929434  0.69238918  0.97300051  1
  O  O151  1  0.76731927  0.68370023  0.97285372  1
  O  O152  1  0.07185428  0.45567881  0.97682786  1
  O  O153  1  0.57586620  0.45902084  0.97483048  1
  O  O154  1  0.15289086  0.84601150  0.97269887  1
  O  O155  1  0.65513948  0.84997805  0.97486414  1
  O  O156  1  0.27161181  0.84838280  0.47452088  1
  O  O157  1  0.77155709  0.84839844  0.47449837  1
  O  O158  1  0.15366483  0.46059022  0.47280378  1
  O  O159  1  0.65363445  0.46057918  0.47277479  1
  O  O160  1  0.07691036  0.69392750  0.47279838  1
  O  O161  1  0.57695572  0.69397973  0.47271899  1
  O  O162  1  0.06590299  0.63405770  0.35579657  1
  O  O163  1  0.56614937  0.63413705  0.35567365  1
  O  O164  1  0.24873457  0.86653601  0.35881841  1
  O  O165  1  0.74879953  0.86692125  0.35882013  1
  O  O166  1  0.18284050  0.49723747  0.35586038  1
  O  O167  1  0.68284779  0.49710098  0.35578538  1
  O  O168  1  0.05994365  0.50218027  0.86138337  1
  O  O169  1  0.56908277  0.50723028  0.85929292  1
  O  O170  1  0.18215057  0.86665823  0.85601478  1
  O  O171  1  0.68652962  0.87879708  0.85751172  1
  O  O172  1  0.24958699  0.63247503  0.85656857  1
  O  O173  1  0.75383819  0.62315165  0.85658018  1
  O  O174  1  0.01199026  0.82910492  0.41000184  1
  O  O175  1  0.51195421  0.82889496  0.40987924  1
  O  O176  1  0.40236826  0.97533006  0.40990642  1
  O  O177  1  0.90242244  0.97549842  0.40999950  1
  O  O178  1  0.08588512  0.19489778  0.41018335  1
  O  O179  1  0.58581701  0.19495186  0.41023031  1
  O  O180  1  0.00972929  0.19666162  0.91069845  1
  O  O181  1  0.51262183  0.19729470  0.90978418  1
  O  O182  1  0.08617362  0.97866032  0.90999481  1
  O  O183  1  0.59159219  0.98716997  0.91113233  1
  O  O184  1  0.40255711  0.82782009  0.91032583  1
  O  O185  1  0.90465446  0.81357384  0.91108033  1
  O  O186  1  0.48879012  0.15424792  0.59297016  1
  O  O187  1  0.98896328  0.15452167  0.59289160  1
  O  O188  1  0.08757927  0.02155868  0.59268207  1
  O  O189  1  0.58750960  0.02132504  0.59250936  1
  O  O190  1  0.42284225  0.82358911  0.59305648  1
  O  O191  1  0.92305578  0.82325653  0.59276126  1
  O  O192  1  0.48954915  0.82500055  0.09232755  1
  O  O193  1  0.98594682  0.81819209  0.08882930  1
  O  O194  1  0.42401591  0.02393775  0.09249740  1
  O  O195  1  0.92311524  0.03534877  0.08962895  1
  O  O196  1  0.08696119  0.15126842  0.09265637  1
  O  O197  1  0.59342228  0.15524229  0.08856534  1
  O  O198  1  0.33607520  0.14969894  0.74512542  1
  O  O199  1  0.83530880  0.14785665  0.74456558  1
  O  O200  1  0.23606846  0.32327072  0.74480135  1
  O  O201  1  0.73686894  0.32224412  0.74459817  1
  O  O202  1  0.42259476  0.52926693  0.74424669  1
  O  O203  1  0.92203764  0.52858849  0.74443743  1
  O  O204  1  0.33861908  0.52657181  0.24452601  1
  O  O205  1  0.83946988  0.52894822  0.24367672  1
  O  O206  1  0.42533669  0.32697783  0.24439559  1
  O  O207  1  0.92520046  0.32864171  0.24506170  1
  O  O208  1  0.23497583  0.15497824  0.24334905  1
  O  O209  1  0.73573530  0.15607213  0.24431404  1
  O  O210  1  0.31860099  0.49894234  0.91698341  1
  O  O211  1  0.81795861  0.48554809  0.92167274  1
  O  O212  1  0.43163124  0.36462037  0.91728135  1
  O  O213  1  0.92631231  0.36720484  0.92266483  1
  O  O214  1  0.25080822  0.13731345  0.91667972  1
  O  O215  1  0.75551819  0.15038786  0.92253872  1
  O  O216  1  0.31883882  0.13804903  0.41803649  1
  O  O217  1  0.81885395  0.13819531  0.41807750  1
  O  O218  1  0.25061119  0.36271672  0.41696185  1
  O  O219  1  0.75056783  0.36260909  0.41696590  1
  O  O220  1  0.43135550  0.49947082  0.41679498  1
  O  O221  1  0.93123938  0.49953616  0.41694173  1
  O  O222  1  0.16785004  0.48410356  0.08081041  1
  O  O223  1  0.66982343  0.48255471  0.07844690  1
  O  O224  1  0.06907824  0.65743240  0.07769075  1
  O  O225  1  0.57404362  0.66181179  0.08091447  1
  O  O226  1  0.25787939  0.85104074  0.08005617  1
  O  O227  1  0.75638950  0.86434944  0.07590012  1
  O  O228  1  0.16823589  0.85196506  0.58079140  1
  O  O229  1  0.66823516  0.85188701  0.58075133  1
  O  O230  1  0.25729718  0.66301386  0.58085453  1
  O  O231  1  0.75730993  0.66299092  0.58083660  1
  O  O232  1  0.07440171  0.48436061  0.57971510  1
  O  O233  1  0.57434992  0.48425164  0.57972614  1
  O  O234  1  0.15011066  0.81934135  0.25445661  1
  O  O235  1  0.65034955  0.81989999  0.25442453  1
  O  O236  1  0.25743140  0.69227993  0.25463498  1
  O  O237  1  0.75774211  0.69305447  0.25453218  1
  O  O238  1  0.08944649  0.48183487  0.25305030  1
  O  O239  1  0.58973265  0.48198396  0.25299053  1
  O  O240  1  0.15229936  0.48375571  0.75630939  1
  O  O241  1  0.65468040  0.48603805  0.75515261  1
  O  O242  1  0.08992104  0.69861163  0.75489701  1
  O  O243  1  0.59126816  0.70202951  0.75579293  1
  O  O244  1  0.25859297  0.82076850  0.75360100  1
  O  O245  1  0.75878772  0.82001099  0.75517691  1
