# generated using pymatgen
data_Na4Ti2(SiO4)3
_symmetry_space_group_name_H-M   'P 1'
_cell_length_a   8.99969584
_cell_length_b   8.99969553
_cell_length_c   21.86092223
_cell_angle_alpha   90.00000000
_cell_angle_beta   90.00000000
_cell_angle_gamma   120.00000113
_symmetry_Int_Tables_number   1
_chemical_formula_structural   Na4Ti2(SiO4)3
_chemical_formula_sum   'Na24 Ti12 Si18 O72'
_cell_volume   1533.39751521
_cell_formula_units_Z   6
loop_
 _symmetry_equiv_pos_site_id
 _symmetry_equiv_pos_as_xyz
  1  'x, y, z'
loop_
 _atom_site_type_symbol
 _atom_site_label
 _atom_site_symmetry_multiplicity
 _atom_site_fract_x
 _atom_site_fract_y
 _atom_site_fract_z
 _atom_site_occupancy
  Na  Na0  1  0.62766514  0.00000000  0.25000000  1
  Na  Na1  1  0.37233486  0.37233486  0.25000000  1
  Na  Na2  1  1.00000000  0.62766514  0.25000000  1
  Na  Na3  1  0.62766514  0.62766514  0.75000000  1
  Na  Na4  1  0.00000000  0.37233486  0.75000000  1
  Na  Na5  1  0.37233486  0.00000000  0.75000000  1
  Na  Na6  1  0.29433214  0.33333300  0.58333300  1
  Na  Na7  1  0.03900186  0.70566786  0.58333300  1
  Na  Na8  1  0.66666700  0.96099814  0.58333300  1
  Na  Na9  1  0.29433214  0.96099814  0.08333300  1
  Na  Na10  1  0.66666700  0.70566786  0.08333300  1
  Na  Na11  1  0.03900186  0.33333300  0.08333300  1
  Na  Na12  1  0.96099814  0.66666700  0.91666700  1
  Na  Na13  1  0.70566786  0.03900186  0.91666700  1
  Na  Na14  1  0.33333300  0.29433214  0.91666700  1
  Na  Na15  1  0.96099814  0.29433214  0.41666700  1
  Na  Na16  1  0.33333300  0.03900186  0.41666700  1
  Na  Na17  1  0.70566786  0.66666700  0.41666700  1
  Na  Na18  1  -0.00000000  0.00000000  0.50000000  1
  Na  Na19  1  -0.00000000  0.00000000  0.00000000  1
  Na  Na20  1  0.66666700  0.33333300  0.83333300  1
  Na  Na21  1  0.66666700  0.33333300  0.33333300  1
  Na  Na22  1  0.33333300  0.66666700  0.16666700  1
  Na  Na23  1  0.33333300  0.66666700  0.66666700  1
  Ti  Ti24  1  -0.00000000  0.00000000  0.35348722  1
  Ti  Ti25  1  -0.00000000  0.00000000  0.85348722  1
  Ti  Ti26  1  -0.00000000  0.00000000  0.64651278  1
  Ti  Ti27  1  -0.00000000  0.00000000  0.14651278  1
  Ti  Ti28  1  0.66666700  0.33333300  0.68682022  1
  Ti  Ti29  1  0.66666700  0.33333300  0.18682022  1
  Ti  Ti30  1  0.66666700  0.33333300  0.97984578  1
  Ti  Ti31  1  0.66666700  0.33333300  0.47984578  1
  Ti  Ti32  1  0.33333300  0.66666700  0.02015422  1
  Ti  Ti33  1  0.33333300  0.66666700  0.52015422  1
  Ti  Ti34  1  0.33333300  0.66666700  0.31317978  1
  Ti  Ti35  1  0.33333300  0.66666700  0.81317978  1
  Si  Si36  1  0.28897410  0.00000000  0.25000000  1
  Si  Si37  1  0.71102590  0.71102590  0.25000000  1
  Si  Si38  1  0.00000000  0.28897410  0.25000000  1
  Si  Si39  1  0.28897410  0.28897410  0.75000000  1
  Si  Si40  1  1.00000000  0.71102590  0.75000000  1
  Si  Si41  1  0.71102590  0.00000000  0.75000000  1
  Si  Si42  1  0.95564110  0.33333300  0.58333300  1
  Si  Si43  1  0.37769290  0.04435890  0.58333300  1
  Si  Si44  1  0.66666700  0.62230710  0.58333300  1
  Si  Si45  1  0.95564110  0.62230710  0.08333300  1
  Si  Si46  1  0.66666700  0.04435890  0.08333300  1
  Si  Si47  1  0.37769290  0.33333300  0.08333300  1
  Si  Si48  1  0.62230710  0.66666700  0.91666700  1
  Si  Si49  1  0.04435890  0.37769290  0.91666700  1
  Si  Si50  1  0.33333300  0.95564110  0.91666700  1
  Si  Si51  1  0.62230710  0.95564110  0.41666700  1
  Si  Si52  1  0.33333300  0.37769290  0.41666700  1
  Si  Si53  1  0.04435890  0.66666700  0.41666700  1
  O  O54  1  0.19615594  0.02905383  0.31011997  1
  O  O55  1  0.83289789  0.80384406  0.31011997  1
  O  O56  1  0.97094617  0.16710211  0.31011997  1
  O  O57  1  0.19615594  0.16710211  0.81011997  1
  O  O58  1  0.97094617  0.80384406  0.81011997  1
  O  O59  1  0.83289789  0.02905383  0.81011997  1
  O  O60  1  0.80384406  0.97094617  0.68988003  1
  O  O61  1  0.16710211  0.19615594  0.68988003  1
  O  O62  1  0.02905383  0.83289789  0.68988003  1
  O  O63  1  0.80384406  0.83289789  0.18988003  1
  O  O64  1  0.02905383  0.19615594  0.18988003  1
  O  O65  1  0.16710211  0.97094617  0.18988003  1
  O  O66  1  0.86282294  0.36238683  0.64345297  1
  O  O67  1  0.49956489  0.13717706  0.64345297  1
  O  O68  1  0.63761317  0.50043511  0.64345297  1
  O  O69  1  0.86282294  0.50043511  0.14345297  1
  O  O70  1  0.63761317  0.13717706  0.14345297  1
  O  O71  1  0.49956489  0.36238683  0.14345297  1
  O  O72  1  0.47051106  0.30427917  0.02321303  1
  O  O73  1  0.83376911  0.52948894  0.02321303  1
  O  O74  1  0.69572083  0.16623089  0.02321303  1
  O  O75  1  0.47051106  0.16623089  0.52321303  1
  O  O76  1  0.69572083  0.52948894  0.52321303  1
  O  O77  1  0.83376911  0.30427917  0.52321303  1
  O  O78  1  0.52948894  0.69572083  0.97678697  1
  O  O79  1  0.16623089  0.47051106  0.97678697  1
  O  O80  1  0.30427917  0.83376911  0.97678697  1
  O  O81  1  0.52948894  0.83376911  0.47678697  1
  O  O82  1  0.30427917  0.47051106  0.47678697  1
  O  O83  1  0.16623089  0.69572083  0.47678697  1
  O  O84  1  0.13717706  0.63761317  0.35654703  1
  O  O85  1  0.50043511  0.86282294  0.35654703  1
  O  O86  1  0.36238683  0.49956489  0.35654703  1
  O  O87  1  0.13717706  0.49956489  0.85654703  1
  O  O88  1  0.36238683  0.86282294  0.85654703  1
  O  O89  1  0.50043511  0.63761317  0.85654703  1
  O  O90  1  0.02683445  0.83862259  0.41315270  1
  O  O91  1  0.81178814  0.97316555  0.41315270  1
  O  O92  1  0.16137741  0.18821186  0.41315270  1
  O  O93  1  0.02683445  0.18821186  0.91315270  1
  O  O94  1  0.16137741  0.97316555  0.91315270  1
  O  O95  1  0.81178814  0.83862259  0.91315270  1
  O  O96  1  0.97316555  0.16137741  0.58684730  1
  O  O97  1  0.18821186  0.02683445  0.58684730  1
  O  O98  1  0.83862259  0.81178814  0.58684730  1
  O  O99  1  0.97316555  0.81178814  0.08684730  1
  O  O100  1  0.83862259  0.02683445  0.08684730  1
  O  O101  1  0.18821186  0.16137741  0.08684730  1
  O  O102  1  0.69350145  0.17195559  0.74648570  1
  O  O103  1  0.47845514  0.30649855  0.74648570  1
  O  O104  1  0.82804441  0.52154486  0.74648570  1
  O  O105  1  0.69350145  0.52154486  0.24648570  1
  O  O106  1  0.82804441  0.30649855  0.24648570  1
  O  O107  1  0.47845514  0.17195559  0.24648570  1
  O  O108  1  0.63983255  0.49471041  0.92018030  1
  O  O109  1  0.85487886  0.36016745  0.92018030  1
  O  O110  1  0.50528959  0.14512114  0.92018030  1
  O  O111  1  0.63983255  0.14512114  0.42018030  1
  O  O112  1  0.50528959  0.36016745  0.42018030  1
  O  O113  1  0.85487886  0.49471041  0.42018030  1
  O  O114  1  0.36016745  0.50528959  0.07981970  1
  O  O115  1  0.14512114  0.63983255  0.07981970  1
  O  O116  1  0.49471041  0.85487886  0.07981970  1
  O  O117  1  0.36016745  0.85487886  0.57981970  1
  O  O118  1  0.49471041  0.63983255  0.57981970  1
  O  O119  1  0.14512114  0.50528959  0.57981970  1
  O  O120  1  0.30649855  0.82804441  0.25351430  1
  O  O121  1  0.52154486  0.69350145  0.25351430  1
  O  O122  1  0.17195559  0.47845514  0.25351430  1
  O  O123  1  0.30649855  0.47845514  0.75351430  1
  O  O124  1  0.17195559  0.69350145  0.75351430  1
  O  O125  1  0.52154486  0.82804441  0.75351430  1
