# generated using pymatgen
data_MgSbS2NF6
_symmetry_space_group_name_H-M   'P 1'
_cell_length_a   6.58742776
_cell_length_b   6.23974500
_cell_length_c   6.23974476
_cell_angle_alpha   75.56479163
_cell_angle_beta   86.44185257
_cell_angle_gamma   86.44185649
_symmetry_Int_Tables_number   1
_chemical_formula_structural   MgSbS2NF6
_chemical_formula_sum   'Mg1 Sb1 S2 N1 F6'
_cell_volume   247.61373780
_cell_formula_units_Z   1
loop_
 _symmetry_equiv_pos_site_id
 _symmetry_equiv_pos_as_xyz
  1  'x, y, z'
loop_
 _atom_site_type_symbol
 _atom_site_label
 _atom_site_symmetry_multiplicity
 _atom_site_fract_x
 _atom_site_fract_y
 _atom_site_fract_z
 _atom_site_occupancy
  Mg  Mg0  1  0.50000000  0.07281519  0.92718481  1
  Sb  Sb1  1  0.00000000  0.00032167  -0.00032167  1
  S  S2  1  0.39346708  0.71382689  0.56743869  1
  S  S3  1  0.60653292  0.43256131  0.28617311  1
  N  N4  1  0.50000000  0.56365635  0.43634365  1
  F  F5  1  0.28075429  0.04997052  0.14643113  1
  F  F6  1  0.71924571  0.85356887  0.95002948  1
  F  F7  1  0.66647054  0.29895965  0.94650928  1
  F  F8  1  0.33352946  0.05349072  0.70104035  1
  F  F9  1  0.11336772  0.69644577  0.04811694  1
  F  F10  1  0.88663228  0.95188306  0.30355423  1
