# generated using pymatgen
data_NaGa2P(SO6)2
_symmetry_space_group_name_H-M   'P 1'
_cell_length_a   8.48328136
_cell_length_b   8.48363620
_cell_length_c   22.17029472
_cell_angle_alpha   89.99768803
_cell_angle_beta   90.00000000
_cell_angle_gamma   119.99861642
_symmetry_Int_Tables_number   1
_chemical_formula_structural   NaGa2P(SO6)2
_chemical_formula_sum   'Na6 Ga12 P6 S12 O72'
_cell_volume   1381.82822708
_cell_formula_units_Z   6
loop_
 _symmetry_equiv_pos_site_id
 _symmetry_equiv_pos_as_xyz
  1  'x, y, z'
loop_
 _atom_site_type_symbol
 _atom_site_label
 _atom_site_symmetry_multiplicity
 _atom_site_fract_x
 _atom_site_fract_y
 _atom_site_fract_z
 _atom_site_occupancy
  Na  Na0  1  0.99364032  0.99583819  0.49996959  1
  Na  Na1  1  0.00219786  0.99583819  0.99996959  1
  Na  Na2  1  0.66420196  0.32694801  0.83333888  1
  Na  Na3  1  0.66274706  0.32694801  0.33333888  1
  Na  Na4  1  0.32889641  0.66876516  0.16668683  1
  Na  Na5  1  0.33986775  0.66876516  0.66668683  1
  Ga  Ga6  1  0.00054649  0.00138269  0.35149562  1
  Ga  Ga7  1  0.00083621  0.00138269  0.85149562  1
  Ga  Ga8  1  0.98437600  0.98943752  0.64817812  1
  Ga  Ga9  1  0.00506152  0.98943752  0.14817812  1
  Ga  Ga10  1  0.66577007  0.33215510  0.68495690  1
  Ga  Ga11  1  0.66638603  0.33215510  0.18495690  1
  Ga  Ga12  1  0.66591294  0.33318123  0.98176031  1
  Ga  Ga13  1  0.66726929  0.33318123  0.48176031  1
  Ga  Ga14  1  0.32206393  0.67178082  0.01833898  1
  Ga  Ga15  1  0.34971589  0.67178082  0.51833898  1
  Ga  Ga16  1  0.33822725  0.68259257  0.31510881  1
  Ga  Ga17  1  0.34436432  0.68259257  0.81510881  1
  P  P18  1  0.29138887  0.00222409  0.25054080  1
  P  P19  1  0.71083521  0.00222409  0.75054080  1
  P  P20  1  0.66671366  0.61974515  0.58334068  1
  P  P21  1  0.95303250  0.61974515  0.08334068  1
  P  P22  1  0.33329623  0.96086378  0.91667745  1
  P  P23  1  0.62756655  0.96086378  0.41667745  1
  S  S24  1  0.70911244  0.70932290  0.25003030  1
  S  S25  1  0.00146365  0.29042698  0.24965187  1
  S  S26  1  0.28896333  0.29042698  0.74965187  1
  S  S27  1  0.00021047  0.70932290  0.75003030  1
  S  S28  1  0.95938760  0.33515594  0.58306833  1
  S  S29  1  0.37400896  0.04244642  0.58361059  1
  S  S30  1  0.66843846  0.04244642  0.08361059  1
  S  S31  1  0.37576934  0.33515594  0.08306833  1
  S  S32  1  0.62181261  0.66622362  0.91727878  1
  S  S33  1  0.04489488  0.37774730  0.91604263  1
  S  S34  1  0.33285142  0.37774730  0.41604263  1
  S  S35  1  0.04441001  0.66622362  0.41727878  1
  O  O36  1  0.20745745  0.03611805  0.30718301  1
  O  O37  1  0.82078763  0.78728596  0.30465007  1
  O  O38  1  0.96560008  0.17843293  0.30454817  1
  O  O39  1  0.21283285  0.17843293  0.80454817  1
  O  O40  1  0.96649833  0.78728596  0.80465007  1
  O  O41  1  0.82866061  0.03611805  0.80718301  1
  O  O42  1  0.79126205  0.96563273  0.69359981  1
  O  O43  1  0.17815840  0.21021976  0.69481947  1
  O  O44  1  0.03736045  0.82271067  0.69547451  1
  O  O45  1  0.78535022  0.82271067  0.19547451  1
  O  O46  1  0.03206136  0.21021976  0.19481947  1
  O  O47  1  0.17437067  0.96563273  0.19359981  1
  O  O48  1  0.88094480  0.36768497  0.63790559  1
  O  O49  1  0.48769665  0.11902291  0.63799725  1
  O  O50  1  0.63234707  0.50334310  0.64039627  1
  O  O51  1  0.87099703  0.50334310  0.14039627  1
  O  O52  1  0.63132726  0.11902291  0.13799725  1
  O  O53  1  0.48674117  0.36768497  0.13790559  1
  O  O54  1  0.45239709  0.29806480  0.02869773  1
  O  O55  1  0.83667745  0.53773969  0.02623694  1
  O  O56  1  0.70107740  0.15340408  0.02877116  1
  O  O57  1  0.45232769  0.15340408  0.52877116  1
  O  O58  1  0.70106324  0.53773969  0.52623694  1
  O  O59  1  0.84566871  0.29806480  0.52869773  1
  O  O60  1  0.54205472  0.69791274  0.97190808  1
  O  O61  1  0.15666738  0.45347646  0.97109413  1
  O  O62  1  0.29717101  0.84226583  0.97321378  1
  O  O63  1  0.54509382  0.84226583  0.47321378  1
  O  O64  1  0.29680809  0.45347646  0.47109413  1
  O  O65  1  0.15585702  0.69791274  0.47190808  1
  O  O66  1  0.12014951  0.63015776  0.36220655  1
  O  O67  1  0.50901408  0.87846487  0.36020333  1
  O  O68  1  0.36460020  0.48923032  0.36138247  1
  O  O69  1  0.12462912  0.48923032  0.86138247  1
  O  O70  1  0.36944979  0.87846487  0.86020333  1
  O  O71  1  0.51000726  0.63015776  0.86220655  1
  O  O72  1  0.02640902  0.83047887  0.41052151  1
  O  O73  1  0.81658415  0.97809247  0.40854126  1
  O  O74  1  0.16958084  0.19463302  0.41035121  1
  O  O75  1  0.02505218  0.19463302  0.91035121  1
  O  O76  1  0.16150832  0.97809247  0.90854126  1
  O  O77  1  0.80406985  0.83047887  0.91052151  1
  O  O78  1  0.97986553  0.17220574  0.58976772  1
  O  O79  1  0.19330493  0.02670436  0.59098127  1
  O  O80  1  0.83803897  0.81069012  0.58942117  1
  O  O81  1  0.97265115  0.81069012  0.08942117  1
  O  O82  1  0.83339943  0.02670436  0.09098127  1
  O  O83  1  0.19234021  0.17220574  0.08976772  1
  O  O84  1  0.69063298  0.17244184  0.74230876  1
  O  O85  1  0.47200161  0.30932524  0.74367707  1
  O  O86  1  0.83560282  0.52784760  0.74349400  1
  O  O87  1  0.69224578  0.52784760  0.24349400  1
  O  O88  1  0.83732463  0.30932524  0.24367707  1
  O  O89  1  0.48180986  0.17244184  0.24230876  1
  O  O90  1  0.64165198  0.50297738  0.92299215  1
  O  O91  1  0.86268721  0.35971198  0.92271687  1
  O  O92  1  0.50524854  0.14993035  0.92486148  1
  O  O93  1  0.64468281  0.14993035  0.42486148  1
  O  O94  1  0.49702578  0.35971198  0.42271687  1
  O  O95  1  0.86132639  0.50297738  0.42299215  1
  O  O96  1  0.36002184  0.50008532  0.07571897  1
  O  O97  1  0.14404390  0.63933883  0.07725845  1
  O  O98  1  0.50553665  0.85902402  0.07683994  1
  O  O99  1  0.35348638  0.85902402  0.57683994  1
  O  O100  1  0.49529393  0.63933883  0.57725845  1
  O  O101  1  0.14006247  0.50008532  0.57571897  1
  O  O102  1  0.30807519  0.82925100  0.25652947  1
  O  O103  1  0.52556846  0.68792667  0.25651761  1
  O  O104  1  0.16595613  0.47193008  0.25713730  1
  O  O105  1  0.30597295  0.47193008  0.75713730  1
  O  O106  1  0.16235721  0.68792667  0.75651761  1
  O  O107  1  0.52117482  0.82925100  0.75652947  1
