# generated using pymatgen
data_MgMnV4O12
_symmetry_space_group_name_H-M   'P 1'
_cell_length_a   5.45138900
_cell_length_b   10.61586287
_cell_length_c   9.50248122
_cell_angle_alpha   28.44076551
_cell_angle_beta   50.52283269
_cell_angle_gamma   56.11266023
_symmetry_Int_Tables_number   1
_chemical_formula_structural   MgMnV4O12
_chemical_formula_sum   'Mg1 Mn1 V4 O12'
_cell_volume   202.15272189
_cell_formula_units_Z   1
loop_
 _symmetry_equiv_pos_site_id
 _symmetry_equiv_pos_as_xyz
  1  'x, y, z'
loop_
 _atom_site_type_symbol
 _atom_site_label
 _atom_site_symmetry_multiplicity
 _atom_site_fract_x
 _atom_site_fract_y
 _atom_site_fract_z
 _atom_site_occupancy
  Mg  Mg0  1  0.18694800  0.48645100  0.20647000  1
  Mn  Mn1  1  0.29583200  0.01533500  0.27846100  1
  V  V2  1  0.04711100  0.01654000  0.95623800  1
  V  V3  1  0.94306600  0.49607100  0.02030800  1
  V  V4  1  0.52371600  0.98161100  0.49717600  1
  V  V5  1  0.48737400  0.50943700  0.50116600  1
  O  O6  1  0.31744200  0.28527700  0.15006100  1
  O  O7  1  0.25139700  0.11069700  0.61339800  1
  O  O8  1  0.13763300  0.30832000  0.71809000  1
  O  O9  1  0.89059100  0.17719900  0.23025400  1
  O  O10  1  0.31582500  0.80637200  0.12954900  1
  O  O11  1  0.73185900  0.39560200  0.33956500  1
  O  O12  1  0.23074600  0.65363800  0.57902900  1
  O  O13  1  0.59548900  0.21439000  0.83236100  1
  O  O14  1  0.13706400  0.76757400  0.76972000  1
  O  O15  1  0.83739700  0.69315300  0.22591000  1
  O  O16  1  0.70080000  0.91499300  0.31618500  1
  O  O17  1  0.61651100  0.66734000  0.87591100  1
