# generated using pymatgen
data_NaIn2P(SO6)2
_symmetry_space_group_name_H-M   'P 1'
_cell_length_a   8.85767981
_cell_length_b   8.85962160
_cell_length_c   23.42307489
_cell_angle_alpha   89.97339174
_cell_angle_beta   90.00000000
_cell_angle_gamma   119.99275012
_symmetry_Int_Tables_number   1
_chemical_formula_structural   NaIn2P(SO6)2
_chemical_formula_sum   'Na6 In12 P6 S12 O72'
_cell_volume   1591.99371630
_cell_formula_units_Z   6
loop_
 _symmetry_equiv_pos_site_id
 _symmetry_equiv_pos_as_xyz
  1  'x, y, z'
loop_
 _atom_site_type_symbol
 _atom_site_label
 _atom_site_symmetry_multiplicity
 _atom_site_fract_x
 _atom_site_fract_y
 _atom_site_fract_z
 _atom_site_occupancy
  Na  Na0  1  0.97825775  0.98603054  0.49978650  1
  Na  Na1  1  0.00777279  0.98603054  0.99978650  1
  Na  Na2  1  0.65821815  0.31192701  0.83337366  1
  Na  Na3  1  0.65370987  0.31192701  0.33337366  1
  Na  Na4  1  0.31842517  0.67362973  0.16687473  1
  Na  Na5  1  0.35520356  0.67362973  0.66687473  1
  In  In6  1  0.00202455  0.99990833  0.35005558  1
  In  In7  1  0.99788379  0.99990833  0.85005558  1
  In  In8  1  0.98638148  0.99062717  0.64925577  1
  In  In9  1  0.00424569  0.99062717  0.14925577  1
  In  In10  1  0.66705299  0.33066032  0.68368244  1
  In  In11  1  0.66360834  0.33066032  0.18368244  1
  In  In12  1  0.66602088  0.33098523  0.98317327  1
  In  In13  1  0.66496535  0.33098523  0.48317327  1
  In  In14  1  0.32224009  0.67362089  0.01704971  1
  In  In15  1  0.35137981  0.67362089  0.51704971  1
  In  In16  1  0.33942912  0.68239588  0.31668309  1
  In  In17  1  0.34296576  0.68239588  0.81668309  1
  P  P18  1  0.29921947  0.00302145  0.25022513  1
  P  P19  1  0.70380198  0.00302145  0.75022513  1
  P  P20  1  0.66692093  0.62445025  0.58341309  1
  P  P21  1  0.95753032  0.62445025  0.08341309  1
  P  P22  1  0.33268421  0.97076934  0.91667219  1
  P  P23  1  0.63808413  0.97076934  0.41667219  1
  S  S24  1  0.70052283  0.70133414  0.25009842  1
  S  S25  1  0.00235384  0.29762058  0.24959555  1
  S  S26  1  0.29526675  0.29762058  0.74959555  1
  S  S27  1  0.00081131  0.70133414  0.75009842  1
  S  S28  1  0.96945586  0.33635969  0.58262986  1
  S  S29  1  0.36424901  0.03340962  0.58399911  1
  S  S30  1  0.66916161  0.03340962  0.08399911  1
  S  S31  1  0.36690483  0.33635969  0.08262986  1
  S  S32  1  0.62691525  0.66527995  0.91776424  1
  S  S33  1  0.03958636  0.37177735  0.91560622  1
  S  S34  1  0.33218999  0.37177735  0.41560622  1
  S  S35  1  0.03836370  0.66527995  0.41776424  1
  O  O36  1  0.21595099  0.02708546  0.30477056  1
  O  O37  1  0.80311219  0.78273411  0.30217813  1
  O  O38  1  0.97572710  0.19250056  0.30160052  1
  O  O39  1  0.21677346  0.19250056  0.80160052  1
  O  O40  1  0.97962192  0.78273411  0.80217813  1
  O  O41  1  0.81113447  0.02708546  0.80477056  1
  O  O42  1  0.78589911  0.97974019  0.69562174  1
  O  O43  1  0.19275872  0.21386333  0.69761244  1
  O  O44  1  0.02996802  0.80836102  0.69844450  1
  O  O45  1  0.77839301  0.80836102  0.19844450  1
  O  O46  1  0.02110461  0.21386333  0.19761244  1
  O  O47  1  0.19384108  0.97974019  0.19562174  1
  O  O48  1  0.88958097  0.35812895  0.63503105  1
  O  O49  1  0.47231973  0.11146636  0.63539698  1
  O  O50  1  0.64677914  0.51869384  0.63787588  1
  O  O51  1  0.87191570  0.51869384  0.13787588  1
  O  O52  1  0.63914763  0.11146636  0.13539698  1
  O  O53  1  0.46854898  0.35812895  0.13503105  1
  O  O54  1  0.44569704  0.30644064  0.03137397  1
  O  O55  1  0.85283174  0.53935679  0.02869415  1
  O  O56  1  0.69189329  0.13522002  0.03161793  1
  O  O57  1  0.44332773  0.13522002  0.53161793  1
  O  O58  1  0.68652605  0.53935679  0.52869415  1
  O  O59  1  0.86074460  0.30644064  0.53137397  1
  O  O60  1  0.54159283  0.68356519  0.96937006  1
  O  O61  1  0.14340955  0.44956736  0.96782768  1
  O  O62  1  0.30523577  0.86311342  0.97130114  1
  O  O63  1  0.55787665  0.86311342  0.47130114  1
  O  O64  1  0.30615681  0.44956736  0.46782768  1
  O  O65  1  0.14197135  0.68356519  0.46937006  1
  O  O66  1  0.11568165  0.63917006  0.36535547  1
  O  O67  1  0.52916852  0.89043903  0.36241036  1
  O  O68  1  0.35000364  0.47483278  0.36383535  1
  O  O69  1  0.12482814  0.47483278  0.86383535  1
  O  O70  1  0.36126951  0.89043903  0.86241036  1
  O  O71  1  0.52348741  0.63917006  0.86535547  1
  O  O72  1  0.02473735  0.82594579  0.41381088  1
  O  O73  1  0.82168337  0.98921974  0.41128824  1
  O  O74  1  0.17724900  0.19413520  0.41206330  1
  O  O75  1  0.01688620  0.19413520  0.91206330  1
  O  O76  1  0.16753637  0.98921974  0.91128824  1
  O  O77  1  0.80120844  0.82594579  0.91381088  1
  O  O78  1  0.99463031  0.18260786  0.58704897  1
  O  O79  1  0.19171438  0.02202420  0.58980358  1
  O  O80  1  0.83275727  0.80862397  0.58589164  1
  O  O81  1  0.97586670  0.80862397  0.08589164  1
  O  O82  1  0.83030983  0.02202420  0.08980358  1
  O  O83  1  0.18797755  0.18260786  0.08704897  1
  O  O84  1  0.68434492  0.16810745  0.74601099  1
  O  O85  1  0.47344820  0.32049101  0.74573647  1
  O  O86  1  0.84050344  0.52820077  0.74556568  1
  O  O87  1  0.68769833  0.52820077  0.24556568  1
  O  O88  1  0.84704381  0.32049101  0.24573647  1
  O  O89  1  0.48376354  0.16810745  0.24601099  1
  O  O90  1  0.65028871  0.51082611  0.92147354  1
  O  O91  1  0.86525634  0.35773015  0.91927771  1
  O  O92  1  0.49873241  0.15408505  0.92199297  1
  O  O93  1  0.65535365  0.15408505  0.42199297  1
  O  O94  1  0.49247481  0.35773015  0.41927771  1
  O  O95  1  0.86053841  0.51082611  0.42147354  1
  O  O96  1  0.35524449  0.49733168  0.07683556  1
  O  O97  1  0.14188645  0.64283757  0.08093591  1
  O  O98  1  0.51570563  0.85466078  0.07936448  1
  O  O99  1  0.33895415  0.85466078  0.57936448  1
  O  O100  1  0.50095012  0.64283757  0.58093591  1
  O  O101  1  0.14208619  0.49733168  0.57683556  1
  O  O102  1  0.31603828  0.83667221  0.25360038  1
  O  O103  1  0.52206524  0.67666851  0.25450482  1
  O  O104  1  0.16281573  0.47174534  0.25453844  1
  O  O105  1  0.30892862  0.47174534  0.75453844  1
  O  O106  1  0.15460227  0.67666851  0.75450482  1
  O  O107  1  0.52063292  0.83667221  0.75360038  1
