# generated using pymatgen
data_Na6Sc4In4Si3(S3O16)3
_symmetry_space_group_name_H-M   'P 1'
_cell_length_a   17.91890179
_cell_length_b   8.92357761
_cell_length_c   23.24933095
_cell_angle_alpha   90.01846508
_cell_angle_beta   90.11448957
_cell_angle_gamma   119.84747221
_symmetry_Int_Tables_number   1
_chemical_formula_structural   Na6Sc4In4Si3(S3O16)3
_chemical_formula_sum   'Na18 Sc12 In12 Si9 S27 O144'
_cell_volume   3224.44940288
_cell_formula_units_Z   3
loop_
 _symmetry_equiv_pos_site_id
 _symmetry_equiv_pos_as_xyz
  1  'x, y, z'
loop_
 _atom_site_type_symbol
 _atom_site_label
 _atom_site_symmetry_multiplicity
 _atom_site_fract_x
 _atom_site_fract_y
 _atom_site_fract_z
 _atom_site_occupancy
  Na  Na0  1  0.00522253  0.64886979  0.25230608  1
  Na  Na1  1  0.50356569  0.36209720  0.74302816  1
  Na  Na2  1  0.16199462  0.30523619  0.91294619  1
  Na  Na3  1  0.66204063  0.30463389  0.91318001  1
  Na  Na4  1  0.16357641  0.02281632  0.41741420  1
  Na  Na5  1  0.66073453  0.01405657  0.41747200  1
  Na  Na6  1  0.99603634  0.98975672  0.49980119  1
  Na  Na7  1  0.49392998  0.99950367  0.50276316  1
  Na  Na8  1  0.99571012  0.00339111  0.99624551  1
  Na  Na9  1  0.49575913  0.00291199  0.99748532  1
  Na  Na10  1  0.33083348  0.33269330  0.82771642  1
  Na  Na11  1  0.83963459  0.33573907  0.82871888  1
  Na  Na12  1  0.34196446  0.34810087  0.33443068  1
  Na  Na13  1  0.83114719  0.32994426  0.33502400  1
  Na  Na14  1  0.17285559  0.67898623  0.16989769  1
  Na  Na15  1  0.66326617  0.67612264  0.17190533  1
  Na  Na16  1  0.16649265  0.65207127  0.67007651  1
  Na  Na17  1  0.66441209  0.65537373  0.66339552  1
  Sc  Sc18  1  0.00387410  0.99634456  0.35185735  1
  Sc  Sc19  1  0.50433218  0.99367173  0.35004476  1
  Sc  Sc20  1  0.00498300  0.01745750  0.84763791  1
  Sc  Sc21  1  0.50376248  0.01241839  0.84925552  1
  Sc  Sc22  1  0.32991113  0.33393129  0.68286733  1
  Sc  Sc23  1  0.82275174  0.31533885  0.18759343  1
  Sc  Sc24  1  0.34178627  0.33376853  0.97913605  1
  Sc  Sc25  1  0.84064157  0.33435990  0.98005768  1
  Sc  Sc26  1  0.34619916  0.34493904  0.48340459  1
  Sc  Sc27  1  0.84093565  0.34887580  0.48048623  1
  Sc  Sc28  1  0.16387614  0.67166678  0.31637107  1
  Sc  Sc29  1  0.66236777  0.65566195  0.81400379  1
  In  In30  1  0.00351395  0.00807736  0.65097357  1
  In  In31  1  0.50311726  0.01588082  0.64727363  1
  In  In32  1  0.00376188  0.00012577  0.15050773  1
  In  In33  1  0.50233100  0.99700231  0.15219763  1
  In  In34  1  0.83020703  0.33452365  0.68621627  1
  In  In35  1  0.33080523  0.32738625  0.18705686  1
  In  In36  1  0.16289702  0.65918327  0.01559258  1
  In  In37  1  0.66361322  0.65956395  0.01605005  1
  In  In38  1  0.16534977  0.66840569  0.51698191  1
  In  In39  1  0.65189319  0.65242131  0.51971719  1
  In  In40  1  0.65957832  0.67022279  0.31622118  1
  In  In41  1  0.15916922  0.64754749  0.81380154  1
  Si  Si42  1  0.14946893  0.00196174  0.25088415  1
  Si  Si43  1  0.64767683  0.99600324  0.25029226  1
  Si  Si44  1  0.15192172  0.29875994  0.74942416  1
  Si  Si45  1  0.65074439  0.29632156  0.75219016  1
  Si  Si46  1  0.48004708  0.33009234  0.58703012  1
  Si  Si47  1  0.01800291  0.36815335  0.91747873  1
  Si  Si48  1  0.51899074  0.37006029  0.91555647  1
  Si  Si49  1  0.01873370  0.66502172  0.41569442  1
  Si  Si50  1  0.51589820  0.66525936  0.41614979  1
  S  S51  1  0.35205658  0.70727742  0.24970026  1
  S  S52  1  0.85247127  0.70692849  0.24929319  1
  S  S53  1  0.99990340  0.29364120  0.24951607  1
  S  S54  1  0.50053357  0.29261805  0.24949037  1
  S  S55  1  0.00001867  0.70841631  0.74985041  1
  S  S56  1  0.49991533  0.71069791  0.74998872  1
  S  S57  1  0.35107641  0.99598161  0.75100498  1
  S  S58  1  0.85242851  0.99743673  0.74976331  1
  S  S59  1  0.97883946  0.33190638  0.58375950  1
  S  S60  1  0.18552342  0.03786191  0.58141698  1
  S  S61  1  0.68961962  0.04148016  0.58157276  1
  S  S62  1  0.33112956  0.62562004  0.58264836  1
  S  S63  1  0.83552778  0.63354027  0.58297725  1
  S  S64  1  0.47880929  0.62599449  0.08371274  1
  S  S65  1  0.97940992  0.62743860  0.08472097  1
  S  S66  1  0.33331863  0.03522895  0.08268175  1
  S  S67  1  0.83329564  0.03697877  0.08348574  1
  S  S68  1  0.18690569  0.33559807  0.08188462  1
  S  S69  1  0.68670450  0.33449981  0.08209728  1
  S  S70  1  0.31599164  0.66938978  0.91846248  1
  S  S71  1  0.81461784  0.66960253  0.91760737  1
  S  S72  1  0.16669089  0.96076048  0.91694195  1
  S  S73  1  0.66648281  0.96017214  0.91727800  1
  S  S74  1  0.31436432  0.95987304  0.41650881  1
  S  S75  1  0.81471947  0.95959806  0.41875286  1
  S  S76  1  0.16596626  0.37263791  0.41637570  1
  S  S77  1  0.66759072  0.37365146  0.41577674  1
  O  O78  1  0.10219002  0.02452346  0.30773596  1
  O  O79  1  0.60592402  0.02622759  0.30811107  1
  O  O80  1  0.40641225  0.79508771  0.29954880  1
  O  O81  1  0.90792365  0.79085055  0.29962336  1
  O  O82  1  0.48806470  0.18516188  0.29964009  1
  O  O83  1  0.98498556  0.18473724  0.29982741  1
  O  O84  1  0.10731357  0.18773054  0.80917974  1
  O  O85  1  0.60650888  0.18455524  0.81106301  1
  O  O86  1  0.48827502  0.79248156  0.80143838  1
  O  O87  1  0.98755102  0.79099218  0.80069352  1
  O  O88  1  0.40658510  0.02103660  0.80189435  1
  O  O89  1  0.90672335  0.01942484  0.80036787  1
  O  O90  1  0.38634177  0.96092786  0.69867157  1
  O  O91  1  0.88685830  0.96399396  0.69639443  1
  O  O92  1  0.09041593  0.21442476  0.69346364  1
  O  O93  1  0.58605020  0.21500740  0.69785918  1
  O  O94  1  0.00718284  0.80155880  0.69570679  1
  O  O95  1  0.51012137  0.80993057  0.69699805  1
  O  O96  1  0.38580099  0.80835265  0.19552065  1
  O  O97  1  0.88721047  0.81162527  0.19635781  1
  O  O98  1  0.01097170  0.21774835  0.19571728  1
  O  O99  1  0.50807920  0.21441531  0.19465012  1
  O  O100  1  0.08543117  0.94989487  0.19472543  1
  O  O101  1  0.59181900  0.96520771  0.19186779  1
  O  O102  1  0.43391610  0.34980057  0.64566145  1
  O  O103  1  0.93940884  0.35562378  0.63653558  1
  O  O104  1  0.23691843  0.12661751  0.63285822  1
  O  O105  1  0.74062979  0.12539488  0.63420391  1
  O  O106  1  0.31772950  0.52065998  0.63490793  1
  O  O107  1  0.82302820  0.53049816  0.63582130  1
  O  O108  1  0.43939495  0.52307868  0.13630461  1
  O  O109  1  0.93937380  0.52793119  0.13738761  1
  O  O110  1  0.32069508  0.11288592  0.13537997  1
  O  O111  1  0.82286931  0.12047965  0.13520128  1
  O  O112  1  0.23811318  0.35473269  0.13420932  1
  O  O113  1  0.73923792  0.34990324  0.13323437  1
  O  O114  1  0.22773870  0.31561352  0.02969198  1
  O  O115  1  0.72728848  0.31541994  0.02930007  1
  O  O116  1  0.42710482  0.53806220  0.03225194  1
  O  O117  1  0.92738703  0.53788436  0.03323028  1
  O  O118  1  0.34399458  0.14232430  0.03164251  1
  O  O119  1  0.84395366  0.14179281  0.03175874  1
  O  O120  1  0.22395394  0.13530741  0.52809064  1
  O  O121  1  0.73080312  0.14704994  0.52959512  1
  O  O122  1  0.33943118  0.54223417  0.53085323  1
  O  O123  1  0.84683414  0.54640472  0.53201019  1
  O  O124  1  0.42372043  0.31691399  0.52995566  1
  O  O125  1  0.92694597  0.31631763  0.53214630  1
  O  O126  1  0.28003085  0.70487732  0.97086419  1
  O  O127  1  0.77982692  0.70445599  0.97098008  1
  O  O128  1  0.08095265  0.44071624  0.97411172  1
  O  O129  1  0.58181743  0.44602766  0.97208566  1
  O  O130  1  0.15571164  0.86145566  0.97036115  1
  O  O131  1  0.65536845  0.86183361  0.97116659  1
  O  O132  1  0.27964935  0.85560627  0.46953870  1
  O  O133  1  0.77681744  0.85098742  0.46982790  1
  O  O134  1  0.15392419  0.44911807  0.46974872  1
  O  O135  1  0.65802729  0.45398047  0.46815542  1
  O  O136  1  0.08320997  0.71453951  0.47084911  1
  O  O137  1  0.58470693  0.72899848  0.46961704  1
  O  O138  1  0.06118607  0.63668606  0.35723822  1
  O  O139  1  0.55381961  0.62106528  0.35949685  1
  O  O140  1  0.25752888  0.87179132  0.36642360  1
  O  O141  1  0.76158992  0.88567896  0.36588699  1
  O  O142  1  0.17903182  0.48097881  0.36572623  1
  O  O143  1  0.68549935  0.48091507  0.36378196  1
  O  O144  1  0.05695683  0.49230041  0.86254200  1
  O  O145  1  0.56314072  0.48834959  0.85892849  1
  O  O146  1  0.18430784  0.88636713  0.86594675  1
  O  O147  1  0.68169955  0.88172891  0.86711398  1
  O  O148  1  0.26054690  0.63701264  0.86741845  1
  O  O149  1  0.75769459  0.64010938  0.86778193  1
  O  O150  1  0.01056473  0.84062223  0.40958768  1
  O  O151  1  0.50903608  0.84322947  0.40901259  1
  O  O152  1  0.40126646  0.98943533  0.40755049  1
  O  O153  1  0.90239281  0.98941942  0.41031204  1
  O  O154  1  0.08632320  0.19995753  0.41060890  1
  O  O155  1  0.58896645  0.20173832  0.40975001  1
  O  O156  1  0.01014658  0.17716250  0.91053413  1
  O  O157  1  0.50974152  0.17779221  0.91012860  1
  O  O158  1  0.08815856  0.97589726  0.91109978  1
  O  O159  1  0.58804837  0.97609870  0.91176842  1
  O  O160  1  0.40311605  0.81413769  0.91067979  1
  O  O161  1  0.90163892  0.81352970  0.90935702  1
  O  O162  1  0.48529313  0.15169817  0.58384143  1
  O  O163  1  0.98393212  0.17061589  0.58579804  1
  O  O164  1  0.09693223  0.01437238  0.58536181  1
  O  O165  1  0.60213155  0.01847645  0.58566298  1
  O  O166  1  0.41004836  0.79675882  0.58852120  1
  O  O167  1  0.91553646  0.80588077  0.58781127  1
  O  O168  1  0.48416867  0.79771695  0.08598001  1
  O  O169  1  0.98512128  0.80009606  0.08551510  1
  O  O170  1  0.41198254  0.01878981  0.08754514  1
  O  O171  1  0.91171410  0.01974692  0.08849981  1
  O  O172  1  0.09929310  0.18011542  0.08584757  1
  O  O173  1  0.59901215  0.18067046  0.08591229  1
  O  O174  1  0.34929771  0.16072109  0.74595319  1
  O  O175  1  0.84868115  0.16022736  0.74502972  1
  O  O176  1  0.24558263  0.31009688  0.74416221  1
  O  O177  1  0.74564492  0.31462040  0.74858429  1
  O  O178  1  0.42447978  0.53232703  0.74611808  1
  O  O179  1  0.92423347  0.53017879  0.74635784  1
  O  O180  1  0.34832367  0.53705992  0.24468704  1
  O  O181  1  0.85187523  0.53914263  0.24234787  1
  O  O182  1  0.42445818  0.31839889  0.24549109  1
  O  O183  1  0.92532146  0.32452223  0.24302168  1
  O  O184  1  0.24354039  0.17461976  0.24683200  1
  O  O185  1  0.74347995  0.17573269  0.24390342  1
  O  O186  1  0.31740721  0.50390634  0.92631792  1
  O  O187  1  0.81553243  0.50294336  0.92488595  1
  O  O188  1  0.42385804  0.35207375  0.92392764  1
  O  O189  1  0.92196418  0.34607845  0.92643645  1
  O  O190  1  0.24087731  0.14126767  0.92440453  1
  O  O191  1  0.74101257  0.14013819  0.92419690  1
  O  O192  1  0.31400520  0.12626446  0.42197407  1
  O  O193  1  0.81778163  0.13070935  0.42580242  1
  O  O194  1  0.23951277  0.34149864  0.42205577  1
  O  O195  1  0.74165730  0.33999355  0.42270416  1
  O  O196  1  0.42052869  0.49927025  0.42353766  1
  O  O197  1  0.92342924  0.49391372  0.42330006  1
  O  O198  1  0.17984630  0.49518163  0.08018175  1
  O  O199  1  0.68140449  0.49620433  0.08088819  1
  O  O200  1  0.06735087  0.64941746  0.08048013  1
  O  O201  1  0.56686583  0.64838651  0.07965807  1
  O  O202  1  0.25528223  0.86107089  0.07673469  1
  O  O203  1  0.75497752  0.86309161  0.07805467  1
  O  O204  1  0.17956223  0.86430226  0.58062105  1
  O  O205  1  0.68614807  0.87251215  0.57888234  1
  O  O206  1  0.25310802  0.64713955  0.57804125  1
  O  O207  1  0.75951847  0.65439824  0.57613585  1
  O  O208  1  0.06655457  0.48541943  0.57954936  1
  O  O209  1  0.57694819  0.50288069  0.58567731  1
  O  O210  1  0.15621945  0.82467092  0.25662320  1
  O  O211  1  0.66475110  0.83291741  0.25190409  1
  O  O212  1  0.26453650  0.68039925  0.25715324  1
  O  O213  1  0.76434003  0.67496512  0.25717895  1
  O  O214  1  0.07832299  0.46632061  0.25521981  1
  O  O215  1  0.58100553  0.46214441  0.25289705  1
  O  O216  1  0.16386394  0.49298202  0.75155040  1
  O  O217  1  0.65685639  0.48706761  0.75803261  1
  O  O218  1  0.08047715  0.70036924  0.75366434  1
  O  O219  1  0.57852303  0.69346069  0.75548617  1
  O  O220  1  0.26336609  0.85025178  0.75912552  1
  O  O221  1  0.76530190  0.84949805  0.75824759  1
