# generated using pymatgen
data_Na4Zr2Ta2Si5SO24
_symmetry_space_group_name_H-M   'P 1'
_cell_length_a   9.02058654
_cell_length_b   9.04269629
_cell_length_c   22.93314449
_cell_angle_alpha   89.85871988
_cell_angle_beta   90.19876967
_cell_angle_gamma   119.86575922
_symmetry_Int_Tables_number   1
_chemical_formula_structural   Na4Zr2Ta2Si5SO24
_chemical_formula_sum   'Na12 Zr6 Ta6 Si15 S3 O72'
_cell_volume   1622.22119949
_cell_formula_units_Z   3
loop_
 _symmetry_equiv_pos_site_id
 _symmetry_equiv_pos_as_xyz
  1  'x, y, z'
loop_
 _atom_site_type_symbol
 _atom_site_label
 _atom_site_symmetry_multiplicity
 _atom_site_fract_x
 _atom_site_fract_y
 _atom_site_fract_z
 _atom_site_occupancy
  Na  Na0  1  0.64633673  0.00002711  0.25091529  1
  Na  Na1  1  0.99214758  0.35727744  0.74953404  1
  Na  Na2  1  0.29751088  0.33760467  0.58098281  1
  Na  Na3  1  0.66666736  0.96590828  0.57992920  1
  Na  Na4  1  0.02402645  0.33093678  0.08511109  1
  Na  Na5  1  0.95950388  0.66529376  0.91288886  1
  Na  Na6  1  0.99831278  0.00060281  0.49179231  1
  Na  Na7  1  0.97392640  0.99041857  0.00191803  1
  Na  Na8  1  0.64941196  0.33082937  0.83275020  1
  Na  Na9  1  0.65792776  0.34014897  0.33490270  1
  Na  Na10  1  0.32722866  0.67804502  0.16726513  1
  Na  Na11  1  0.32934934  0.67969958  0.66384263  1
  Zr  Zr12  1  0.00127107  0.00760284  0.35097700  1
  Zr  Zr13  1  0.99089163  0.00587987  0.85148775  1
  Zr  Zr14  1  0.99230584  0.98733972  0.15037755  1
  Zr  Zr15  1  0.68191620  0.34035481  0.97745319  1
  Zr  Zr16  1  0.34439419  0.67273879  0.02297889  1
  Zr  Zr17  1  0.33505557  0.66439905  0.52104092  1
  Ta  Ta18  1  0.99662232  0.99373532  0.64648496  1
  Ta  Ta19  1  0.66675466  0.33701506  0.68719314  1
  Ta  Ta20  1  0.67549156  0.33302958  0.18934063  1
  Ta  Ta21  1  0.65540002  0.32385843  0.47962457  1
  Ta  Ta22  1  0.34334781  0.66700423  0.31318166  1
  Ta  Ta23  1  0.33643499  0.65497037  0.80836372  1
  Si  Si24  1  0.29397313  -0.00005839  0.25096469  1
  Si  Si25  1  0.70872792  0.70164792  0.25202000  1
  Si  Si26  1  0.00992449  0.29996761  0.24755698  1
  Si  Si27  1  0.29068800  0.28227789  0.74878675  1
  Si  Si28  1  0.00154910  0.71099787  0.75179554  1
  Si  Si29  1  0.70218021  0.99756627  0.74694292  1
  Si  Si30  1  0.95216039  0.33276847  0.58458382  1
  Si  Si31  1  0.37630941  0.04669337  0.58516863  1
  Si  Si32  1  0.67585133  0.62182491  0.58209725  1
  Si  Si33  1  0.95902228  0.62845654  0.08301128  1
  Si  Si34  1  0.66715004  0.04256392  0.08483555  1
  Si  Si35  1  0.62365318  0.66487393  0.91589355  1
  Si  Si36  1  0.05109582  0.37763920  0.91713545  1
  Si  Si37  1  0.62740533  0.96037930  0.41823954  1
  Si  Si38  1  0.33509665  0.37372274  0.41862576  1
  S  S39  1  0.38012462  0.33108184  0.08389979  1
  S  S40  1  0.33397225  0.95140383  0.91418732  1
  S  S41  1  0.04010792  0.66085850  0.41672600  1
  O  O42  1  0.20942416  0.03412817  0.30725883  1
  O  O43  1  0.82582276  0.78551859  0.30845276  1
  O  O44  1  0.95626032  0.16608870  0.30145318  1
  O  O45  1  0.20468106  0.17026029  0.80583232  1
  O  O46  1  0.97126255  0.78738814  0.81092463  1
  O  O47  1  0.82973323  0.04422684  0.80251571  1
  O  O48  1  0.79624649  0.97072883  0.68951061  1
  O  O49  1  0.16561547  0.19849688  0.69136314  1
  O  O50  1  0.02443575  0.83717796  0.69581544  1
  O  O51  1  0.78203732  0.83013401  0.19594407  1
  O  O52  1  0.04019612  0.22391729  0.18779850  1
  O  O53  1  0.17502573  0.96559437  0.19376718  1
  O  O54  1  0.86106136  0.35244403  0.64301165  1
  O  O55  1  0.50263400  0.14633085  0.63973555  1
  O  O56  1  0.64680826  0.50056059  0.63854410  1
  O  O57  1  0.84519209  0.49874086  0.13683643  1
  O  O58  1  0.65048785  0.14139774  0.14276327  1
  O  O59  1  0.48152724  0.34705469  0.13638622  1
  O  O60  1  0.46193682  0.31728245  0.03051085  1
  O  O61  1  0.85065350  0.54268752  0.02233437  1
  O  O62  1  0.68446542  0.16176408  0.02834670  1
  O  O63  1  0.46582784  0.17007730  0.52708657  1
  O  O64  1  0.69715205  0.52577022  0.52558435  1
  O  O65  1  0.82463013  0.30052398  0.52877907  1
  O  O66  1  0.53307173  0.69216491  0.97277016  1
  O  O67  1  0.15422448  0.47424091  0.97599552  1
  O  O68  1  0.31216420  0.84999952  0.96771553  1
  O  O69  1  0.53098597  0.85301910  0.47697528  1
  O  O70  1  0.31292120  0.45963397  0.47829138  1
  O  O71  1  0.14174700  0.67944038  0.46993809  1
  O  O72  1  0.12575732  0.64237926  0.36458442  1
  O  O73  1  0.50571498  0.86351014  0.36079444  1
  O  O74  1  0.35163925  0.50062524  0.36377124  1
  O  O75  1  0.14780807  0.49997396  0.85889085  1
  O  O76  1  0.35364295  0.86703566  0.86197924  1
  O  O77  1  0.50506233  0.65649529  0.85871831  1
  O  O78  1  0.02002510  0.81115918  0.41272071  1
  O  O79  1  0.81350985  0.97715770  0.41341283  1
  O  O80  1  0.17364826  0.18358639  0.41250905  1
  O  O81  1  0.03180497  0.19035459  0.91298956  1
  O  O82  1  0.17611884  0.96193783  0.91020285  1
  O  O83  1  0.81934972  0.82426217  0.91193069  1
  O  O84  1  0.96443579  0.15604254  0.59112979  1
  O  O85  1  0.19306506  0.04120074  0.59248969  1
  O  O86  1  0.84098729  0.81373899  0.59036091  1
  O  O87  1  0.98225566  0.81710725  0.08743371  1
  O  O88  1  0.84794642  0.04290956  0.08748600  1
  O  O89  1  0.20661233  0.18254815  0.08742362  1
  O  O90  1  0.68895151  0.17004449  0.73908787  1
  O  O91  1  0.48336687  0.31649236  0.74008770  1
  O  O92  1  0.84094530  0.51732634  0.74010378  1
  O  O93  1  0.67483952  0.51044032  0.23891801  1
  O  O94  1  0.83421419  0.31639895  0.24070303  1
  O  O95  1  0.48979695  0.16242357  0.24023149  1
  O  O96  1  0.63369009  0.48920301  0.91636667  1
  O  O97  1  0.86288844  0.36858150  0.91630908  1
  O  O98  1  0.48505000  0.12271558  0.91886406  1
  O  O99  1  0.64268401  0.15123265  0.42461310  1
  O  O100  1  0.51667808  0.36916190  0.42321559  1
  O  O101  1  0.87020942  0.50247134  0.42161365  1
  O  O102  1  0.36172098  0.48695045  0.08167263  1
  O  O103  1  0.13820826  0.62312501  0.08261766  1
  O  O104  1  0.49752808  0.85435257  0.08327612  1
  O  O105  1  0.36575446  0.86374101  0.58086237  1
  O  O106  1  0.50503429  0.64208994  0.57964078  1
  O  O107  1  0.14516961  0.49333557  0.58093831  1
  O  O108  1  0.32719306  0.83712678  0.26103036  1
  O  O109  1  0.51835056  0.68627005  0.26134998  1
  O  O110  1  0.16737401  0.49016497  0.26219545  1
  O  O111  1  0.30130350  0.47186592  0.75615620  1
  O  O112  1  0.16875750  0.68280391  0.75659376  1
  O  O113  1  0.51418135  0.83014386  0.75634187  1
