# generated using pymatgen
data_Na4MgZnP2SO12
_symmetry_space_group_name_H-M   'P 1'
_cell_length_a   9.06649052
_cell_length_b   9.02850389
_cell_length_c   21.84912321
_cell_angle_alpha   89.83032989
_cell_angle_beta   89.95739438
_cell_angle_gamma   120.21797464
_symmetry_Int_Tables_number   1
_chemical_formula_structural   Na4MgZnP2SO12
_chemical_formula_sum   'Na24 Mg6 Zn6 P12 S6 O72'
_cell_volume   1545.46148168
_cell_formula_units_Z   6
loop_
 _symmetry_equiv_pos_site_id
 _symmetry_equiv_pos_as_xyz
  1  'x, y, z'
loop_
 _atom_site_type_symbol
 _atom_site_label
 _atom_site_symmetry_multiplicity
 _atom_site_fract_x
 _atom_site_fract_y
 _atom_site_fract_z
 _atom_site_occupancy
  Na  Na0  1  0.63383017  0.00783451  0.25508354  1
  Na  Na1  1  0.35403956  0.35281004  0.24630738  1
  Na  Na2  1  0.00832903  0.63240570  0.24834602  1
  Na  Na3  1  0.62350132  0.63213871  0.74849081  1
  Na  Na4  1  0.00060453  0.35612609  0.74699467  1
  Na  Na5  1  0.37294670  0.00571242  0.75522437  1
  Na  Na6  1  0.30093045  0.34214925  0.58775431  1
  Na  Na7  1  0.02404142  0.68805940  0.57948793  1
  Na  Na8  1  0.67242496  0.96420716  0.58134094  1
  Na  Na9  1  0.29160889  0.96445105  0.08165478  1
  Na  Na10  1  0.66441191  0.68824448  0.07962783  1
  Na  Na11  1  0.04102900  0.34177271  0.08782138  1
  Na  Na12  1  0.96646511  0.67322442  0.92133654  1
  Na  Na13  1  0.69177487  0.02443836  0.91349234  1
  Na  Na14  1  0.33968595  0.29725154  0.91495609  1
  Na  Na15  1  0.95686966  0.29875110  0.41512493  1
  Na  Na16  1  0.33381834  0.02281978  0.41343488  1
  Na  Na17  1  0.70613120  0.67219097  0.42203445  1
  Na  Na18  1  0.98560672  0.99178609  0.49994998  1
  Na  Na19  1  0.00621567  0.99260452  0.99934683  1
  Na  Na20  1  0.65310576  0.32511295  0.83403322  1
  Na  Na21  1  0.67209946  0.32465553  0.33397451  1
  Na  Na22  1  0.31911913  0.65885380  0.16600544  1
  Na  Na23  1  0.33879260  0.65882876  0.66657122  1
  Mg  Mg24  1  0.00114335  0.00194628  0.34823259  1
  Mg  Mg25  1  0.99288567  0.00515100  0.65125466  1
  Mg  Mg26  1  0.01307330  0.00564261  0.15164469  1
  Mg  Mg27  1  0.66730155  0.33486352  0.68201931  1
  Mg  Mg28  1  0.66737900  0.33441153  0.18231112  1
  Mg  Mg29  1  0.32568188  0.67204343  0.31757999  1
  Zn  Zn30  1  0.00041147  0.00178857  0.84489455  1
  Zn  Zn31  1  0.65613963  0.34400516  0.98814329  1
  Zn  Zn32  1  0.68905515  0.34446605  0.48785572  1
  Zn  Zn33  1  0.33363211  0.66759888  0.01247143  1
  Zn  Zn34  1  0.33359260  0.66793166  0.51188571  1
  Zn  Zn35  1  0.35445179  0.67702586  0.82053327  1
  P  P36  1  0.29959683  0.00093281  0.25022163  1
  P  P37  1  0.99973298  0.29646779  0.25000983  1
  P  P38  1  0.29756238  0.29646241  0.74982084  1
  P  P39  1  0.70167341  0.00226167  0.74984741  1
  P  P40  1  0.96733301  0.33331119  0.58410673  1
  P  P41  1  0.66701599  0.63051522  0.58354667  1
  P  P42  1  0.96333641  0.63078114  0.08371599  1
  P  P43  1  0.36624417  0.33337461  0.08419107  1
  P  P44  1  0.63502959  0.66803166  0.91712463  1
  P  P45  1  0.33308625  0.96395931  0.91677716  1
  P  P46  1  0.63065050  0.96286562  0.41647789  1
  P  P47  1  0.03502927  0.66906257  0.41658372  1
  S  S48  1  0.70404499  0.70471369  0.24987621  1
  S  S49  1  0.99871228  0.70244199  0.74889472  1
  S  S50  1  0.36897952  0.03865674  0.58391841  1
  S  S51  1  0.66962698  0.03840560  0.08397983  1
  S  S52  1  0.03517108  0.36953098  0.91627256  1
  S  S53  1  0.33213607  0.36915409  0.41549409  1
  O  O54  1  0.21607239  0.02861016  0.30749062  1
  O  O55  1  0.80968706  0.78545148  0.30486139  1
  O  O56  1  0.97053131  0.18419306  0.30727925  1
  O  O57  1  0.21932714  0.18614923  0.80842987  1
  O  O58  1  0.97187939  0.77778915  0.80531540  1
  O  O59  1  0.80943179  0.03128311  0.80854656  1
  O  O60  1  0.78579658  0.97120515  0.69397631  1
  O  O61  1  0.18665061  0.20831665  0.69319824  1
  O  O62  1  0.02360483  0.81195039  0.69474539  1
  O  O63  1  0.78416044  0.81154391  0.19469816  1
  O  O64  1  0.02329614  0.21116687  0.19251924  1
  O  O65  1  0.18649321  0.96914985  0.19340795  1
  O  O66  1  0.88010013  0.36043157  0.64013863  1
  O  O67  1  0.47654909  0.12325483  0.63813961  1
  O  O68  1  0.63930982  0.51654784  0.63992805  1
  O  O69  1  0.87695779  0.51665213  0.14015003  1
  O  O70  1  0.64646162  0.12290076  0.13820914  1
  O  O71  1  0.48070421  0.36086624  0.14026278  1
  O  O72  1  0.44034266  0.29713334  0.02580078  1
  O  O73  1  0.85793530  0.55010157  0.02467380  1
  O  O74  1  0.69731998  0.14208245  0.02766293  1
  O  O75  1  0.44502006  0.14245300  0.52756047  1
  O  O76  1  0.69190344  0.54971948  0.52446356  1
  O  O77  1  0.85683207  0.29670635  0.52572338  1
  O  O78  1  0.55257901  0.69658415  0.97473622  1
  O  O79  1  0.13941350  0.44875993  0.97199358  1
  O  O80  1  0.30260549  0.85197242  0.97456249  1
  O  O81  1  0.55212407  0.85278828  0.47516558  1
  O  O82  1  0.30540049  0.44459127  0.47194382  1
  O  O83  1  0.14291321  0.69815972  0.47533295  1
  O  O84  1  0.11922137  0.63812972  0.36068630  1
  O  O85  1  0.52005390  0.87457741  0.35972123  1
  O  O86  1  0.35708658  0.47874522  0.36131540  1
  O  O87  1  0.11593849  0.47617235  0.86085510  1
  O  O88  1  0.35686982  0.88031372  0.85846699  1
  O  O89  1  0.52249739  0.63234279  0.85969239  1
  O  O90  1  0.01734332  0.83166627  0.41076732  1
  O  O91  1  0.81274552  0.98561477  0.41173047  1
  O  O92  1  0.17649764  0.19586556  0.41038875  1
  O  O93  1  0.01843851  0.19650014  0.91269500  1
  O  O94  1  0.17267246  0.98487016  0.91291954  1
  O  O95  1  0.81457549  0.83261025  0.91192425  1
  O  O96  1  0.98975887  0.17365458  0.58886337  1
  O  O97  1  0.19500913  0.01683370  0.59010861  1
  O  O98  1  0.83254284  0.81018476  0.58832353  1
  O  O99  1  0.97747924  0.81022923  0.08852244  1
  O  O100  1  0.82169779  0.01670438  0.09013022  1
  O  O101  1  0.18399035  0.17361553  0.08889651  1
  O  O102  1  0.68412827  0.16496022  0.74402453  1
  O  O103  1  0.47979911  0.31958136  0.74508128  1
  O  O104  1  0.84325688  0.52906947  0.74370535  1
  O  O105  1  0.68645164  0.53155511  0.24512715  1
  O  O106  1  0.84008834  0.31925690  0.24554485  1
  O  O107  1  0.48028431  0.16483952  0.24448022  1
  O  O108  1  0.65592803  0.50684085  0.92054978  1
  O  O109  1  0.86202063  0.34936087  0.92107880  1
  O  O110  1  0.49976488  0.14286161  0.92084710  1
  O  O111  1  0.64279727  0.14193666  0.42042034  1
  O  O112  1  0.48550632  0.34989180  0.41976840  1
  O  O113  1  0.85224903  0.50681320  0.41965531  1
  O  O114  1  0.35219120  0.49882646  0.07911952  1
  O  O115  1  0.14523116  0.65182221  0.08015752  1
  O  O116  1  0.51287158  0.86533180  0.08084136  1
  O  O117  1  0.35249804  0.86575909  0.58082597  1
  O  O118  1  0.50621897  0.65135972  0.57998162  1
  O  O119  1  0.14702117  0.49885146  0.57900119  1
  O  O120  1  0.32182942  0.84053229  0.25466122  1
  O  O121  1  0.53043404  0.68364854  0.25555966  1
  O  O122  1  0.16574228  0.47643631  0.25470222  1
  O  O123  1  0.30982915  0.47561862  0.75374936  1
  O  O124  1  0.15215572  0.68326569  0.75315595  1
  O  O125  1  0.51878945  0.84020240  0.75295753  1
