# generated using pymatgen
data_Na6Hf4Si7Ge4S5O48
_symmetry_space_group_name_H-M   'P 1'
_cell_length_a   17.57818290
_cell_length_b   8.77317573
_cell_length_c   22.58863481
_cell_angle_alpha   89.90752291
_cell_angle_beta   89.75100147
_cell_angle_gamma   120.01045017
_symmetry_Int_Tables_number   1
_chemical_formula_structural   Na6Hf4Si7Ge4S5O48
_chemical_formula_sum   'Na18 Hf12 Si21 Ge12 S15 O144'
_cell_volume   3016.45899226
_cell_formula_units_Z   3
loop_
 _symmetry_equiv_pos_site_id
 _symmetry_equiv_pos_as_xyz
  1  'x, y, z'
loop_
 _atom_site_type_symbol
 _atom_site_label
 _atom_site_symmetry_multiplicity
 _atom_site_fract_x
 _atom_site_fract_y
 _atom_site_fract_z
 _atom_site_occupancy
  Na  Na0  1  0.00113594  0.63543676  0.25104309  1
  Na  Na1  1  0.49762336  0.64490196  0.24544113  1
  Na  Na2  1  0.99927950  0.35234922  0.75167848  1
  Na  Na3  1  0.50048764  0.36820887  0.75331216  1
  Na  Na4  1  0.66498926  0.30280862  0.91771038  1
  Na  Na5  1  0.16601629  0.02998956  0.41434615  1
  Na  Na6  1  0.99916412  0.98881876  0.49985383  1
  Na  Na7  1  0.49298057  0.98810723  0.49524809  1
  Na  Na8  1  0.99328128  0.99790100  0.99688534  1
  Na  Na9  1  0.49808059  0.00040275  0.00389938  1
  Na  Na10  1  0.33274934  0.33508429  0.83150210  1
  Na  Na11  1  0.83115769  0.33054029  0.83545338  1
  Na  Na12  1  0.33143752  0.33401561  0.33074147  1
  Na  Na13  1  0.83209922  0.32798914  0.32825436  1
  Na  Na14  1  0.17564395  0.67627029  0.17215980  1
  Na  Na15  1  0.66918417  0.66629226  0.16432919  1
  Na  Na16  1  0.17553062  0.68133428  0.66865196  1
  Na  Na17  1  0.67283416  0.67276632  0.67345625  1
  Hf  Hf18  1  0.49566939  0.97619412  0.35156003  1
  Hf  Hf19  1  0.99548956  0.01496306  0.85337274  1
  Hf  Hf20  1  0.00136672  0.00190067  0.64613444  1
  Hf  Hf21  1  0.49486762  0.99219152  0.65284321  1
  Hf  Hf22  1  0.99588418  0.99947042  0.15230598  1
  Hf  Hf23  1  0.49937336  0.99097958  0.14266330  1
  Hf  Hf24  1  0.34330722  0.33550350  0.97917063  1
  Hf  Hf25  1  0.83977388  0.35157669  0.47674269  1
  Hf  Hf26  1  0.16927052  0.67142700  0.02288911  1
  Hf  Hf27  1  0.66220979  0.64368183  0.02216245  1
  Hf  Hf28  1  0.16851245  0.68764691  0.51900940  1
  Hf  Hf29  1  0.66848211  0.66652752  0.52214688  1
  Si  Si30  1  0.15130613  0.00978571  0.24927228  1
  Si  Si31  1  0.64816811  0.00352492  0.25082274  1
  Si  Si32  1  0.34645478  0.69599437  0.24824210  1
  Si  Si33  1  0.84733099  0.70416659  0.25279669  1
  Si  Si34  1  0.00077649  0.29183300  0.25336503  1
  Si  Si35  1  0.14836185  0.29543863  0.75072544  1
  Si  Si36  1  0.64675262  0.29248907  0.75111543  1
  Si  Si37  1  0.50086708  0.71008148  0.75359038  1
  Si  Si38  1  0.34750256  0.98976011  0.75339731  1
  Si  Si39  1  0.84694859  0.99667562  0.74767362  1
  Si  Si40  1  0.19793222  0.06409697  0.58433042  1
  Si  Si41  1  0.83345166  0.61912206  0.58768504  1
  Si  Si42  1  0.47627623  0.61593152  0.08690804  1
  Si  Si43  1  0.33282798  0.04907286  0.08789432  1
  Si  Si44  1  0.69865211  0.33249896  0.08436342  1
  Si  Si45  1  0.81065757  0.66754941  0.91602476  1
  Si  Si46  1  0.02049458  0.38624697  0.91830521  1
  Si  Si47  1  0.52138818  0.36760633  0.90978622  1
  Si  Si48  1  0.31295623  0.95836317  0.41408895  1
  Si  Si49  1  0.02323209  0.67692954  0.40970713  1
  Si  Si50  1  0.52066782  0.65685102  0.41785605  1
  Ge  Ge51  1  0.00168506  0.98757250  0.34034423  1
  Ge  Ge52  1  0.50048800  0.01213362  0.84323145  1
  Ge  Ge53  1  0.32617582  0.31962781  0.69587178  1
  Ge  Ge54  1  0.81960748  0.32587836  0.69080226  1
  Ge  Ge55  1  0.33045601  0.32944413  0.18609753  1
  Ge  Ge56  1  0.82594411  0.33081941  0.19508326  1
  Ge  Ge57  1  0.83406003  0.34543541  0.97669375  1
  Ge  Ge58  1  0.33377704  0.32292334  0.47575253  1
  Ge  Ge59  1  0.16806183  0.68383503  0.30882403  1
  Ge  Ge60  1  0.66311681  0.67510775  0.31086439  1
  Ge  Ge61  1  0.16749826  0.65307627  0.81459279  1
  Ge  Ge62  1  0.66769472  0.65443362  0.81090857  1
  S  S63  1  0.50103217  0.29415350  0.25099291  1
  S  S64  1  0.00041457  0.70562407  0.75049019  1
  S  S65  1  0.47484372  0.33045307  0.58315858  1
  S  S66  1  0.97691546  0.33413900  0.58486074  1
  S  S67  1  0.68848369  0.04667796  0.58372904  1
  S  S68  1  0.33366917  0.61408695  0.58237488  1
  S  S69  1  0.97504925  0.61933309  0.08306725  1
  S  S70  1  0.83454455  0.05478641  0.08228585  1
  S  S71  1  0.18794366  0.32930726  0.08321120  1
  S  S72  1  0.31284963  0.67132643  0.91449264  1
  S  S73  1  0.16597173  0.95282858  0.91415436  1
  S  S74  1  0.66578024  0.95371664  0.91589566  1
  S  S75  1  0.81309033  0.95394631  0.41479017  1
  S  S76  1  0.16594564  0.37734229  0.41691783  1
  S  S77  1  0.66628608  0.37912015  0.41485793  1
  O  O78  1  0.10764062  0.04205210  0.31021069  1
  O  O79  1  0.60820960  0.04238749  0.30982464  1
  O  O80  1  0.41252782  0.77561147  0.30576959  1
  O  O81  1  0.91633305  0.78884744  0.30854218  1
  O  O82  1  0.48847866  0.18827688  0.30488319  1
  O  O83  1  0.98051354  0.15640679  0.31095785  1
  O  O84  1  0.10612381  0.17122200  0.80786227  1
  O  O85  1  0.60488519  0.17017919  0.81018302  1
  O  O86  1  0.48025738  0.80425782  0.81028619  1
  O  O87  1  0.98536417  0.78365149  0.80289792  1
  O  O88  1  0.41698292  0.04243583  0.80790577  1
  O  O89  1  0.91400752  0.05424488  0.80392230  1
  O  O90  1  0.38832341  0.95269185  0.69391098  1
  O  O91  1  0.89379287  0.96373982  0.69120710  1
  O  O92  1  0.08422156  0.21657051  0.69381003  1
  O  O93  1  0.58369192  0.20606353  0.69363224  1
  O  O94  1  0.01479847  0.81331723  0.69651950  1
  O  O95  1  0.51850937  0.82792660  0.69376642  1
  O  O96  1  0.39264720  0.82628166  0.19322498  1
  O  O97  1  0.88916977  0.82520745  0.19427563  1
  O  O98  1  0.01876449  0.20932812  0.19439935  1
  O  O99  1  0.51608623  0.22013653  0.19797622  1
  O  O100  1  0.08293085  0.96131641  0.19447218  1
  O  O101  1  0.58416796  0.95463213  0.19526473  1
  O  O102  1  0.43971967  0.36169572  0.63812115  1
  O  O103  1  0.93721760  0.36023371  0.63857038  1
  O  O104  1  0.26043565  0.15475266  0.64232677  1
  O  O105  1  0.74205510  0.12256383  0.63809585  1
  O  O106  1  0.32290677  0.51334068  0.63714230  1
  O  O107  1  0.81913599  0.48738919  0.64432005  1
  O  O108  1  0.42946295  0.49418240  0.14638235  1
  O  O109  1  0.93997544  0.51758081  0.13833299  1
  O  O110  1  0.31344401  0.14004103  0.14477616  1
  O  O111  1  0.82411934  0.13478746  0.13724529  1
  O  O112  1  0.24030326  0.35961294  0.13733415  1
  O  O113  1  0.76174834  0.36677431  0.14240590  1
  O  O114  1  0.22796544  0.30816490  0.02874654  1
  O  O115  1  0.74115237  0.30148268  0.02191553  1
  O  O116  1  0.41786627  0.53188834  0.02725224  1
  O  O117  1  0.92242953  0.53823278  0.02912650  1
  O  O118  1  0.34202378  0.15454976  0.02621238  1
  O  O119  1  0.85117286  0.16360937  0.02777432  1
  O  O120  1  0.24108452  0.17830411  0.52207954  1
  O  O121  1  0.73124026  0.14958049  0.53006894  1
  O  O122  1  0.34942905  0.53876873  0.52788891  1
  O  O123  1  0.84518739  0.52848243  0.52779749  1
  O  O124  1  0.42216218  0.30662094  0.52917893  1
  O  O125  1  0.92311653  0.30841892  0.53099957  1
  O  O126  1  0.27215236  0.69745085  0.96818682  1
  O  O127  1  0.76953770  0.70375058  0.97415533  1
  O  O128  1  0.08275826  0.47736810  0.97407875  1
  O  O129  1  0.58085370  0.44765730  0.96912422  1
  O  O130  1  0.15624665  0.84962037  0.96853899  1
  O  O131  1  0.65312151  0.85066288  0.97002096  1
  O  O132  1  0.27124661  0.84102295  0.47373968  1
  O  O133  1  0.77202392  0.84641980  0.46953223  1
  O  O134  1  0.15332373  0.45643822  0.47143646  1
  O  O135  1  0.65734569  0.46283535  0.46968219  1
  O  O136  1  0.08076591  0.71037390  0.47029749  1
  O  O137  1  0.58246527  0.68799636  0.47456424  1
  O  O138  1  0.06897464  0.64027951  0.35354211  1
  O  O139  1  0.56689081  0.62478171  0.35762273  1
  O  O140  1  0.24504731  0.86725246  0.35898787  1
  O  O141  1  0.75648209  0.87288105  0.36236600  1
  O  O142  1  0.18115941  0.48469514  0.36375705  1
  O  O143  1  0.68348653  0.49074560  0.36244412  1
  O  O144  1  0.06627794  0.50699600  0.85636342  1
  O  O145  1  0.56794075  0.49490582  0.85263410  1
  O  O146  1  0.18226364  0.87178902  0.86120316  1
  O  O147  1  0.68127482  0.87750703  0.86214314  1
  O  O148  1  0.25637386  0.64163598  0.86104101  1
  O  O149  1  0.74600363  0.62420916  0.85798047  1
  O  O150  1  0.01401904  0.85782745  0.40440580  1
  O  O151  1  0.51312317  0.83290332  0.41284348  1
  O  O152  1  0.41180645  0.99437747  0.40958158  1
  O  O153  1  0.90042449  0.97315803  0.41016809  1
  O  O154  1  0.08782643  0.19735455  0.41280735  1
  O  O155  1  0.58669384  0.20557846  0.41173332  1
  O  O156  1  0.01272356  0.19452852  0.91216414  1
  O  O157  1  0.51371075  0.16852939  0.90423421  1
  O  O158  1  0.08561767  0.96342721  0.90982482  1
  O  O159  1  0.58742942  0.97754281  0.91074172  1
  O  O160  1  0.40009117  0.82781278  0.90866504  1
  O  O161  1  0.91045491  0.82783533  0.90841037  1
  O  O162  1  0.48559895  0.17329004  0.58629728  1
  O  O163  1  0.98424336  0.17367443  0.58724113  1
  O  O164  1  0.09995354  0.03879175  0.58876058  1
  O  O165  1  0.60081607  0.02881649  0.58783735  1
  O  O166  1  0.41228761  0.79618639  0.58626223  1
  O  O167  1  0.91984445  0.81135647  0.58948964  1
  O  O168  1  0.48482450  0.80735089  0.08752111  1
  O  O169  1  0.98552053  0.79763690  0.08637014  1
  O  O170  1  0.41973979  0.03421194  0.08988176  1
  O  O171  1  0.91400736  0.03270915  0.08655593  1
  O  O172  1  0.09918205  0.17210651  0.08775573  1
  O  O173  1  0.60103556  0.16614838  0.08889729  1
  O  O174  1  0.34722716  0.17569817  0.74408458  1
  O  O175  1  0.84748734  0.18831479  0.73542095  1
  O  O176  1  0.24624143  0.32341293  0.74317285  1
  O  O177  1  0.74361048  0.30982739  0.74565252  1
  O  O178  1  0.41524819  0.50913000  0.73971566  1
  O  O179  1  0.92255688  0.52453508  0.74348849  1
  O  O180  1  0.34431616  0.50594326  0.23978829  1
  O  O181  1  0.84734571  0.51803651  0.24423656  1
  O  O182  1  0.42300297  0.31797253  0.24739288  1
  O  O183  1  0.91554002  0.32167350  0.24024302  1
  O  O184  1  0.24731127  0.18329165  0.24217545  1
  O  O185  1  0.74709638  0.16996320  0.24420992  1
  O  O186  1  0.31667843  0.50755586  0.91946772  1
  O  O187  1  0.81560208  0.48162986  0.92253635  1
  O  O188  1  0.42482383  0.35019980  0.91483783  1
  O  O189  1  0.92038135  0.35729807  0.92700407  1
  O  O190  1  0.24300635  0.13186368  0.91940181  1
  O  O191  1  0.74614492  0.13677443  0.92065840  1
  O  O192  1  0.31539663  0.15008745  0.42255017  1
  O  O193  1  0.81890237  0.12771036  0.42259431  1
  O  O194  1  0.24662491  0.35628289  0.42240501  1
  O  O195  1  0.74407564  0.35451440  0.42162536  1
  O  O196  1  0.42068297  0.48438828  0.42764491  1
  O  O197  1  0.92672698  0.49906479  0.41743769  1
  O  O198  1  0.17869620  0.48933861  0.07826543  1
  O  O199  1  0.69026012  0.50966727  0.08034562  1
  O  O200  1  0.06438895  0.64047813  0.07629404  1
  O  O201  1  0.57360763  0.63913647  0.08134357  1
  O  O202  1  0.24495099  0.85278703  0.08101917  1
  O  O203  1  0.75553414  0.87965617  0.07722005  1
  O  O204  1  0.18477657  0.86409782  0.58052949  1
  O  O205  1  0.67978704  0.86902768  0.57930798  1
  O  O206  1  0.25338045  0.63001044  0.57744183  1
  O  O207  1  0.74518910  0.63477439  0.58149783  1
  O  O208  1  0.06549843  0.48934296  0.57811535  1
  O  O209  1  0.56456488  0.48831584  0.57640200  1
  O  O210  1  0.15361491  0.82653287  0.25587936  1
  O  O211  1  0.65229330  0.81819535  0.25937807  1
  O  O212  1  0.25137343  0.67766666  0.26177252  1
  O  O213  1  0.74967916  0.67732595  0.26573966  1
  O  O214  1  0.08511103  0.48846353  0.26195400  1
  O  O215  1  0.58122202  0.47612924  0.25686928  1
  O  O216  1  0.15254578  0.48846542  0.75959314  1
  O  O217  1  0.65381402  0.48381260  0.75570635  1
  O  O218  1  0.07953201  0.68575442  0.75506023  1
  O  O219  1  0.58547336  0.68323370  0.76137513  1
  O  O220  1  0.24911056  0.82142954  0.76498349  1
  O  O221  1  0.75185244  0.82782254  0.76053996  1
