# generated using pymatgen
data_MgMn2(HO2)2
_symmetry_space_group_name_H-M   'P 1'
_cell_length_a   5.21024948
_cell_length_b   6.33662733
_cell_length_c   3.13689057
_cell_angle_alpha   90.00000000
_cell_angle_beta   90.00000000
_cell_angle_gamma   81.15631401
_symmetry_Int_Tables_number   1
_chemical_formula_structural   MgMn2(HO2)2
_chemical_formula_sum   'Mg1 Mn2 H2 O4'
_cell_volume   102.33447937
_cell_formula_units_Z   1
loop_
 _symmetry_equiv_pos_site_id
 _symmetry_equiv_pos_as_xyz
  1  'x, y, z'
loop_
 _atom_site_type_symbol
 _atom_site_label
 _atom_site_symmetry_multiplicity
 _atom_site_fract_x
 _atom_site_fract_y
 _atom_site_fract_z
 _atom_site_occupancy
  Mg  Mg0  1  0.33321745  0.21906570  0.50000000  1
  Mn  Mn1  1  0.47135701  0.61513145  0.50000000  1
  Mn  Mn2  1  0.96692292  0.92501482  0.00000000  1
  H  H3  1  0.60578341  0.95269367  0.50000000  1
  H  H4  1  0.91997607  0.53695942  0.00000000  1
  O  O5  1  0.70748360  0.07247219  0.50000000  1
  O  O6  1  0.24361125  0.92121074  0.50000000  1
  O  O7  1  0.29532963  0.41791123  0.00000000  1
  O  O8  1  0.76187366  0.64730078  0.00000000  1
