# generated using pymatgen
data_NaScInP(SO6)2
_symmetry_space_group_name_H-M   'P 1'
_cell_length_a   8.85257487
_cell_length_b   8.85100288
_cell_length_c   23.34015768
_cell_angle_alpha   89.94564420
_cell_angle_beta   90.05168487
_cell_angle_gamma   120.07948100
_symmetry_Int_Tables_number   1
_chemical_formula_structural   NaScInP(SO6)2
_chemical_formula_sum   'Na6 Sc6 In6 P6 S12 O72'
_cell_volume   1582.51514317
_cell_formula_units_Z   6
loop_
 _symmetry_equiv_pos_site_id
 _symmetry_equiv_pos_as_xyz
  1  'x, y, z'
loop_
 _atom_site_type_symbol
 _atom_site_label
 _atom_site_symmetry_multiplicity
 _atom_site_fract_x
 _atom_site_fract_y
 _atom_site_fract_z
 _atom_site_occupancy
  Na  Na0  1  0.98981238  0.99364950  0.50000190  1
  Na  Na1  1  0.00373445  0.99216873  0.00002040  1
  Na  Na2  1  0.66212097  0.32174701  0.83320736  1
  Na  Na3  1  0.65946437  0.32144726  0.33361001  1
  Na  Na4  1  0.32564000  0.67078216  0.16671040  1
  Na  Na5  1  0.34361372  0.67036878  0.66658600  1
  Sc  Sc6  1  0.00305671  0.00106024  0.35224452  1
  Sc  Sc7  1  0.98225826  0.99036523  0.64757553  1
  Sc  Sc8  1  0.66479218  0.33241652  0.68455071  1
  Sc  Sc9  1  0.66775939  0.33430420  0.48211421  1
  Sc  Sc10  1  0.32143080  0.67403506  0.01857779  1
  Sc  Sc11  1  0.35277023  0.67543723  0.51890856  1
  In  In12  1  0.00026733  0.00022594  0.85084369  1
  In  In13  1  0.00460242  0.99166631  0.14925350  1
  In  In14  1  0.66535228  0.33193046  0.18459010  1
  In  In15  1  0.66583732  0.33286749  0.98277989  1
  In  In16  1  0.33692865  0.67955189  0.31685995  1
  In  In17  1  0.34287252  0.68008112  0.81541409  1
  P  P18  1  0.29470851  0.00192636  0.25086451  1
  P  P19  1  0.70825431  0.00275170  0.74986511  1
  P  P20  1  0.66674388  0.62121078  0.58331749  1
  P  P21  1  0.95714764  0.62403712  0.08323542  1
  P  P22  1  0.33317266  0.96377065  0.91700770  1
  P  P23  1  0.63126340  0.96447350  0.41721162  1
  S  S24  1  0.70640055  0.70708538  0.25086435  1
  S  S25  1  0.00176454  0.29239954  0.25053762  1
  S  S26  1  0.29248740  0.29305431  0.74883918  1
  S  S27  1  0.99866397  0.70541980  0.74888244  1
  S  S28  1  0.96008636  0.33548903  0.58319774  1
  S  S29  1  0.37314885  0.04184169  0.58343746  1
  S  S30  1  0.66776565  0.03644691  0.08355000  1
  S  S31  1  0.37065862  0.33668215  0.08287254  1
  S  S32  1  0.62419163  0.66582724  0.91783756  1
  S  S33  1  0.04279712  0.37554574  0.91652293  1
  S  S34  1  0.33354839  0.37517960  0.41682028  1
  S  S35  1  0.04030261  0.66543881  0.41791836  1
  O  O36  1  0.20324215  0.02360395  0.30361895  1
  O  O37  1  0.81351712  0.79305591  0.30159608  1
  O  O38  1  0.97779307  0.18446294  0.30148344  1
  O  O39  1  0.22164944  0.19077148  0.80234241  1
  O  O40  1  0.97059103  0.77821843  0.80222490  1
  O  O41  1  0.81565915  0.03275920  0.80503502  1
  O  O42  1  0.79839512  0.97732218  0.69731589  1
  O  O43  1  0.18489999  0.20772787  0.69832110  1
  O  O44  1  0.02582237  0.81631112  0.69860897  1
  O  O45  1  0.77870708  0.81029135  0.19784133  1
  O  O46  1  0.02502604  0.21590303  0.19723264  1
  O  O47  1  0.18999598  0.97312264  0.19554599  1
  O  O48  1  0.87764808  0.35879268  0.63485172  1
  O  O49  1  0.48192787  0.12126735  0.63488959  1
  O  O50  1  0.64200257  0.51039536  0.63699052  1
  O  O51  1  0.87983902  0.51491161  0.13796321  1
  O  O52  1  0.63520917  0.11100139  0.13541928  1
  O  O53  1  0.47475634  0.36368423  0.13531033  1
  O  O54  1  0.44659192  0.30272835  0.03156065  1
  O  O55  1  0.84776991  0.54394119  0.02889765  1
  O  O56  1  0.69678496  0.14240573  0.03153637  1
  O  O57  1  0.45554176  0.14786481  0.53179879  1
  O  O58  1  0.69117236  0.53532527  0.52965230  1
  O  O59  1  0.85130087  0.30620581  0.53178083  1
  O  O60  1  0.53848284  0.68603326  0.96848537  1
  O  O61  1  0.14906004  0.45904967  0.96770575  1
  O  O62  1  0.30916607  0.84973860  0.96981090  1
  O  O63  1  0.54124649  0.84674447  0.46972689  1
  O  O64  1  0.30610094  0.45693347  0.46767068  1
  O  O65  1  0.14931268  0.69049090  0.46837313  1
  O  O66  1  0.11036811  0.63161411  0.36477181  1
  O  O67  1  0.52118832  0.88918749  0.36274608  1
  O  O68  1  0.36145113  0.47831073  0.36387178  1
  O  O69  1  0.12012013  0.47689430  0.86342655  1
  O  O70  1  0.36345731  0.88724094  0.86212888  1
  O  O71  1  0.52265978  0.63653045  0.86434968  1
  O  O72  1  0.02391167  0.82398782  0.41097939  1
  O  O73  1  0.81249013  0.97993605  0.41003405  1
  O  O74  1  0.17586691  0.19910997  0.41103643  1
  O  O75  1  0.02509642  0.19932525  0.91319675  1
  O  O76  1  0.16544780  0.97814542  0.91269212  1
  O  O77  1  0.79973385  0.82622062  0.91332376  1
  O  O78  1  0.97998941  0.17890073  0.58963091  1
  O  O79  1  0.19951337  0.02542123  0.59037934  1
  O  O80  1  0.83055364  0.80558973  0.58933390  1
  O  O81  1  0.97667027  0.80847653  0.08674561  1
  O  O82  1  0.82736479  0.02189850  0.08996639  1
  O  O83  1  0.19300211  0.17969847  0.08816039  1
  O  O84  1  0.68763180  0.16466072  0.74152161  1
  O  O85  1  0.46948967  0.31441040  0.74256016  1
  O  O86  1  0.84169092  0.53038645  0.74207436  1
  O  O87  1  0.69357211  0.53327161  0.24662736  1
  O  O88  1  0.84314040  0.31003849  0.24685500  1
  O  O89  1  0.47841801  0.16923710  0.24659056  1
  O  O90  1  0.64597069  0.50968601  0.92184807  1
  O  O91  1  0.86642526  0.35699755  0.92127194  1
  O  O92  1  0.49872951  0.14686098  0.92302178  1
  O  O93  1  0.64991229  0.14599673  0.42617758  1
  O  O94  1  0.48931215  0.35530850  0.42379707  1
  O  O95  1  0.86313423  0.51074172  0.42438871  1
  O  O96  1  0.35594199  0.49440966  0.07536636  1
  O  O97  1  0.14060362  0.64306373  0.07686021  1
  O  O98  1  0.51245175  0.86044468  0.07648392  1
  O  O99  1  0.35317668  0.86534259  0.57695842  1
  O  O100  1  0.50278097  0.64128060  0.57726758  1
  O  O101  1  0.13400509  0.49289914  0.57620349  1
  O  O102  1  0.31185630  0.83560351  0.25445222  1
  O  O103  1  0.52794486  0.68304916  0.25581475  1
  O  O104  1  0.16068943  0.46824108  0.25643704  1
  O  O105  1  0.30776503  0.46830568  0.75460652  1
  O  O106  1  0.15591455  0.68561921  0.75342488  1
  O  O107  1  0.52592505  0.83390669  0.75239499  1
