# generated using pymatgen
data_Na15Ta10Zn2Si15(PO24)3
_symmetry_space_group_name_H-M   'P 1'
_cell_length_a   9.01834796
_cell_length_b   9.02567041
_cell_length_c   22.53222147
_cell_angle_alpha   89.92184890
_cell_angle_beta   90.11343992
_cell_angle_gamma   120.00840367
_symmetry_Int_Tables_number   1
_chemical_formula_structural   Na15Ta10Zn2Si15(PO24)3
_chemical_formula_sum   'Na15 Ta10 Zn2 Si15 P3 O72'
_cell_volume   1588.19354583
_cell_formula_units_Z   1
loop_
 _symmetry_equiv_pos_site_id
 _symmetry_equiv_pos_as_xyz
  1  'x, y, z'
loop_
 _atom_site_type_symbol
 _atom_site_label
 _atom_site_symmetry_multiplicity
 _atom_site_fract_x
 _atom_site_fract_y
 _atom_site_fract_z
 _atom_site_occupancy
  Na  Na0  1  0.63456063  0.02128520  0.24479570  1
  Na  Na1  1  0.38470311  0.36639862  0.24198540  1
  Na  Na2  1  0.98209598  0.61319163  0.24149569  1
  Na  Na3  1  0.63359334  0.61483276  0.74242796  1
  Na  Na4  1  0.97697872  0.36726935  0.74361128  1
  Na  Na5  1  0.38608393  0.01794114  0.74135143  1
  Na  Na6  1  0.02404990  0.68701698  0.58453903  1
  Na  Na7  1  0.66055088  0.97578865  0.58465899  1
  Na  Na8  1  0.02417375  0.33841493  0.08582470  1
  Na  Na9  1  0.00929441  0.00998418  0.49739092  1
  Na  Na10  1  0.00050939  0.99003826  0.99853338  1
  Na  Na11  1  0.67139033  0.33252622  0.83060395  1
  Na  Na12  1  0.66718375  0.32970889  0.33126186  1
  Na  Na13  1  0.34029726  0.67373233  0.16234677  1
  Na  Na14  1  0.33243964  0.65625115  0.66343127  1
  Ta  Ta15  1  0.00362547  0.00557215  0.35768534  1
  Ta  Ta16  1  0.99507598  0.99671113  0.85825316  1
  Ta  Ta17  1  0.99977926  0.99816256  0.64422838  1
  Ta  Ta18  1  0.00731763  0.99921740  0.14352994  1
  Ta  Ta19  1  0.66451916  0.33771334  0.97837303  1
  Ta  Ta20  1  0.66567488  0.33174406  0.47864364  1
  Ta  Ta21  1  0.33280336  0.66685100  0.01915419  1
  Ta  Ta22  1  0.33414159  0.66482783  0.51857354  1
  Ta  Ta23  1  0.32943297  0.66531121  0.31431367  1
  Ta  Ta24  1  0.33301385  0.67019970  0.81473447  1
  Zn  Zn25  1  0.67204854  0.33445633  0.67919421  1
  Zn  Zn26  1  0.66633689  0.33250507  0.17971103  1
  Si  Si27  1  0.28957040  0.99878135  0.25141807  1
  Si  Si28  1  0.00093570  0.28950106  0.24987082  1
  Si  Si29  1  0.00094704  0.71090508  0.75138062  1
  Si  Si30  1  0.70895667  0.99775231  0.75095663  1
  Si  Si31  1  0.96002272  0.33601589  0.58528121  1
  Si  Si32  1  0.37802196  0.04544355  0.58528175  1
  Si  Si33  1  0.66010796  0.61676243  0.58629796  1
  Si  Si34  1  0.95603076  0.62306546  0.08548596  1
  Si  Si35  1  0.38099994  0.33751705  0.08607062  1
  Si  Si36  1  0.62093714  0.66438108  0.91645312  1
  Si  Si37  1  0.04109398  0.37587972  0.91681205  1
  Si  Si38  1  0.33586402  0.95970816  0.91723009  1
  Si  Si39  1  0.62394418  0.95898863  0.41613234  1
  Si  Si40  1  0.33738994  0.37813376  0.41585721  1
  Si  Si41  1  0.03979414  0.66501585  0.41713354  1
  P  P42  1  0.71432944  0.71962110  0.25143214  1
  P  P43  1  0.28128576  0.28609866  0.75221835  1
  P  P44  1  0.66346258  0.04016813  0.08450041  1
  O  O45  1  0.18347083  0.01523177  0.30722947  1
  O  O46  1  0.82560042  0.81207240  0.30624959  1
  O  O47  1  0.98043050  0.16523705  0.30618254  1
  O  O48  1  0.18867922  0.17559449  0.80659842  1
  O  O49  1  0.98857227  0.82105693  0.80663970  1
  O  O50  1  0.83447501  0.01875297  0.80666894  1
  O  O51  1  0.80231411  0.96930404  0.69134618  1
  O  O52  1  0.16691971  0.19827138  0.69582634  1
  O  O53  1  0.03462120  0.83360308  0.69144753  1
  O  O54  1  0.80003093  0.83397808  0.19552253  1
  O  O55  1  0.02922605  0.19688206  0.19056971  1
  O  O56  1  0.16119536  0.96521388  0.19302210  1
  O  O57  1  0.89994983  0.38558225  0.64553615  1
  O  O58  1  0.49016593  0.10639878  0.64507798  1
  O  O59  1  0.62887608  0.51902214  0.64796285  1
  O  O60  1  0.89465509  0.51016847  0.14541710  1
  O  O61  1  0.63214553  0.10421422  0.14354969  1
  O  O62  1  0.47959940  0.36775495  0.14786766  1
  O  O63  1  0.47576850  0.30723582  0.02890482  1
  O  O64  1  0.83272486  0.52101140  0.02851295  1
  O  O65  1  0.69632277  0.16287366  0.03178291  1
  O  O66  1  0.47485655  0.16860731  0.52797291  1
  O  O67  1  0.70034981  0.52635982  0.52990540  1
  O  O68  1  0.82838761  0.29861987  0.52909809  1
  O  O69  1  0.52424984  0.69028764  0.97273859  1
  O  O70  1  0.16169006  0.46997255  0.97477262  1
  O  O71  1  0.30704866  0.83332219  0.97284348  1
  O  O72  1  0.53098787  0.84127349  0.47452653  1
  O  O73  1  0.31031295  0.47624099  0.47189123  1
  O  O74  1  0.16083454  0.69368966  0.47490609  1
  O  O75  1  0.13756558  0.64004684  0.35836615  1
  O  O76  1  0.50328643  0.86180545  0.35737482  1
  O  O77  1  0.36017567  0.49476290  0.35635432  1
  O  O78  1  0.13664975  0.49733673  0.85789841  1
  O  O79  1  0.36151640  0.86480668  0.85750305  1
  O  O80  1  0.50418938  0.63905009  0.85669375  1
  O  O81  1  0.02189130  0.83465987  0.40901416  1
  O  O82  1  0.81141453  0.97446270  0.40945011  1
  O  O83  1  0.16490550  0.18968949  0.41030442  1
  O  O84  1  0.02700731  0.18941021  0.90960031  1
  O  O85  1  0.16668599  0.97870682  0.90929217  1
  O  O86  1  0.81080069  0.83466853  0.91037105  1
  O  O87  1  0.97143881  0.15866555  0.59040176  1
  O  O88  1  0.18283135  0.01964580  0.58954363  1
  O  O89  1  0.83900691  0.81301300  0.59005916  1
  O  O90  1  0.96928726  0.81249056  0.08975220  1
  O  O91  1  0.83227308  0.02812739  0.08896059  1
  O  O92  1  0.18071999  0.16477313  0.08924821  1
  O  O93  1  0.68552981  0.16221822  0.75028668  1
  O  O94  1  0.45809751  0.30636420  0.74940215  1
  O  O95  1  0.83302030  0.52587005  0.75150615  1
  O  O96  1  0.69395508  0.54268848  0.24922955  1
  O  O97  1  0.83566292  0.31272781  0.24938169  1
  O  O98  1  0.47580070  0.16562393  0.24935699  1
  O  O99  1  0.63990772  0.49458970  0.92383673  1
  O  O100  1  0.85292466  0.35606468  0.92506535  1
  O  O101  1  0.50773035  0.14473873  0.92487222  1
  O  O102  1  0.64084046  0.14634188  0.42297205  1
  O  O103  1  0.50674019  0.36073464  0.42373624  1
  O  O104  1  0.85412270  0.49315148  0.42380851  1
  O  O105  1  0.34373008  0.49792399  0.07520582  1
  O  O106  1  0.14967448  0.64974296  0.07366358  1
  O  O107  1  0.50925650  0.85782994  0.07358079  1
  O  O108  1  0.34713098  0.84961930  0.57379193  1
  O  O109  1  0.50543564  0.66077444  0.57485246  1
  O  O110  1  0.15027577  0.50281821  0.57289389  1
  O  O111  1  0.30055799  0.82040149  0.25500255  1
  O  O112  1  0.53415981  0.70768059  0.25557106  1
  O  O113  1  0.18214558  0.47749340  0.25495316  1
  O  O114  1  0.29160586  0.46520601  0.75547226  1
  O  O115  1  0.17907119  0.69825592  0.75527442  1
  O  O116  1  0.52174831  0.81579250  0.75505860  1
