# generated using pymatgen
data_Na6Nb2Al2Si5SO24
_symmetry_space_group_name_H-M   'P 1'
_cell_length_a   8.92894487
_cell_length_b   8.91650740
_cell_length_c   22.15177282
_cell_angle_alpha   90.34884831
_cell_angle_beta   89.51995938
_cell_angle_gamma   120.10430736
_symmetry_Int_Tables_number   1
_chemical_formula_structural   Na6Nb2Al2Si5SO24
_chemical_formula_sum   'Na18 Nb6 Al6 Si15 S3 O72'
_cell_volume   1525.66901857
_cell_formula_units_Z   3
loop_
 _symmetry_equiv_pos_site_id
 _symmetry_equiv_pos_as_xyz
  1  'x, y, z'
loop_
 _atom_site_type_symbol
 _atom_site_label
 _atom_site_symmetry_multiplicity
 _atom_site_fract_x
 _atom_site_fract_y
 _atom_site_fract_z
 _atom_site_occupancy
  Na  Na0  1  0.63771953  0.00917937  0.24752170  1
  Na  Na1  1  0.36635857  0.35869640  0.25072643  1
  Na  Na2  1  0.99473897  0.63031064  0.24765678  1
  Na  Na3  1  0.99630949  0.36178826  0.74989777  1
  Na  Na4  1  0.29948912  0.33942455  0.58037957  1
  Na  Na5  1  0.66405374  0.96467641  0.58058986  1
  Na  Na6  1  0.66504511  0.70116038  0.07719822  1
  Na  Na7  1  0.02481845  0.33472966  0.08096646  1
  Na  Na8  1  0.95930495  0.66423275  0.91425696  1
  Na  Na9  1  0.70848190  0.03529376  0.91885812  1
  Na  Na10  1  0.33090517  0.30310998  0.91492609  1
  Na  Na11  1  0.69884127  0.67068748  0.41676067  1
  Na  Na12  1  0.00731265  0.00814377  0.49461457  1
  Na  Na13  1  0.99518261  0.99628556  0.99703677  1
  Na  Na14  1  0.66448039  0.33841556  0.83310602  1
  Na  Na15  1  0.66107951  0.32135555  0.33156937  1
  Na  Na16  1  0.32976076  0.68287351  0.16127226  1
  Na  Na17  1  0.33067884  0.67509086  0.66211228  1
  Nb  Nb18  1  0.99723626  0.99277110  0.64591730  1
  Nb  Nb19  1  0.99425467  0.99261492  0.14668341  1
  Nb  Nb20  1  0.66458541  0.33414731  0.68812339  1
  Nb  Nb21  1  0.65582357  0.32045024  0.47899677  1
  Nb  Nb22  1  0.34329370  0.67066084  0.31324183  1
  Nb  Nb23  1  0.33535992  0.65405948  0.81003948  1
  Al  Al24  1  0.00293742  0.01897365  0.35142018  1
  Al  Al25  1  0.98564149  0.00061679  0.85024882  1
  Al  Al26  1  0.68076954  0.32811534  0.18774091  1
  Al  Al27  1  0.69548892  0.35060484  0.98203691  1
  Al  Al28  1  0.33450644  0.67452000  0.01879734  1
  Al  Al29  1  0.34255365  0.66223978  0.52191682  1
  Si  Si30  1  0.29063815  0.00813279  0.25258637  1
  Si  Si31  1  0.71667344  0.70493500  0.25338811  1
  Si  Si32  1  0.99508712  0.28743686  0.25094684  1
  Si  Si33  1  0.28410600  0.27302049  0.75371457  1
  Si  Si34  1  0.00057453  0.71742321  0.75537079  1
  Si  Si35  1  0.71034358  0.99912421  0.75265095  1
  Si  Si36  1  0.96678485  0.34580528  0.58196896  1
  Si  Si37  1  0.37012867  0.02851687  0.58308615  1
  Si  Si38  1  0.66582674  0.62426890  0.58082177  1
  Si  Si39  1  0.96102113  0.61840394  0.08270005  1
  Si  Si40  1  0.65322813  0.04497212  0.08163553  1
  Si  Si41  1  0.62651872  0.66436749  0.92162981  1
  Si  Si42  1  0.04351886  0.37303595  0.92069013  1
  Si  Si43  1  0.63247803  0.95598193  0.41943784  1
  Si  Si44  1  0.32043662  0.36648299  0.41965062  1
  S  S45  1  0.38297439  0.33301966  0.08232371  1
  S  S46  1  0.33428953  0.95654723  0.91908896  1
  S  S47  1  0.04930373  0.67070175  0.41879648  1
  O  O48  1  0.19209002  0.03676704  0.30822214  1
  O  O49  1  0.83833531  0.79642578  0.31063127  1
  O  O50  1  0.95721879  0.15843528  0.30612196  1
  O  O51  1  0.19241540  0.16426043  0.81366120  1
  O  O52  1  0.97429518  0.80771066  0.81435439  1
  O  O53  1  0.83124733  0.03780783  0.81105708  1
  O  O54  1  0.79554065  0.96861090  0.69104349  1
  O  O55  1  0.16655460  0.20030924  0.69238740  1
  O  O56  1  0.02918748  0.83431407  0.69418656  1
  O  O57  1  0.79576650  0.83286685  0.19245405  1
  O  O58  1  0.04071354  0.20889020  0.18927075  1
  O  O59  1  0.16200347  0.96643156  0.19246335  1
  O  O60  1  0.87105026  0.36526485  0.64307334  1
  O  O61  1  0.50141755  0.13005501  0.63981813  1
  O  O62  1  0.63404717  0.49635268  0.63867664  1
  O  O63  1  0.86791510  0.50118193  0.14272817  1
  O  O64  1  0.63766957  0.13491599  0.14371800  1
  O  O65  1  0.48519701  0.35792604  0.13756902  1
  O  O66  1  0.46286021  0.30817653  0.02739136  1
  O  O67  1  0.83501829  0.54225816  0.02388426  1
  O  O68  1  0.69409737  0.17061656  0.02271649  1
  O  O69  1  0.46307800  0.16612212  0.52573019  1
  O  O70  1  0.69967805  0.53632704  0.52123140  1
  O  O71  1  0.82754053  0.30097195  0.52661046  1
  O  O72  1  0.53070936  0.70059235  0.97797491  1
  O  O73  1  0.17308005  0.47215891  0.97692338  1
  O  O74  1  0.30421640  0.84343446  0.97203631  1
  O  O75  1  0.53181658  0.83144136  0.47612134  1
  O  O76  1  0.30661744  0.46891799  0.47758664  1
  O  O77  1  0.15475688  0.68952104  0.47054047  1
  O  O78  1  0.12549597  0.64284819  0.36111323  1
  O  O79  1  0.50576853  0.86757068  0.35830631  1
  O  O80  1  0.35961018  0.49815799  0.35920122  1
  O  O81  1  0.13139544  0.49975773  0.86013754  1
  O  O82  1  0.36635540  0.87965267  0.86401496  1
  O  O83  1  0.49712822  0.63374049  0.86228443  1
  O  O84  1  0.02563618  0.82231700  0.41264678  1
  O  O85  1  0.81618532  0.96390339  0.40896943  1
  O  O86  1  0.15618840  0.17717392  0.40935728  1
  O  O87  1  0.02626912  0.18126416  0.91208257  1
  O  O88  1  0.17776674  0.97336836  0.91436985  1
  O  O89  1  0.81852045  0.83711648  0.91167664  1
  O  O90  1  0.97689896  0.16610772  0.58821205  1
  O  O91  1  0.18925230  0.03006651  0.58843864  1
  O  O92  1  0.83564155  0.81740715  0.58700926  1
  O  O93  1  0.97667034  0.81415102  0.08881939  1
  O  O94  1  0.83698117  0.02775112  0.08776745  1
  O  O95  1  0.20295610  0.17790726  0.08587797  1
  O  O96  1  0.69645438  0.17401003  0.74486822  1
  O  O97  1  0.47898287  0.30625473  0.74598302  1
  O  O98  1  0.83358251  0.52113976  0.74585572  1
  O  O99  1  0.68473629  0.51234860  0.24011784  1
  O  O100  1  0.82791462  0.31218372  0.24364166  1
  O  O101  1  0.48240123  0.17500264  0.24147091  1
  O  O102  1  0.63581866  0.48384682  0.92616556  1
  O  O103  1  0.84970608  0.35421507  0.92365243  1
  O  O104  1  0.48932896  0.13255348  0.92487197  1
  O  O105  1  0.64876739  0.14893717  0.42119442  1
  O  O106  1  0.50928405  0.36689983  0.42074042  1
  O  O107  1  0.87107422  0.51138771  0.42052669  1
  O  O108  1  0.36170389  0.48912484  0.07853217  1
  O  O109  1  0.15130088  0.63569028  0.07403850  1
  O  O110  1  0.49403066  0.84401522  0.07500853  1
  O  O111  1  0.36088797  0.84691792  0.57312106  1
  O  O112  1  0.49493071  0.64260562  0.57764233  1
  O  O113  1  0.15723378  0.51020879  0.57465604  1
  O  O114  1  0.30621244  0.83020116  0.25650177  1
  O  O115  1  0.52313299  0.69141997  0.25556524  1
  O  O116  1  0.16896314  0.48229043  0.25686168  1
  O  O117  1  0.30101326  0.46910953  0.75657986  1
  O  O118  1  0.16902744  0.68819481  0.75847205  1
  O  O119  1  0.51701287  0.83000984  0.75836204  1
