# generated using pymatgen
data_Na2CaYP(SO6)2
_symmetry_space_group_name_H-M   'P 1'
_cell_length_a   9.31918261
_cell_length_b   9.28007158
_cell_length_c   24.01678152
_cell_angle_alpha   89.95919486
_cell_angle_beta   90.00000000
_cell_angle_gamma   120.13951331
_symmetry_Int_Tables_number   1
_chemical_formula_structural   Na2CaYP(SO6)2
_chemical_formula_sum   'Na12 Ca6 Y6 P6 S12 O72'
_cell_volume   1796.23096054
_cell_formula_units_Z   6
loop_
 _symmetry_equiv_pos_site_id
 _symmetry_equiv_pos_as_xyz
  1  'x, y, z'
loop_
 _atom_site_type_symbol
 _atom_site_label
 _atom_site_symmetry_multiplicity
 _atom_site_fract_x
 _atom_site_fract_y
 _atom_site_fract_z
 _atom_site_occupancy
  Na  Na0  1  0.00222263  0.64017146  0.24415969  1
  Na  Na1  1  0.63794883  0.64017146  0.74415969  1
  Na  Na2  1  0.65972162  0.95657717  0.57999264  1
  Na  Na3  1  0.29685656  0.95657717  0.07999264  1
  Na  Na4  1  0.69147494  0.02740843  0.91144238  1
  Na  Na5  1  0.33593249  0.02740843  0.41144238  1
  Na  Na6  1  0.98124859  0.99016097  0.49646714  1
  Na  Na7  1  0.00891238  0.99016097  0.99646714  1
  Na  Na8  1  0.65875267  0.31411673  0.82980509  1
  Na  Na9  1  0.65536506  0.31411673  0.32980509  1
  Na  Na10  1  0.33039330  0.66059415  0.16353929  1
  Na  Na11  1  0.33019986  0.66059415  0.66353929  1
  Ca  Ca12  1  0.99240784  0.00400105  0.35037127  1
  Ca  Ca13  1  0.01159321  0.00400105  0.85037127  1
  Ca  Ca14  1  0.66592834  0.32811726  0.68340701  1
  Ca  Ca15  1  0.66218991  0.32811726  0.18340701  1
  Ca  Ca16  1  0.32320555  0.66024442  0.01651427  1
  Ca  Ca17  1  0.33703787  0.66024442  0.51651427  1
  Y  Y18  1  0.99795837  0.99705047  0.65032263  1
  Y  Y19  1  0.99909210  0.99705047  0.15032263  1
  Y  Y20  1  0.67237898  0.34655758  0.98384616  1
  Y  Y21  1  0.67417960  0.34655758  0.48384616  1
  Y  Y22  1  0.34713485  0.67864967  0.31678466  1
  Y  Y23  1  0.33151382  0.67864967  0.81678466  1
  P  P24  1  0.29599199  0.99879732  0.25203020  1
  P  P25  1  0.70280533  0.99879732  0.75203020  1
  P  P26  1  0.66687080  0.63409144  0.58669347  1
  P  P27  1  0.96722163  0.63409144  0.08669347  1
  P  P28  1  0.33710300  0.96907141  0.92032944  1
  P  P29  1  0.63196741  0.96907141  0.42032944  1
  S  S30  1  0.70408648  0.70292022  0.25031137  1
  S  S31  1  0.00148976  0.30098927  0.25018064  1
  S  S32  1  0.29949951  0.30098927  0.75018064  1
  S  S33  1  0.99883373  0.70292022  0.75031137  1
  S  S34  1  0.96255213  0.33265700  0.58395851  1
  S  S35  1  0.36944488  0.03700352  0.58215242  1
  S  S36  1  0.66755964  0.03700352  0.08215242  1
  S  S37  1  0.37010588  0.33265700  0.08395851  1
  S  S38  1  0.62769473  0.66741857  0.91587395  1
  S  S39  1  0.03371153  0.36738833  0.91674837  1
  S  S40  1  0.33367580  0.36738833  0.41674837  1
  S  S41  1  0.03972284  0.66741857  0.41587395  1
  O  O42  1  0.21222751  0.01361266  0.30510503  1
  O  O43  1  0.80518577  0.78352750  0.30005899  1
  O  O44  1  0.98040489  0.20145561  0.30003682  1
  O  O45  1  0.22105071  0.20145561  0.80003682  1
  O  O46  1  0.97834173  0.78352750  0.80005899  1
  O  O47  1  0.80138515  0.01361266  0.80510503  1
  O  O48  1  0.78888107  0.97336453  0.69910101  1
  O  O49  1  0.19976727  0.21926328  0.69948412  1
  O  O50  1  0.02466850  0.80671813  0.69980582  1
  O  O51  1  0.78204963  0.80671813  0.19980582  1
  O  O52  1  0.01949601  0.21926328  0.19948412  1
  O  O53  1  0.18448347  0.97336453  0.19910101  1
  O  O54  1  0.88334314  0.35149329  0.63415903  1
  O  O55  1  0.47552967  0.11874626  0.63089617  1
  O  O56  1  0.65115323  0.53859392  0.64057222  1
  O  O57  1  0.88744169  0.53859392  0.14057222  1
  O  O58  1  0.64321760  0.11874626  0.13089617  1
  O  O59  1  0.46815115  0.35149329  0.13415903  1
  O  O60  1  0.44955352  0.30545021  0.03376218  1
  O  O61  1  0.85788647  0.54397963  0.03487648  1
  O  O62  1  0.68908543  0.13655671  0.03037954  1
  O  O63  1  0.44747228  0.13655671  0.53037954  1
  O  O64  1  0.68609416  0.54397963  0.53487648  1
  O  O65  1  0.85589769  0.30545021  0.53376218  1
  O  O66  1  0.54444368  0.68651072  0.96491670  1
  O  O67  1  0.13189617  0.44467062  0.96669669  1
  O  O68  1  0.31991669  0.87101107  0.97380760  1
  O  O69  1  0.55109338  0.87101107  0.47380760  1
  O  O70  1  0.31277345  0.44467062  0.46669669  1
  O  O71  1  0.14206604  0.68651072  0.46491670  1
  O  O72  1  0.11544979  0.64384177  0.36408368  1
  O  O73  1  0.51590068  0.87873056  0.36880045  1
  O  O74  1  0.35339071  0.46816683  0.36623979  1
  O  O75  1  0.11477512  0.46816683  0.86623979  1
  O  O76  1  0.36282888  0.87873056  0.86880045  1
  O  O77  1  0.52839098  0.64384177  0.86408368  1
  O  O78  1  0.02956208  0.82223603  0.41125701  1
  O  O79  1  0.80513930  0.99087324  0.41329930  1
  O  O80  1  0.18982894  0.19492763  0.41201274  1
  O  O81  1  0.00509869  0.19492763  0.91201274  1
  O  O82  1  0.18573394  0.99087324  0.91329930  1
  O  O83  1  0.79267396  0.82223603  0.91125701  1
  O  O84  1  0.97099511  0.17434085  0.58823178  1
  O  O85  1  0.20307028  0.02111395  0.58819868  1
  O  O86  1  0.82613281  0.81543377  0.58789661  1
  O  O87  1  0.98930095  0.81543377  0.08789661  1
  O  O88  1  0.81804367  0.02111395  0.08819868  1
  O  O89  1  0.20334574  0.17434085  0.08823178  1
  O  O90  1  0.67776467  0.14900976  0.74596365  1
  O  O91  1  0.47072914  0.32746079  0.74554933  1
  O  O92  1  0.84453840  0.53878265  0.74481610  1
  O  O93  1  0.69424526  0.53878265  0.24481610  1
  O  O94  1  0.85673265  0.32746079  0.24554933  1
  O  O95  1  0.47124609  0.14900976  0.24596365  1
  O  O96  1  0.64838417  0.51839529  0.92070109  1
  O  O97  1  0.86325765  0.34953069  0.92098821  1
  O  O98  1  0.50617736  0.14136811  0.92261056  1
  O  O99  1  0.63519175  0.14136811  0.42261056  1
  O  O100  1  0.48627404  0.34953069  0.42098821  1
  O  O101  1  0.87001211  0.51839529  0.42070109  1
  O  O102  1  0.34930937  0.47812084  0.07766776  1
  O  O103  1  0.14569416  0.66199365  0.08146834  1
  O  O104  1  0.51581580  0.86997189  0.07746724  1
  O  O105  1  0.35415508  0.86997189  0.57746724  1
  O  O106  1  0.51629849  0.66199365  0.58146834  1
  O  O107  1  0.12881047  0.47812084  0.57766776  1
  O  O108  1  0.29877455  0.82858870  0.25470762  1
  O  O109  1  0.53484209  0.68143777  0.25491893  1
  O  O110  1  0.15410450  0.47143465  0.25453212  1
  O  O111  1  0.31732915  0.47143465  0.75453212  1
  O  O112  1  0.14659469  0.68143777  0.75491893  1
  O  O113  1  0.52981315  0.82858870  0.75470762  1
