# generated using pymatgen
data_NaBiF6
_symmetry_space_group_name_H-M   'P 1'
_cell_length_a   5.93732212
_cell_length_b   5.93732098
_cell_length_c   5.93732136
_cell_angle_alpha   52.74522812
_cell_angle_beta   52.74523854
_cell_angle_gamma   52.74522570
_symmetry_Int_Tables_number   1
_chemical_formula_structural   NaBiF6
_chemical_formula_sum   'Na1 Bi1 F6'
_cell_volume   122.81161659
_cell_formula_units_Z   1
loop_
 _symmetry_equiv_pos_site_id
 _symmetry_equiv_pos_as_xyz
  1  'x, y, z'
loop_
 _atom_site_type_symbol
 _atom_site_label
 _atom_site_symmetry_multiplicity
 _atom_site_fract_x
 _atom_site_fract_y
 _atom_site_fract_z
 _atom_site_occupancy
  Na  Na0  1  0.50000000  0.50000000  0.50000000  1
  Bi  Bi1  1  0.00000000  0.00000000  0.00000000  1
  F  F2  1  0.38502092  0.76140576  0.08399142  1
  F  F3  1  0.08399142  0.38502092  0.76140576  1
  F  F4  1  0.76140576  0.08399142  0.38502092  1
  F  F5  1  0.61497908  0.23859424  0.91600858  1
  F  F6  1  0.91600858  0.61497908  0.23859424  1
  F  F7  1  0.23859424  0.91600858  0.61497908  1
