# generated using pymatgen
data_Na2Nb3InSi4(SO12)2
_symmetry_space_group_name_H-M   'P 1'
_cell_length_a   8.89215807
_cell_length_b   8.93459509
_cell_length_c   23.10762956
_cell_angle_alpha   90.20885696
_cell_angle_beta   90.44205545
_cell_angle_gamma   119.88964204
_symmetry_Int_Tables_number   1
_chemical_formula_structural   Na2Nb3InSi4(SO12)2
_chemical_formula_sum   'Na6 Nb9 In3 Si12 S6 O72'
_cell_volume   1591.55196648
_cell_formula_units_Z   3
loop_
 _symmetry_equiv_pos_site_id
 _symmetry_equiv_pos_as_xyz
  1  'x, y, z'
loop_
 _atom_site_type_symbol
 _atom_site_label
 _atom_site_symmetry_multiplicity
 _atom_site_fract_x
 _atom_site_fract_y
 _atom_site_fract_z
 _atom_site_occupancy
  Na  Na0  1  0.98518172  0.98044486  0.49911593  1
  Na  Na1  1  0.99962809  0.99245363  0.99812402  1
  Na  Na2  1  0.65472558  0.31936654  0.83061049  1
  Na  Na3  1  0.66951724  0.31946148  0.32372398  1
  Na  Na4  1  0.32099990  0.65204075  0.16081183  1
  Na  Na5  1  0.35239339  0.66387253  0.66714933  1
  Nb  Nb6  1  0.99870201  0.00267503  0.35240913  1
  Nb  Nb7  1  0.00471777  0.01572156  0.85861768  1
  Nb  Nb8  1  0.98509145  0.99385013  0.64848818  1
  Nb  Nb9  1  0.02310547  0.01322179  0.14137520  1
  Nb  Nb10  1  0.66200190  0.34482275  0.97577842  1
  Nb  Nb11  1  0.67877559  0.34458820  0.47685650  1
  Nb  Nb12  1  0.32381259  0.66081062  0.01830039  1
  Nb  Nb13  1  0.31993255  0.67759447  0.31001866  1
  Nb  Nb14  1  0.34066325  0.66385114  0.81318634  1
  In  In15  1  0.65121446  0.33060609  0.69132152  1
  In  In16  1  0.67388511  0.33689503  0.18683655  1
  In  In17  1  0.35063876  0.68141961  0.51679584  1
  Si  Si18  1  0.29342723  0.01052651  0.25002259  1
  Si  Si19  1  0.00185844  0.28949612  0.24937751  1
  Si  Si20  1  0.28432851  0.28962089  0.75128790  1
  Si  Si21  1  0.70699993  0.00130861  0.75240790  1
  Si  Si22  1  0.66244662  0.62207983  0.58536955  1
  Si  Si23  1  0.95444512  0.62084733  0.08520276  1
  Si  Si24  1  0.38867197  0.34532633  0.08436295  1
  Si  Si25  1  0.62397295  0.67420882  0.91779718  1
  Si  Si26  1  0.04200512  0.38483562  0.91475579  1
  Si  Si27  1  0.33581243  0.95184928  0.91544062  1
  Si  Si28  1  0.62441471  0.95804514  0.41655661  1
  Si  Si29  1  0.04835467  0.67465089  0.41849780  1
  S  S30  1  0.70965897  0.71657552  0.25093203  1
  S  S31  1  0.00533600  0.71906495  0.75113273  1
  S  S32  1  0.95627605  0.33066378  0.58354019  1
  S  S33  1  0.37216634  0.04424057  0.58289280  1
  S  S34  1  0.66577918  0.03869120  0.08252209  1
  S  S35  1  0.33340577  0.37313199  0.41630863  1
  O  O36  1  0.18194996  0.00892814  0.30589166  1
  O  O37  1  0.81400838  0.80686524  0.30427847  1
  O  O38  1  0.98900708  0.17166322  0.30588529  1
  O  O39  1  0.18027313  0.17044228  0.80673764  1
  O  O40  1  0.98787203  0.80430522  0.80260020  1
  O  O41  1  0.82591160  0.00923448  0.80723837  1
  O  O42  1  0.80062585  0.96834786  0.69285326  1
  O  O43  1  0.16435048  0.18320822  0.69254231  1
  O  O44  1  0.01937757  0.82192038  0.69689777  1
  O  O45  1  0.78837096  0.81742694  0.19891543  1
  O  O46  1  0.01972013  0.18622346  0.19281209  1
  O  O47  1  0.17266017  0.97609920  0.19148250  1
  O  O48  1  0.87500679  0.34840066  0.63534710  1
  O  O49  1  0.47487757  0.11800625  0.63594951  1
  O  O50  1  0.65179571  0.51644510  0.64171636  1
  O  O51  1  0.89456207  0.51233661  0.14328012  1
  O  O52  1  0.63476433  0.10549702  0.13643072  1
  O  O53  1  0.48890511  0.37210705  0.14393582  1
  O  O54  1  0.47349811  0.30821487  0.02694748  1
  O  O55  1  0.83160552  0.52102905  0.02777279  1
  O  O56  1  0.69250659  0.14714440  0.03168186  1
  O  O57  1  0.46234882  0.14858992  0.53099083  1
  O  O58  1  0.68509616  0.51886330  0.52671398  1
  O  O59  1  0.84580515  0.30625401  0.52981018  1
  O  O60  1  0.53187528  0.69905102  0.97376166  1
  O  O61  1  0.16274292  0.47057979  0.97242209  1
  O  O62  1  0.30609856  0.83267373  0.97190022  1
  O  O63  1  0.57058886  0.84831214  0.47429029  1
  O  O64  1  0.29996300  0.43906172  0.46963342  1
  O  O65  1  0.15317001  0.69954499  0.47672166  1
  O  O66  1  0.13573033  0.63844230  0.36049255  1
  O  O67  1  0.49653801  0.85585984  0.36030511  1
  O  O68  1  0.36090594  0.48031952  0.36551919  1
  O  O69  1  0.13492109  0.50112816  0.85829513  1
  O  O70  1  0.36216662  0.85790882  0.85846474  1
  O  O71  1  0.50233316  0.63724372  0.85911904  1
  O  O72  1  0.01359400  0.83313542  0.40633345  1
  O  O73  1  0.82156519  0.99753283  0.40274145  1
  O  O74  1  0.18318263  0.19436415  0.40849224  1
  O  O75  1  0.02785518  0.19419216  0.91037252  1
  O  O76  1  0.16419785  0.97227951  0.90645922  1
  O  O77  1  0.81567444  0.83740759  0.90888215  1
  O  O78  1  0.96669551  0.16643764  0.58624824  1
  O  O79  1  0.20044430  0.03780297  0.58642360  1
  O  O80  1  0.84720201  0.81581590  0.58921547  1
  O  O81  1  0.96464348  0.81283697  0.09107125  1
  O  O82  1  0.82409659  0.01949472  0.08835141  1
  O  O83  1  0.18799290  0.16762370  0.08836394  1
  O  O84  1  0.70721843  0.17916361  0.74644910  1
  O  O85  1  0.47353838  0.31035387  0.75339305  1
  O  O86  1  0.85327573  0.54645232  0.74667242  1
  O  O87  1  0.69720724  0.54723025  0.25157661  1
  O  O88  1  0.83699924  0.31473038  0.25006782  1
  O  O89  1  0.47993407  0.17654567  0.24975854  1
  O  O90  1  0.63658307  0.49725480  0.92335079  1
  O  O91  1  0.85067212  0.35737070  0.92459507  1
  O  O92  1  0.50617801  0.14138739  0.92581662  1
  O  O93  1  0.63714907  0.14877080  0.42611204  1
  O  O94  1  0.49022755  0.35122395  0.42294715  1
  O  O95  1  0.85217173  0.49647736  0.42501846  1
  O  O96  1  0.35494392  0.50655826  0.07350561  1
  O  O97  1  0.15466671  0.66323724  0.07231330  1
  O  O98  1  0.51461955  0.86235609  0.07478463  1
  O  O99  1  0.34156463  0.86665451  0.57894076  1
  O  O100  1  0.49538263  0.64710326  0.58058201  1
  O  O101  1  0.12935356  0.47902677  0.57613922  1
  O  O102  1  0.30038923  0.82652373  0.25629514  1
  O  O103  1  0.53530340  0.70025037  0.25801520  1
  O  O104  1  0.18683716  0.47445802  0.25994031  1
  O  O105  1  0.28658102  0.47399248  0.75509284  1
  O  O106  1  0.16800919  0.71184074  0.75215970  1
  O  O107  1  0.51777043  0.82557568  0.75595424  1
