# generated using pymatgen
data_Na8Hf3ZnSi4(PO12)2
_symmetry_space_group_name_H-M   'P 1'
_cell_length_a   9.21306109
_cell_length_b   9.19517300
_cell_length_c   22.51309567
_cell_angle_alpha   89.92216617
_cell_angle_beta   90.21127462
_cell_angle_gamma   120.09802818
_symmetry_Int_Tables_number   1
_chemical_formula_structural   Na8Hf3ZnSi4(PO12)2
_chemical_formula_sum   'Na24 Hf9 Zn3 Si12 P6 O72'
_cell_volume   1650.04898980
_cell_formula_units_Z   3
loop_
 _symmetry_equiv_pos_site_id
 _symmetry_equiv_pos_as_xyz
  1  'x, y, z'
loop_
 _atom_site_type_symbol
 _atom_site_label
 _atom_site_symmetry_multiplicity
 _atom_site_fract_x
 _atom_site_fract_y
 _atom_site_fract_z
 _atom_site_occupancy
  Na  Na0  1  0.63869898  0.01821909  0.24186343  1
  Na  Na1  1  0.38088530  0.36122999  0.24286294  1
  Na  Na2  1  0.98106817  0.62084212  0.24293060  1
  Na  Na3  1  0.63656423  0.62100689  0.74519014  1
  Na  Na4  1  0.98008184  0.36576320  0.74876710  1
  Na  Na5  1  0.38335508  0.01296823  0.74359708  1
  Na  Na6  1  0.31353923  0.33503750  0.58550130  1
  Na  Na7  1  0.02982919  0.69845930  0.58437496  1
  Na  Na8  1  0.66120097  0.97085630  0.58994108  1
  Na  Na9  1  0.31004460  0.97172659  0.08318954  1
  Na  Na10  1  0.66178140  0.68995406  0.08320834  1
  Na  Na11  1  0.02846427  0.33827864  0.08295506  1
  Na  Na12  1  0.96679333  0.66477474  0.91692081  1
  Na  Na13  1  0.69875833  0.03456697  0.91689278  1
  Na  Na14  1  0.33425930  0.30156965  0.91828875  1
  Na  Na15  1  0.97047944  0.29089487  0.41220128  1
  Na  Na16  1  0.31476417  0.03208087  0.41473302  1
  Na  Na17  1  0.71377360  0.67803939  0.41170335  1
  Na  Na18  1  0.00602920  0.99800859  0.49423185  1
  Na  Na19  1  0.00073252  0.00092695  0.99908754  1
  Na  Na20  1  0.67089584  0.33360908  0.82767987  1
  Na  Na21  1  0.66769680  0.33702072  0.32701916  1
  Na  Na22  1  0.33426018  0.66735826  0.16159944  1
  Na  Na23  1  0.33921898  0.67525062  0.66839465  1
  Hf  Hf24  1  0.99427461  0.99567957  0.85225854  1
  Hf  Hf25  1  0.99810871  0.99326435  0.64778475  1
  Hf  Hf26  1  0.00034998  0.99980567  0.14769146  1
  Hf  Hf27  1  0.66718137  0.33359982  0.98244752  1
  Hf  Hf28  1  0.66377339  0.33814817  0.48154373  1
  Hf  Hf29  1  0.33325327  0.66685875  0.01799688  1
  Hf  Hf30  1  0.33171855  0.66665005  0.51814151  1
  Hf  Hf31  1  0.33014324  0.66211808  0.31546585  1
  Hf  Hf32  1  0.33404096  0.67030841  0.81435359  1
  Zn  Zn33  1  0.00801639  0.00029875  0.35036938  1
  Zn  Zn34  1  0.66563319  0.33208741  0.68245000  1
  Zn  Zn35  1  0.66669375  0.33336959  0.17076422  1
  Si  Si36  1  0.99934504  0.70145430  0.74995291  1
  Si  Si37  1  0.70360411  0.00066053  0.74926777  1
  Si  Si38  1  0.37389207  0.04004580  0.58508926  1
  Si  Si39  1  0.66532132  0.62725324  0.58556413  1
  Si  Si40  1  0.96221778  0.62724378  0.08608659  1
  Si  Si41  1  0.66568440  0.03839340  0.08604601  1
  Si  Si42  1  0.37316785  0.33458161  0.08581673  1
  Si  Si43  1  0.62647346  0.66504294  0.91645874  1
  Si  Si44  1  0.03862710  0.37234243  0.91613341  1
  Si  Si45  1  0.33425644  0.96289400  0.91660438  1
  Si  Si46  1  0.33226767  0.36970511  0.41656380  1
  Si  Si47  1  0.03543404  0.66479427  0.41614553  1
  P  P48  1  0.29556339  -0.00004163  0.25263418  1
  P  P49  1  0.70684854  0.70921030  0.25330065  1
  P  P50  1  0.00049499  0.29215809  0.25325660  1
  P  P51  1  0.28935240  0.29263314  0.75062821  1
  P  P52  1  0.96062322  0.33414726  0.58381960  1
  P  P53  1  0.62404241  0.95968256  0.41666828  1
  O  O54  1  0.21430177  0.02177398  0.30856681  1
  O  O55  1  0.81061825  0.79330473  0.30910117  1
  O  O56  1  0.97917055  0.18762247  0.30892973  1
  O  O57  1  0.19751809  0.18316422  0.80554397  1
  O  O58  1  0.98047665  0.80009205  0.80777001  1
  O  O59  1  0.82142082  0.02240551  0.80755684  1
  O  O60  1  0.79812427  0.97522558  0.69106444  1
  O  O61  1  0.18017086  0.20733279  0.69412676  1
  O  O62  1  0.03122748  0.82468848  0.69168398  1
  O  O63  1  0.79432400  0.81981959  0.19716657  1
  O  O64  1  0.02598574  0.20636238  0.19724933  1
  O  O65  1  0.18191592  0.97356837  0.19701112  1
  O  O66  1  0.89068801  0.37055517  0.63929665  1
  O  O67  1  0.49063415  0.11449968  0.64345382  1
  O  O68  1  0.62544510  0.51042676  0.64360904  1
  O  O69  1  0.88869830  0.51414662  0.14533079  1
  O  O70  1  0.62609360  0.11176836  0.14514016  1
  O  O71  1  0.48634719  0.37447458  0.14516637  1
  O  O72  1  0.45907818  0.29946973  0.02760499  1
  O  O73  1  0.84125306  0.54159643  0.02763041  1
  O  O74  1  0.70067981  0.15947085  0.02774160  1
  O  O75  1  0.46492366  0.15756036  0.52591090  1
  O  O76  1  0.69901213  0.53969661  0.52663862  1
  O  O77  1  0.84834190  0.30555988  0.52799081  1
  O  O78  1  0.53990900  0.69748339  0.97433522  1
  O  O79  1  0.15691000  0.46002000  0.97442883  1
  O  O80  1  0.30144278  0.84333651  0.97453099  1
  O  O81  1  0.53467526  0.84932720  0.47166395  1
  O  O82  1  0.31203622  0.46681069  0.47422852  1
  O  O83  1  0.15510628  0.69096355  0.47399941  1
  O  O84  1  0.13191420  0.63814804  0.35856487  1
  O  O85  1  0.51109191  0.87389734  0.36113775  1
  O  O86  1  0.36645522  0.49477466  0.35883801  1
  O  O87  1  0.12802673  0.49163698  0.85811553  1
  O  O88  1  0.36476874  0.87241934  0.85887518  1
  O  O89  1  0.50726594  0.63444824  0.85824386  1
  O  O90  1  0.01276206  0.82829882  0.41305780  1
  O  O91  1  0.79809536  0.97735518  0.41333061  1
  O  O92  1  0.16433859  0.18631035  0.41332897  1
  O  O93  1  0.02143100  0.18594934  0.91176999  1
  O  O94  1  0.16825338  0.98419587  0.91112933  1
  O  O95  1  0.81386251  0.83371019  0.91219071  1
  O  O96  1  0.98094401  0.17582441  0.58801027  1
  O  O97  1  0.18826836  0.02792093  0.58768094  1
  O  O98  1  0.83514829  0.81656650  0.58763442  1
  O  O99  1  0.97984035  0.81518111  0.09147686  1
  O  O100  1  0.83554351  0.02047050  0.09157879  1
  O  O101  1  0.18497974  0.16464469  0.09135285  1
  O  O102  1  0.68461855  0.16616976  0.74786034  1
  O  O103  1  0.46276215  0.30946381  0.74898534  1
  O  O104  1  0.83113235  0.51900205  0.74706623  1
  O  O105  1  0.68220139  0.53131081  0.24888989  1
  O  O106  1  0.84859555  0.31801330  0.24842767  1
  O  O107  1  0.47253892  0.15390605  0.24778715  1
  O  O108  1  0.64534785  0.49794430  0.92215662  1
  O  O109  1  0.85321891  0.35465283  0.92194565  1
  O  O110  1  0.50315529  0.14782720  0.92190694  1
  O  O111  1  0.63854155  0.13549917  0.42195481  1
  O  O112  1  0.50403178  0.35545323  0.42095804  1
  O  O113  1  0.85406293  0.48780813  0.42046572  1
  O  O114  1  0.34697547  0.49767349  0.07752946  1
  O  O115  1  0.15119616  0.65349143  0.07777033  1
  O  O116  1  0.50264999  0.84891954  0.07774617  1
  O  O117  1  0.34397549  0.84766819  0.57701410  1
  O  O118  1  0.50207451  0.65410347  0.57640036  1
  O  O119  1  0.14067454  0.49022921  0.57519679  1
  O  O120  1  0.30867736  0.83402365  0.25490841  1
  O  O121  1  0.52888077  0.69840239  0.25477549  1
  O  O122  1  0.16810018  0.47146393  0.25508784  1
  O  O123  1  0.30161549  0.46767431  0.75411320  1
  O  O124  1  0.17123037  0.68805272  0.75303913  1
  O  O125  1  0.52064497  0.82413560  0.75278742  1
