# generated using pymatgen
data_Na6Hf2Ti2Si5SO24
_symmetry_space_group_name_H-M   'P 1'
_cell_length_a   9.05475894
_cell_length_b   9.04111136
_cell_length_c   22.43744759
_cell_angle_alpha   90.05810106
_cell_angle_beta   89.95001000
_cell_angle_gamma   119.95548829
_symmetry_Int_Tables_number   1
_chemical_formula_structural   Na6Hf2Ti2Si5SO24
_chemical_formula_sum   'Na18 Hf6 Ti6 Si15 S3 O72'
_cell_volume   1591.46521967
_cell_formula_units_Z   3
loop_
 _symmetry_equiv_pos_site_id
 _symmetry_equiv_pos_as_xyz
  1  'x, y, z'
loop_
 _atom_site_type_symbol
 _atom_site_label
 _atom_site_symmetry_multiplicity
 _atom_site_fract_x
 _atom_site_fract_y
 _atom_site_fract_z
 _atom_site_occupancy
  Na  Na0  1  0.64070184  0.00727365  0.24868835  1
  Na  Na1  1  0.36325903  0.36744798  0.24816751  1
  Na  Na2  1  0.99707712  0.63099035  0.24938326  1
  Na  Na3  1  0.63607427  0.63602951  0.74946782  1
  Na  Na4  1  -0.00001344  0.36594489  0.75139278  1
  Na  Na5  1  0.36736778  0.00062504  0.75129423  1
  Na  Na6  1  0.30201243  0.33144402  0.58566076  1
  Na  Na7  1  0.02899511  0.69768079  0.58302687  1
  Na  Na8  1  0.67017772  0.97048048  0.58318448  1
  Na  Na9  1  0.03525585  0.32939120  0.08675187  1
  Na  Na10  1  0.96884481  0.66593869  0.91693243  1
  Na  Na11  1  0.33130347  0.02566920  0.41652642  1
  Na  Na12  1  0.98159066  0.98878552  0.49805804  1
  Na  Na13  1  0.01123591  0.00411768  0.00043037  1
  Na  Na14  1  0.66009175  0.31659145  0.83857300  1
  Na  Na15  1  0.68462672  0.33809449  0.33259213  1
  Na  Na16  1  0.34275499  0.67010874  0.16307504  1
  Na  Na17  1  0.33473610  0.66651835  0.66748404  1
  Hf  Hf18  1  0.98761237  0.99169712  0.35066970  1
  Hf  Hf19  1  0.99980190  0.99888219  0.64819962  1
  Hf  Hf20  1  0.66937852  0.33381552  0.68795124  1
  Hf  Hf21  1  0.68013390  0.33585207  0.47818974  1
  Hf  Hf22  1  0.33615813  0.67471086  0.51904118  1
  Hf  Hf23  1  0.32912628  0.67132323  0.81773421  1
  Ti  Ti24  1  0.01563685  0.01746100  0.85324843  1
  Ti  Ti25  1  0.01247562  0.99476342  0.14820542  1
  Ti  Ti26  1  0.66763453  0.34833466  0.18506777  1
  Ti  Ti27  1  0.65575490  0.32777583  0.98243797  1
  Ti  Ti28  1  0.30373066  0.65121874  0.01982340  1
  Ti  Ti29  1  0.32844326  0.67968020  0.30993061  1
  Si  Si30  1  0.29675614  0.00717219  0.25054367  1
  Si  Si31  1  0.70823381  0.71177778  0.24649311  1
  Si  Si32  1  0.99973084  0.29108043  0.24643567  1
  Si  Si33  1  0.29364402  0.29403755  0.75079131  1
  Si  Si34  1  0.99959939  0.71169910  0.75372391  1
  Si  Si35  1  0.71242346  0.99867723  0.75273199  1
  Si  Si36  1  0.96214735  0.33231342  0.58427822  1
  Si  Si37  1  0.37502093  0.04372416  0.58193284  1
  Si  Si38  1  0.66564457  0.62354222  0.58364150  1
  Si  Si39  1  0.94898831  0.62630745  0.08205758  1
  Si  Si40  1  0.37576603  0.33631467  0.08327531  1
  Si  Si41  1  0.02956094  0.36410670  0.91793849  1
  Si  Si42  1  0.33447099  0.96306770  0.91942600  1
  Si  Si43  1  0.62636736  0.95829617  0.41453978  1
  Si  Si44  1  0.03937953  0.66680039  0.41426414  1
  S  S45  1  0.66294764  0.04264617  0.08313268  1
  S  S46  1  0.62272552  0.66512380  0.91947229  1
  S  S47  1  0.33301406  0.37736648  0.41455774  1
  O  O48  1  0.21916874  0.04740319  0.30985559  1
  O  O49  1  0.83315126  0.78599183  0.30486687  1
  O  O50  1  0.96010216  0.16445874  0.30346727  1
  O  O51  1  0.19553812  0.16376158  0.80702221  1
  O  O52  1  0.97195598  0.80586739  0.81133902  1
  O  O53  1  0.84534128  0.02922554  0.80714404  1
  O  O54  1  0.78863047  0.96546343  0.69097198  1
  O  O55  1  0.17759746  0.21492824  0.69090322  1
  O  O56  1  0.03460938  0.82497840  0.69298166  1
  O  O57  1  0.80582906  0.84467751  0.19170095  1
  O  O58  1  0.03599092  0.20173562  0.18851963  1
  O  O59  1  0.16221441  0.96513367  0.19497243  1
  O  O60  1  0.88132707  0.37018237  0.64385408  1
  O  O61  1  0.49409192  0.12868233  0.64115162  1
  O  O62  1  0.63318773  0.50960731  0.64431370  1
  O  O63  1  0.86285067  0.50100876  0.14094410  1
  O  O64  1  0.63971760  0.12011893  0.13868679  1
  O  O65  1  0.49624196  0.35778349  0.14214394  1
  O  O66  1  0.47952316  0.31079038  0.02765796  1
  O  O67  1  0.83413208  0.52658381  0.02377897  1
  O  O68  1  0.68940229  0.15738316  0.03090822  1
  O  O69  1  0.46125021  0.16159456  0.52292325  1
  O  O70  1  0.69887713  0.52948087  0.52741237  1
  O  O71  1  0.83398548  0.29586239  0.52781473  1
  O  O72  1  0.53229305  0.68276650  0.97035443  1
  O  O73  1  0.15464133  0.46423898  0.97640125  1
  O  O74  1  0.30671056  0.82325451  0.97287341  1
  O  O75  1  0.54053840  0.84947975  0.47531566  1
  O  O76  1  0.31508402  0.45743557  0.47009909  1
  O  O77  1  0.15267540  0.68863275  0.47393283  1
  O  O78  1  0.14328880  0.64990171  0.35562089  1
  O  O79  1  0.50073370  0.85170857  0.35707631  1
  O  O80  1  0.35009157  0.47883114  0.36111791  1
  O  O81  1  0.12092316  0.48902920  0.86006228  1
  O  O82  1  0.36756015  0.88520743  0.85771059  1
  O  O83  1  0.52510336  0.64309672  0.86258545  1
  O  O84  1  0.04037095  0.84829827  0.41085067  1
  O  O85  1  0.81679319  0.98407638  0.41101234  1
  O  O86  1  0.17961293  0.20323629  0.41216084  1
  O  O87  1  0.01777410  0.17819478  0.91190771  1
  O  O88  1  0.15377867  0.96515117  0.91402556  1
  O  O89  1  0.79680516  0.81725534  0.91508138  1
  O  O90  1  0.97960961  0.16198728  0.58725418  1
  O  O91  1  0.18487837  0.02048830  0.58688344  1
  O  O92  1  0.83450753  0.81343100  0.58712165  1
  O  O93  1  0.97262999  0.81643524  0.09050002  1
  O  O94  1  0.82372190  0.03483216  0.08611574  1
  O  O95  1  0.18306839  0.16817530  0.08990157  1
  O  O96  1  0.69349736  0.16948063  0.74915479  1
  O  O97  1  0.47890407  0.30540208  0.74831171  1
  O  O98  1  0.82942092  0.52231910  0.74926007  1
  O  O99  1  0.68701018  0.51937075  0.23937212  1
  O  O100  1  0.83109308  0.31389693  0.23931605  1
  O  O101  1  0.48757961  0.16887706  0.24015724  1
  O  O102  1  0.64295425  0.50963960  0.92256028  1
  O  O103  1  0.84743704  0.35885996  0.92632497  1
  O  O104  1  0.50226968  0.15197392  0.92920733  1
  O  O105  1  0.62304008  0.13876514  0.41574903  1
  O  O106  1  0.48657153  0.35708379  0.41843770  1
  O  O107  1  0.85095386  0.49782633  0.41560131  1
  O  O108  1  0.35438982  0.50663491  0.07573104  1
  O  O109  1  0.13884418  0.63621809  0.07605007  1
  O  O110  1  0.51232830  0.87132001  0.07590283  1
  O  O111  1  0.35487945  0.85303855  0.57865735  1
  O  O112  1  0.49501974  0.64035272  0.57800947  1
  O  O113  1  0.15068187  0.49870081  0.57706738  1
  O  O114  1  0.31085893  0.83122776  0.25470811  1
  O  O115  1  0.51722902  0.68681422  0.25496611  1
  O  O116  1  0.17177190  0.48133332  0.25560714  1
  O  O117  1  0.31643772  0.48324183  0.75864468  1
  O  O118  1  0.16973523  0.69052911  0.75745489  1
  O  O119  1  0.52411544  0.82851107  0.75868958  1
