# generated using pymatgen
data_Na5Ti2Si3Sn2(PO8)3
_symmetry_space_group_name_H-M   'P 1'
_cell_length_a   8.86631263
_cell_length_b   8.86305274
_cell_length_c   22.41907225
_cell_angle_alpha   90.01427435
_cell_angle_beta   90.05204494
_cell_angle_gamma   119.91474778
_symmetry_Int_Tables_number   1
_chemical_formula_structural   Na5Ti2Si3Sn2(PO8)3
_chemical_formula_sum   'Na15 Ti6 Si9 Sn6 P9 O72'
_cell_volume   1527.02717018
_cell_formula_units_Z   3
loop_
 _symmetry_equiv_pos_site_id
 _symmetry_equiv_pos_as_xyz
  1  'x, y, z'
loop_
 _atom_site_type_symbol
 _atom_site_label
 _atom_site_symmetry_multiplicity
 _atom_site_fract_x
 _atom_site_fract_y
 _atom_site_fract_z
 _atom_site_occupancy
  Na  Na0  1  0.00117903  0.63194246  0.25004767  1
  Na  Na1  1  0.36928871  0.00257625  0.74981703  1
  Na  Na2  1  0.03299197  0.70065191  0.58265697  1
  Na  Na3  1  0.66368431  0.96593921  0.58415112  1
  Na  Na4  1  0.29779539  0.96979961  0.08232485  1
  Na  Na5  1  0.03304688  0.33605230  0.08548237  1
  Na  Na6  1  0.97134775  0.66875470  0.91819687  1
  Na  Na7  1  0.96607529  0.30252014  0.41616711  1
  Na  Na8  1  0.33656850  0.03318971  0.41666728  1
  Na  Na9  1  0.00106239  0.99821536  0.50009996  1
  Na  Na10  1  0.99687233  0.99903215  0.00008497  1
  Na  Na11  1  0.66551217  0.32863130  0.83171010  1
  Na  Na12  1  0.66312010  0.33322914  0.33435721  1
  Na  Na13  1  0.34421263  0.66280487  0.16733184  1
  Na  Na14  1  0.33448387  0.65328422  0.66577915  1
  Ti  Ti15  1  0.98717223  0.99444852  0.35357686  1
  Ti  Ti16  1  0.99590527  0.00019293  0.64708931  1
  Ti  Ti17  1  0.00266118  0.00313346  0.14697903  1
  Ti  Ti18  1  0.66548536  0.33214247  0.68450416  1
  Ti  Ti19  1  0.66573801  0.34072663  0.48178597  1
  Ti  Ti20  1  0.34222378  0.67655911  0.51890180  1
  Si  Si21  1  0.00027254  0.28761399  0.25032461  1
  Si  Si22  1  0.71180160  0.00364019  0.74858265  1
  Si  Si23  1  0.37541413  0.04858175  0.58302088  1
  Si  Si24  1  0.66086257  0.61796459  0.58425404  1
  Si  Si25  1  0.95494576  0.62750262  0.08338702  1
  Si  Si26  1  0.37652922  0.33610527  0.08510895  1
  Si  Si27  1  0.33636728  0.96431477  0.91551604  1
  Si  Si28  1  0.62455976  0.95678111  0.41688062  1
  Si  Si29  1  0.03972449  0.66687699  0.41726097  1
  Sn  Sn30  1  0.00084105  0.00561711  0.85152123  1
  Sn  Sn31  1  0.66349072  0.33083961  0.18720776  1
  Sn  Sn32  1  0.65827314  0.32833806  0.98092264  1
  Sn  Sn33  1  0.33635256  0.66648937  0.01803447  1
  Sn  Sn34  1  0.33573859  0.66388881  0.31396474  1
  Sn  Sn35  1  0.33832237  0.66543509  0.81257437  1
  P  P36  1  0.28886693  0.00296967  0.25086957  1
  P  P37  1  0.71165234  0.71569806  0.24960568  1
  P  P38  1  0.29004663  0.29016688  0.74831054  1
  P  P39  1  0.99428984  0.70496595  0.74923976  1
  P  P40  1  0.95639247  0.33406655  0.58316924  1
  P  P41  1  0.66851388  0.04052765  0.08414752  1
  P  P42  1  0.62577752  0.66708647  0.91618043  1
  P  P43  1  0.04109827  0.37308575  0.91651380  1
  P  P44  1  0.33633750  0.37954813  0.41751081  1
  O  O45  1  0.20025948  0.02326407  0.30706915  1
  O  O46  1  0.82900656  0.80184916  0.30552394  1
  O  O47  1  0.97659531  0.16710434  0.30952352  1
  O  O48  1  0.21869257  0.17650076  0.80493004  1
  O  O49  1  0.96776510  0.78335917  0.80730947  1
  O  O50  1  0.82715050  0.03808775  0.80790068  1
  O  O51  1  0.80864883  0.97553238  0.68988783  1
  O  O52  1  0.17107741  0.19638715  0.69435975  1
  O  O53  1  0.03024302  0.82817144  0.69476027  1
  O  O54  1  0.80350544  0.82640382  0.19449183  1
  O  O55  1  0.02254328  0.19195266  0.19101328  1
  O  O56  1  0.17490694  0.97279331  0.19441564  1
  O  O57  1  0.86858243  0.36582217  0.63755454  1
  O  O58  1  0.50216291  0.13357557  0.64148759  1
  O  O59  1  0.63925849  0.49609579  0.64138384  1
  O  O60  1  0.88072699  0.50201420  0.14204445  1
  O  O61  1  0.62549366  0.11715383  0.13853827  1
  O  O62  1  0.49354748  0.36968790  0.14345084  1
  O  O63  1  0.44682239  0.27945242  0.02707831  1
  O  O64  1  0.84318390  0.54410201  0.02225631  1
  O  O65  1  0.71137415  0.15962452  0.02836912  1
  O  O66  1  0.46977972  0.16548987  0.52395235  1
  O  O67  1  0.70307453  0.52965819  0.52694190  1
  O  O68  1  0.84100808  0.29740372  0.52686637  1
  O  O69  1  0.54604575  0.69848213  0.97254076  1
  O  O70  1  0.14840333  0.44966510  0.97433506  1
  O  O71  1  0.29313324  0.84124200  0.97505001  1
  O  O72  1  0.53327124  0.83407983  0.47629529  1
  O  O73  1  0.30079671  0.46620224  0.47132677  1
  O  O74  1  0.16920757  0.70020045  0.47530560  1
  O  O75  1  0.11439103  0.61961811  0.35732267  1
  O  O76  1  0.49822805  0.87753280  0.35957823  1
  O  O77  1  0.37173393  0.48737052  0.36038110  1
  O  O78  1  0.12546903  0.49269957  0.86198134  1
  O  O79  1  0.36304713  0.87587553  0.85541124  1
  O  O80  1  0.51141928  0.63102293  0.86025429  1
  O  O81  1  0.03279199  0.84669435  0.40904734  1
  O  O82  1  0.82031843  0.98188444  0.41007610  1
  O  O83  1  0.17196980  0.19598569  0.41152470  1
  O  O84  1  0.02247910  0.19161506  0.91204989  1
  O  O85  1  0.15357765  0.97041573  0.91093034  1
  O  O86  1  0.80880906  0.82779419  0.91127652  1
  O  O87  1  0.97062310  0.16717911  0.59059746  1
  O  O88  1  0.17980556  0.01804283  0.59141644  1
  O  O89  1  0.83732583  0.81349363  0.59128483  1
  O  O90  1  0.98259485  0.82260340  0.09244430  1
  O  O91  1  0.83296653  0.02474632  0.09168347  1
  O  O92  1  0.18016960  0.16152529  0.09269833  1
  O  O93  1  0.68359372  0.17154062  0.74080549  1
  O  O94  1  0.47068787  0.30676076  0.74115564  1
  O  O95  1  0.83404033  0.52375195  0.74152979  1
  O  O96  1  0.70139130  0.53565684  0.24705054  1
  O  O97  1  0.82833672  0.31248285  0.24746205  1
  O  O98  1  0.47173586  0.16618074  0.24635444  1
  O  O99  1  0.65286170  0.50831577  0.92043578  1
  O  O100  1  0.86301512  0.36433391  0.92163124  1
  O  O101  1  0.51196512  0.15321545  0.91951110  1
  O  O102  1  0.64690334  0.14980486  0.42526672  1
  O  O103  1  0.49424786  0.35162903  0.42507018  1
  O  O104  1  0.85039222  0.49113036  0.42633552  1
  O  O105  1  0.34608418  0.50137063  0.07817784  1
  O  O106  1  0.15153559  0.64979465  0.07896041  1
  O  O107  1  0.50318968  0.86237682  0.07707471  1
  O  O108  1  0.35546520  0.85203856  0.57638494  1
  O  O109  1  0.49369032  0.64498461  0.57649256  1
  O  O110  1  0.13545494  0.49879744  0.57655190  1
  O  O111  1  0.30058094  0.83364183  0.25363259  1
  O  O112  1  0.53039703  0.69727432  0.25454292  1
  O  O113  1  0.17183848  0.48401641  0.25314187  1
  O  O114  1  0.30300458  0.47028584  0.75407012  1
  O  O115  1  0.16429319  0.69343617  0.75319045  1
  O  O116  1  0.51507641  0.83052428  0.75076284  1
