# generated using pymatgen
data_NaY2Ta2P5SO24
_symmetry_space_group_name_H-M   'P 1'
_cell_length_a   8.96353925
_cell_length_b   8.96515922
_cell_length_c   23.36378339
_cell_angle_alpha   89.82790468
_cell_angle_beta   90.00207634
_cell_angle_gamma   119.90666085
_symmetry_Int_Tables_number   1
_chemical_formula_structural   NaY2Ta2P5SO24
_chemical_formula_sum   'Na3 Y6 Ta6 P15 S3 O72'
_cell_volume   1627.48301339
_cell_formula_units_Z   3
loop_
 _symmetry_equiv_pos_site_id
 _symmetry_equiv_pos_as_xyz
  1  'x, y, z'
loop_
 _atom_site_type_symbol
 _atom_site_label
 _atom_site_symmetry_multiplicity
 _atom_site_fract_x
 _atom_site_fract_y
 _atom_site_fract_z
 _atom_site_occupancy
  Na  Na0  1  0.00079633  0.99954725  0.00492669  1
  Na  Na1  1  0.66629847  0.33200877  0.83124927  1
  Na  Na2  1  0.66882635  0.33255644  0.33772367  1
  Y  Y3  1  0.99471793  0.99489257  0.64793948  1
  Y  Y4  1  0.00330542  0.00226668  0.14507739  1
  Y  Y5  1  0.66375578  0.34098110  0.68743571  1
  Y  Y6  1  0.66686013  0.33315555  0.97273870  1
  Y  Y7  1  0.66975249  0.33903412  0.48059935  1
  Y  Y8  1  0.33042278  0.66747580  0.30754341  1
  Ta  Ta9  1  0.00769268  0.01069283  0.35694690  1
  Ta  Ta10  1  0.99928886  -0.00002344  0.85545756  1
  Ta  Ta11  1  0.66412476  0.32538274  0.18390121  1
  Ta  Ta12  1  0.33166231  0.66554491  0.02336129  1
  Ta  Ta13  1  0.33868794  0.66813061  0.51354227  1
  Ta  Ta14  1  0.33421884  0.66666465  0.81226043  1
  P  P15  1  0.29855103  0.02305624  0.25100877  1
  P  P16  1  0.97814399  0.27633543  0.25073048  1
  P  P17  1  0.28762042  0.29054050  0.75523428  1
  P  P18  1  0.00243587  0.71105595  0.75588966  1
  P  P19  1  0.70854925  0.00026589  0.75577364  1
  P  P20  1  0.65423769  0.62890182  0.58199488  1
  P  P21  1  0.95676860  0.61268541  0.08114887  1
  P  P22  1  0.65435885  0.03811491  0.08059461  1
  P  P23  1  0.38616927  0.34450562  0.08080295  1
  P  P24  1  0.61968114  0.68044350  0.91605207  1
  P  P25  1  0.06087548  0.37985839  0.91598716  1
  P  P26  1  0.31985342  0.93933060  0.91565488  1
  P  P27  1  0.63081379  0.95354492  0.41335899  1
  P  P28  1  0.32683040  0.37406726  0.41420462  1
  P  P29  1  0.04873971  0.67879065  0.41419821  1
  S  S30  1  0.72168287  0.69870848  0.25090660  1
  S  S31  1  0.97807930  0.34908602  0.58148304  1
  S  S32  1  0.37240031  0.02330923  0.58141856  1
  O  O33  1  0.20248667  0.04733430  0.30426187  1
  O  O34  1  0.83225161  0.78405115  0.30194724  1
  O  O35  1  0.95309907  0.15692497  0.30446148  1
  O  O36  1  0.18380227  0.17121368  0.80821501  1
  O  O37  1  0.98543259  0.81420297  0.80847525  1
  O  O38  1  0.82800735  0.01493094  0.80860027  1
  O  O39  1  0.77822412  0.96608032  0.70192588  1
  O  O40  1  0.18538503  0.22112173  0.70118387  1
  O  O41  1  0.03763441  0.81415013  0.70160988  1
  O  O42  1  0.79441905  0.79751077  0.19855643  1
  O  O43  1  0.99952544  0.19573577  0.19735274  1
  O  O44  1  0.19344442  0.99317983  0.19769632  1
  O  O45  1  0.90176174  0.38019133  0.63310423  1
  O  O46  1  0.48080765  0.09684809  0.63299142  1
  O  O47  1  0.61687455  0.51506459  0.63575753  1
  O  O48  1  0.86315775  0.49606598  0.13588540  1
  O  O49  1  0.63181474  0.13177860  0.13592750  1
  O  O50  1  0.50063411  0.36472175  0.13544867  1
  O  O51  1  0.46584212  0.31695266  0.02814468  1
  O  O52  1  0.85036726  0.53412698  0.02831708  1
  O  O53  1  0.68501124  0.14867035  0.02856041  1
  O  O54  1  0.45334586  0.13203386  0.53132180  1
  O  O55  1  0.68368911  0.54333228  0.53076201  1
  O  O56  1  0.86658153  0.31477996  0.53170695  1
  O  O57  1  0.53096262  0.70003692  0.97072390  1
  O  O58  1  0.16840313  0.46767568  0.97089840  1
  O  O59  1  0.29920764  0.83071717  0.97058885  1
  O  O60  1  0.53495968  0.83496877  0.46734598  1
  O  O61  1  0.30181967  0.46722212  0.46759114  1
  O  O62  1  0.16516083  0.70245833  0.46792983  1
  O  O63  1  0.12684905  0.64881799  0.36178763  1
  O  O64  1  0.52332223  0.87438779  0.36122898  1
  O  O65  1  0.35727033  0.48059963  0.36149355  1
  O  O66  1  0.15763484  0.48993999  0.86346327  1
  O  O67  1  0.33366680  0.84320231  0.86323459  1
  O  O68  1  0.51026884  0.66724411  0.86338335  1
  O  O69  1  0.04315510  0.85095207  0.40447632  1
  O  O70  1  0.80697312  0.95606978  0.40472162  1
  O  O71  1  0.15067175  0.19784712  0.40691648  1
  O  O72  1  0.04695604  0.19849621  0.91031322  1
  O  O73  1  0.15226647  0.95307423  0.90977586  1
  O  O74  1  0.80059172  0.84802141  0.91015815  1
  O  O75  1  0.01237975  0.20700566  0.58975367  1
  O  O76  1  0.19889914  0.99666507  0.58956725  1
  O  O77  1  0.80076810  0.81097929  0.59101636  1
  O  O78  1  0.99345386  0.79588790  0.08892225  1
  O  O79  1  0.79849444  0.99834194  0.08890331  1
  O  O80  1  0.20158295  0.19897624  0.08785451  1
  O  O81  1  0.69184765  0.16090939  0.75498822  1
  O  O82  1  0.46474228  0.30539963  0.75533195  1
  O  O83  1  0.84117535  0.53379129  0.75513593  1
  O  O84  1  0.71238566  0.52549081  0.24414082  1
  O  O85  1  0.80627173  0.28642114  0.24190832  1
  O  O86  1  0.47712587  0.19679986  0.24126300  1
  O  O87  1  0.63963986  0.52211998  0.91573278  1
  O  O88  1  0.88297332  0.36071059  0.91587128  1
  O  O89  1  0.47835098  0.11713560  0.91578726  1
  O  O90  1  0.66843533  0.13644444  0.42344838  1
  O  O91  1  0.46862838  0.33046220  0.42315791  1
  O  O92  1  0.86461460  0.53172371  0.42223710  1
  O  O93  1  0.38106950  0.51717709  0.07203518  1
  O  O94  1  0.13503414  0.61872334  0.07199553  1
  O  O95  1  0.48129401  0.86307771  0.07193535  1
  O  O96  1  0.35556789  0.85032516  0.56950508  1
  O  O97  1  0.48881834  0.64289076  0.56617617  1
  O  O98  1  0.14713441  0.50879046  0.56884513  1
  O  O99  1  0.34060333  0.88296348  0.26122160  1
  O  O100  1  0.54755525  0.66729530  0.25832941  1
  O  O101  1  0.12394197  0.45554501  0.26031548  1
  O  O102  1  0.30965569  0.47188929  0.76832325  1
  O  O103  1  0.16247024  0.69041649  0.76890539  1
  O  O104  1  0.52847798  0.83866116  0.76866744  1
