# generated using pymatgen
data_Bi2(PSe3)3
_symmetry_space_group_name_H-M   'P 1'
_cell_length_a   7.55826924
_cell_length_b   9.64693475
_cell_length_c   23.36075620
_cell_angle_alpha   66.81078988
_cell_angle_beta   90.00000000
_cell_angle_gamma   90.00000000
_symmetry_Int_Tables_number   1
_chemical_formula_structural   Bi2(PSe3)3
_chemical_formula_sum   'Bi8 P12 Se36'
_cell_volume   1565.71641608
_cell_formula_units_Z   4
loop_
 _symmetry_equiv_pos_site_id
 _symmetry_equiv_pos_as_xyz
  1  'x, y, z'
loop_
 _atom_site_type_symbol
 _atom_site_label
 _atom_site_symmetry_multiplicity
 _atom_site_fract_x
 _atom_site_fract_y
 _atom_site_fract_z
 _atom_site_occupancy
  Bi  Bi0  1  0.80727404  0.38982502  0.85243439  1
  Bi  Bi1  1  0.30727404  0.61017498  0.64756561  1
  Bi  Bi2  1  0.19272596  0.61017498  0.14756561  1
  Bi  Bi3  1  0.69272596  0.38982502  0.35243439  1
  Bi  Bi4  1  0.91556472  0.06873666  0.16168922  1
  Bi  Bi5  1  0.41556472  0.93126334  0.33831078  1
  Bi  Bi6  1  0.08443528  0.93126334  0.83831078  1
  Bi  Bi7  1  0.58443528  0.06873666  0.66168922  1
  P  P8  1  0.94416604  0.57383465  0.95319485  1
  P  P9  1  0.44416604  0.42616535  0.54680515  1
  P  P10  1  0.05583396  0.42616535  0.04680515  1
  P  P11  1  0.55583396  0.57383465  0.45319485  1
  P  P12  1  0.06155809  0.92216320  0.64651881  1
  P  P13  1  0.56155809  0.07783680  0.85348119  1
  P  P14  1  0.93844191  0.07783680  0.35348119  1
  P  P15  1  0.43844191  0.92216320  0.14651881  1
  P  P16  1  0.15745357  0.24646031  0.31332126  1
  P  P17  1  0.65745357  0.75353969  0.18667874  1
  P  P18  1  0.84254643  0.75353969  0.68667874  1
  P  P19  1  0.34254643  0.24646031  0.81332126  1
  Se  Se20  1  0.74260291  0.77723775  0.76965580  1
  Se  Se21  1  0.04428013  0.46917540  0.29664438  1
  Se  Se22  1  0.45571987  0.46917540  0.79664438  1
  Se  Se23  1  0.95571987  0.53082460  0.70335562  1
  Se  Se24  1  0.85815832  0.83849614  0.11162597  1
  Se  Se25  1  0.35815832  0.16150386  0.38837403  1
  Se  Se26  1  0.14184168  0.16150386  0.88837403  1
  Se  Se27  1  0.64184168  0.83849614  0.61162597  1
  Se  Se28  1  0.23784935  0.84976670  0.21977185  1
  Se  Se29  1  0.73784935  0.15023330  0.28022815  1
  Se  Se30  1  0.76215065  0.15023330  0.78022815  1
  Se  Se31  1  0.54428013  0.53082460  0.20335562  1
  Se  Se32  1  0.55486980  0.14557742  0.12172690  1
  Se  Se33  1  0.05486980  0.85442258  0.37827310  1
  Se  Se34  1  0.44513020  0.85442258  0.87827310  1
  Se  Se35  1  0.94513020  0.14557742  0.62172690  1
  Se  Se36  1  0.34837249  0.87722693  0.06585153  1
  Se  Se37  1  0.84837249  0.12277307  0.43414847  1
  Se  Se38  1  0.65162751  0.12277307  0.93414847  1
  Se  Se39  1  0.15162751  0.87722693  0.56585153  1
  Se  Se40  1  0.58669376  0.79787610  0.45550039  1
  Se  Se41  1  0.08669376  0.20212390  0.04449961  1
  Se  Se42  1  0.41330624  0.20212390  0.54449961  1
  Se  Se43  1  0.91330624  0.79787610  0.95550039  1
  Se  Se44  1  0.36859835  0.57155916  0.38294188  1
  Se  Se45  1  0.86859835  0.42844084  0.11705812  1
  Se  Se46  1  0.63140165  0.42844084  0.61705812  1
  Se  Se47  1  0.13140165  0.57155916  0.88294188  1
  Se  Se48  1  0.81128415  0.47015707  0.44817940  1
  Se  Se49  1  0.31128415  0.52984293  0.05182060  1
  Se  Se50  1  0.18871585  0.52984293  0.55182060  1
  Se  Se51  1  0.68871585  0.47015707  0.94817940  1
  Se  Se52  1  0.25739709  0.22276225  0.23034420  1
  Se  Se53  1  0.75739709  0.77723775  0.26965580  1
  Se  Se54  1  0.26215065  0.84976670  0.71977185  1
  Se  Se55  1  0.24260291  0.22276225  0.73034420  1
