# generated using pymatgen
data_Na6Mg3TiSi2(SO6)4
_symmetry_space_group_name_H-M   'P 1'
_cell_length_a   8.95721513
_cell_length_b   8.98189648
_cell_length_c   22.10753471
_cell_angle_alpha   89.94453080
_cell_angle_beta   89.60470799
_cell_angle_gamma   119.97588417
_symmetry_Int_Tables_number   1
_chemical_formula_structural   Na6Mg3TiSi2(SO6)4
_chemical_formula_sum   'Na18 Mg9 Ti3 Si6 S12 O72'
_cell_volume   1540.64119161
_cell_formula_units_Z   3
loop_
 _symmetry_equiv_pos_site_id
 _symmetry_equiv_pos_as_xyz
  1  'x, y, z'
loop_
 _atom_site_type_symbol
 _atom_site_label
 _atom_site_symmetry_multiplicity
 _atom_site_fract_x
 _atom_site_fract_y
 _atom_site_fract_z
 _atom_site_occupancy
  Na  Na0  1  0.63323690  0.99627069  0.25954055  1
  Na  Na1  1  0.36838304  0.36416623  0.24223419  1
  Na  Na2  1  0.64115733  0.64938109  0.73930298  1
  Na  Na3  1  0.31476945  0.34411828  0.59022647  1
  Na  Na4  1  0.02435521  0.70039667  0.58424962  1
  Na  Na5  1  0.66586381  0.94512386  0.58423918  1
  Na  Na6  1  0.29676832  0.97185730  0.07606966  1
  Na  Na7  1  0.05096689  0.33742425  0.07403894  1
  Na  Na8  1  0.98257252  0.67156515  0.91592106  1
  Na  Na9  1  0.70891506  0.03592442  0.90412076  1
  Na  Na10  1  0.30794510  0.29024488  0.91704159  1
  Na  Na11  1  0.69404419  0.68589371  0.42205821  1
  Na  Na12  1  0.98395542  -0.00017320  0.49534533  1
  Na  Na13  1  0.01028342  0.01178140  0.99651002  1
  Na  Na14  1  0.67329603  0.30653398  0.82487900  1
  Na  Na15  1  0.67605932  0.32018548  0.33605562  1
  Na  Na16  1  0.33745232  0.65573847  0.16218834  1
  Na  Na17  1  0.35043710  0.67549849  0.67024426  1
  Mg  Mg18  1  0.99863611  0.00545031  0.35211763  1
  Mg  Mg19  1  0.99970897  0.01268175  0.84912593  1
  Mg  Mg20  1  0.97742633  0.98525637  0.65284211  1
  Mg  Mg21  1  0.00625711  0.00150033  0.14637206  1
  Mg  Mg22  1  0.66055024  0.32323303  0.68694878  1
  Mg  Mg23  1  0.66535542  0.34226276  0.18240802  1
  Mg  Mg24  1  0.33155390  0.65863730  0.01766071  1
  Mg  Mg25  1  0.34790210  0.67025257  0.51468269  1
  Mg  Mg26  1  0.33890524  0.68532592  0.32182403  1
  Ti  Ti27  1  0.65266311  0.32221773  0.97924824  1
  Ti  Ti28  1  0.66894756  0.33229835  0.47983661  1
  Ti  Ti29  1  0.32460606  0.68303255  0.81683008  1
  Si  Si30  1  0.69524102  0.99837146  0.75098538  1
  Si  Si31  1  0.66559298  0.62461731  0.58521521  1
  Si  Si32  1  0.37151533  0.33941974  0.08745109  1
  Si  Si33  1  0.03799720  0.37348114  0.92016387  1
  Si  Si34  1  0.32753019  0.95861446  0.92197040  1
  Si  Si35  1  0.63755229  0.97082486  0.41644786  1
  S  S36  1  0.29195500  0.99506767  0.24921715  1
  S  S37  1  0.70866459  0.70470015  0.25113922  1
  S  S38  1  0.00139495  0.29753842  0.24847495  1
  S  S39  1  0.29536862  0.29896509  0.74975583  1
  S  S40  1  0.00306842  0.70696322  0.75041999  1
  S  S41  1  0.95913015  0.33780866  0.58220425  1
  S  S42  1  0.37424563  0.04268426  0.58291265  1
  S  S43  1  0.95581883  0.62604271  0.08373030  1
  S  S44  1  0.66759693  0.04217982  0.08507041  1
  S  S45  1  0.62407078  0.66231687  0.91675110  1
  S  S46  1  0.33437989  0.36810379  0.41603794  1
  S  S47  1  0.03728487  0.66341387  0.41837928  1
  O  O48  1  0.20197195  0.01729850  0.30153650  1
  O  O49  1  0.80249376  0.78524740  0.30737719  1
  O  O50  1  0.97472639  0.18420906  0.30090771  1
  O  O51  1  0.21266078  0.19661646  0.80480676  1
  O  O52  1  0.98750784  0.79389532  0.80466466  1
  O  O53  1  0.80091121  0.00707852  0.81118518  1
  O  O54  1  0.76410394  0.94758339  0.68970040  1
  O  O55  1  0.19648587  0.21263628  0.69422335  1
  O  O56  1  0.02926805  0.80887163  0.69431411  1
  O  O57  1  0.79631088  0.81568853  0.19816099  1
  O  O58  1  0.02629167  0.21938779  0.19235917  1
  O  O59  1  0.19988151  0.98358026  0.19239579  1
  O  O60  1  0.87881619  0.36091213  0.63613631  1
  O  O61  1  0.48366570  0.11597988  0.63574163  1
  O  O62  1  0.64269921  0.50783792  0.64368029  1
  O  O63  1  0.87151768  0.51334657  0.13613323  1
  O  O64  1  0.64789539  0.12626500  0.13953259  1
  O  O65  1  0.47190279  0.34813882  0.14841709  1
  O  O66  1  0.48701116  0.31859513  0.02823234  1
  O  O67  1  0.86001368  0.54370428  0.02685713  1
  O  O68  1  0.69338521  0.15358743  0.02965839  1
  O  O69  1  0.46363872  0.15023972  0.52794019  1
  O  O70  1  0.68165201  0.51357322  0.52528019  1
  O  O71  1  0.84595259  0.30576763  0.52791955  1
  O  O72  1  0.54666397  0.69405506  0.97002334  1
  O  O73  1  0.15311613  0.45133344  0.97953029  1
  O  O74  1  0.30751772  0.85121103  0.98222619  1
  O  O75  1  0.54674447  0.85073717  0.47524025  1
  O  O76  1  0.30837330  0.44466363  0.47148500  1
  O  O77  1  0.13035213  0.67733482  0.47478420  1
  O  O78  1  0.11903008  0.63665260  0.36516323  1
  O  O79  1  0.52798918  0.89920906  0.35436768  1
  O  O80  1  0.36089280  0.47829269  0.36193260  1
  O  O81  1  0.14168084  0.50983297  0.86323356  1
  O  O82  1  0.36882130  0.86657290  0.86319762  1
  O  O83  1  0.51741116  0.63097717  0.86182302  1
  O  O84  1  0.01405119  0.81546525  0.41229810  1
  O  O85  1  0.82738486  0.98766841  0.41161147  1
  O  O86  1  0.19073059  0.19244509  0.40938078  1
  O  O87  1  0.00602663  0.18110578  0.91191365  1
  O  O88  1  0.16335705  0.98182366  0.91060996  1
  O  O89  1  0.80213119  0.80668588  0.91029408  1
  O  O90  1  0.98551470  0.18659954  0.58577937  1
  O  O91  1  0.20665741  0.03963813  0.58776995  1
  O  O92  1  0.84329861  0.81284393  0.58181151  1
  O  O93  1  0.96902023  0.79693235  0.08869337  1
  O  O94  1  0.82530514  0.02841418  0.08751045  1
  O  O95  1  0.18396141  0.15875884  0.08222915  1
  O  O96  1  0.66947838  0.16255119  0.74414417  1
  O  O97  1  0.47385726  0.32765186  0.74707248  1
  O  O98  1  0.84608997  0.53633784  0.74656870  1
  O  O99  1  0.68884418  0.52977192  0.24712686  1
  O  O100  1  0.84183966  0.31100060  0.24424648  1
  O  O101  1  0.47095149  0.15031477  0.24807058  1
  O  O102  1  0.63698684  0.50067571  0.92297975  1
  O  O103  1  0.84656262  0.36450966  0.92504300  1
  O  O104  1  0.50840583  0.15255870  0.92428682  1
  O  O105  1  0.65779143  0.16679108  0.42786077  1
  O  O106  1  0.50165699  0.36364682  0.42079569  1
  O  O107  1  0.85611932  0.50749788  0.42188960  1
  O  O108  1  0.34765159  0.50529106  0.08164841  1
  O  O109  1  0.13312678  0.65124723  0.08118464  1
  O  O110  1  0.51057963  0.87366707  0.07948315  1
  O  O111  1  0.33940090  0.86325195  0.57586386  1
  O  O112  1  0.49116609  0.64069601  0.58037211  1
  O  O113  1  0.12927036  0.49624172  0.57320955  1
  O  O114  1  0.31015138  0.83906823  0.25327091  1
  O  O115  1  0.52960057  0.68221731  0.25367507  1
  O  O116  1  0.15926711  0.46843840  0.25551968  1
  O  O117  1  0.31022424  0.47245007  0.75325581  1
  O  O118  1  0.15959606  0.68643886  0.75431799  1
  O  O119  1  0.49987080  0.81122899  0.76088780  1
