# generated using pymatgen
data_MgFe6(OF)6
_symmetry_space_group_name_H-M   'P 1'
_cell_length_a   5.19185311
_cell_length_b   5.32137274
_cell_length_c   8.82175896
_cell_angle_alpha   92.23813648
_cell_angle_beta   90.10344826
_cell_angle_gamma   90.55204424
_symmetry_Int_Tables_number   1
_chemical_formula_structural   MgFe6(OF)6
_chemical_formula_sum   'Mg1 Fe6 O6 F6'
_cell_volume   243.52785297
_cell_formula_units_Z   1
loop_
 _symmetry_equiv_pos_site_id
 _symmetry_equiv_pos_as_xyz
  1  'x, y, z'
loop_
 _atom_site_type_symbol
 _atom_site_label
 _atom_site_symmetry_multiplicity
 _atom_site_fract_x
 _atom_site_fract_y
 _atom_site_fract_z
 _atom_site_occupancy
  Mg  Mg0  1  0.53234100  0.99336700  0.32763600  1
  Fe  Fe1  1  0.93312400  0.92392600  0.99397900  1
  Fe  Fe2  1  0.04511700  0.06549200  0.32653100  1
  Fe  Fe3  1  0.08003500  0.04134800  0.66773900  1
  Fe  Fe4  1  0.42886100  0.56286000  0.83520500  1
  Fe  Fe5  1  0.55718900  0.44302000  0.14938000  1
  Fe  Fe6  1  0.40853700  0.53876600  0.50120400  1
  O  O7  1  0.24375800  0.86319400  0.48746500  1
  O  O8  1  0.18943600  0.83783800  0.83233600  1
  O  O9  1  0.27024500  0.35178400  0.66539900  1
  O  O10  1  0.34308700  0.32148900  0.32930500  1
  O  O11  1  0.69819400  0.64723100  0.98200100  1
  O  O12  1  0.78484900  0.11321600  0.16511700  1
  F  F13  1  0.24382400  0.84459300  0.16018900  1
  F  F14  1  0.27993700  0.33616100  0.98206400  1
  F  F15  1  0.66052800  0.65555400  0.66072700  1
  F  F16  1  0.70203700  0.67143100  0.35131800  1
  F  F17  1  0.80644300  0.13187300  0.82433700  1
  F  F18  1  0.79245700  0.12908400  0.50806900  1
