# generated using pymatgen
data_Na3HfSi2GePO12
_symmetry_space_group_name_H-M   'P 1'
_cell_length_a   15.48566874
_cell_length_b   8.87299197
_cell_length_c   9.01995729
_cell_angle_alpha   90.22844759
_cell_angle_beta   125.46066485
_cell_angle_gamma   89.68592522
_symmetry_Int_Tables_number   1
_chemical_formula_structural   Na3HfSi2GePO12
_chemical_formula_sum   'Na12 Hf4 Si8 Ge4 P4 O48'
_cell_volume   1009.47681104
_cell_formula_units_Z   4
loop_
 _symmetry_equiv_pos_site_id
 _symmetry_equiv_pos_as_xyz
  1  'x, y, z'
loop_
 _atom_site_type_symbol
 _atom_site_label
 _atom_site_symmetry_multiplicity
 _atom_site_fract_x
 _atom_site_fract_y
 _atom_site_fract_z
 _atom_site_occupancy
  Na  Na0  1  0.24269167  0.77490807  0.99604116  1
  Na  Na1  1  0.75280283  0.72495493  0.50506130  1
  Na  Na2  1  0.75339829  0.26950930  0.00589421  1
  Na  Na3  1  0.24274459  0.22520216  0.49224073  1
  Na  Na4  1  0.50464160  0.10691749  0.75696970  1
  Na  Na5  1  0.50286427  0.90022408  0.24894969  1
  Na  Na6  1  0.00360107  0.62354172  0.75311328  1
  Na  Na7  1  0.00323460  0.36996852  0.25199195  1
  Na  Na8  1  0.81713458  0.93851411  0.24026565  1
  Na  Na9  1  0.81331204  0.06324099  0.73383585  1
  Na  Na10  1  0.30156468  0.43587771  0.21169923  1
  Na  Na11  1  0.30798235  0.55962488  0.73408160  1
  Hf  Hf12  1  0.10691779  0.75260148  0.56207879  1
  Hf  Hf13  1  0.60496498  0.25132957  0.56486882  1
  Hf  Hf14  1  0.39344684  0.75672111  0.43447864  1
  Hf  Hf15  1  0.60839340  0.74939333  0.06691224  1
  Si  Si16  1  0.35797941  0.90444023  0.76658019  1
  Si  Si17  1  0.65473988  0.88301787  0.74877698  1
  Si  Si18  1  0.65055286  0.11960760  0.24603804  1
  Si  Si19  1  0.34977763  0.11009881  0.24131929  1
  Si  Si20  1  0.86269659  0.39779737  0.75868390  1
  Si  Si21  1  0.14488461  0.38210611  0.74902113  1
  Si  Si22  1  0.14024466  0.60404871  0.23491758  1
  Si  Si23  1  0.85963137  0.59738882  0.25768675  1
  Ge  Ge24  1  0.89468656  0.73424100  0.94338142  1
  Ge  Ge25  1  0.89652332  0.26513829  0.44509398  1
  Ge  Ge26  1  0.10324737  0.25241743  0.05542267  1
  Ge  Ge27  1  0.39484573  0.24314649  0.93591588  1
  P  P28  1  -0.00004753  0.97300185  0.74751037  1
  P  P29  1  0.99818869  0.03692949  0.23182003  1
  P  P30  1  0.49545833  0.45306008  0.74856420  1
  P  P31  1  0.49518433  0.53824995  0.23635361  1
  O  O32  1  0.15138927  0.56790961  0.73782516  1
  O  O33  1  0.86178781  0.58284698  0.77073322  1
  O  O34  1  0.86107720  0.41248220  0.26762992  1
  O  O35  1  0.14345094  0.41661236  0.22622210  1
  O  O36  1  0.65896624  0.06855584  0.74204593  1
  O  O37  1  0.35467171  0.08935237  0.76379489  1
  O  O38  1  0.34746052  0.92643436  0.24925308  1
  O  O39  1  0.65999093  0.93412130  0.24071484  1
  O  O40  1  0.43182521  0.54626200  0.57169835  1
  O  O41  1  0.55321267  0.55787853  0.91382592  1
  O  O42  1  0.55284191  0.43750182  0.40496885  1
  O  O43  1  0.42913616  0.44347221  0.05806671  1
  O  O44  1  0.92787552  0.06965360  0.56995984  1
  O  O45  1  0.06704910  0.07080594  0.91944605  1
  O  O46  1  0.06385013  0.93948869  0.40347081  1
  O  O47  1  0.92624389  0.93582312  0.05962869  1
  O  O48  1  0.25997957  0.82114984  0.74979710  1
  O  O49  1  0.75995360  0.81426603  0.76799322  1
  O  O50  1  0.75779737  0.18562293  0.26965336  1
  O  O51  1  0.24676127  0.19004483  0.21887662  1
  O  O52  1  0.75961587  0.32619731  0.73763755  1
  O  O53  1  0.25229588  0.31856194  0.77164135  1
  O  O54  1  0.24328329  0.66796459  0.24904962  1
  O  O55  1  0.75868531  0.67113392  0.24164072  1
  O  O56  1  0.36521602  0.85872104  0.59693540  1
  O  O57  1  0.65247597  0.84889193  0.92319476  1
  O  O58  1  0.64800445  0.14659870  0.42195614  1
  O  O59  1  0.36649634  0.14796452  0.08152104  1
  O  O60  1  0.86802699  0.37111633  0.58373187  1
  O  O61  1  0.13798590  0.36288968  0.92261366  1
  O  O62  1  0.14692870  0.63509485  0.41969528  1
  O  O63  1  0.86575380  0.63449827  0.08535563  1
  O  O64  1  0.46405755  0.84372513  0.95307414  1
  O  O65  1  0.54768594  0.82141459  0.56063287  1
  O  O66  1  0.54122566  0.18489385  0.05854261  1
  O  O67  1  0.45351332  0.17225600  0.43495215  1
  O  O68  1  0.96344294  0.31490779  0.93983258  1
  O  O69  1  0.04040677  0.31068664  0.55965731  1
  O  O70  1  0.03532541  0.68286206  0.05573801  1
  O  O71  1  0.95980514  0.67259877  0.44148234  1
  O  O72  1  0.07767105  0.86993344  0.73884684  1
  O  O73  1  0.92104514  0.87019821  0.75278228  1
  O  O74  1  0.91937174  0.13651029  0.24272304  1
  O  O75  1  0.07805063  0.13756786  0.22583188  1
  O  O76  1  0.57750285  0.34852614  0.75500475  1
  O  O77  1  0.41193285  0.35718069  0.75099236  1
  O  O78  1  0.41294711  0.63773125  0.23812888  1
  O  O79  1  0.57763695  0.64187012  0.24563141  1
