# generated using pymatgen
data_Na6Mg7Sn(SO4)12
_symmetry_space_group_name_H-M   'P 1'
_cell_length_a   17.40420834
_cell_length_b   8.69449468
_cell_length_c   22.66001954
_cell_angle_alpha   89.97984206
_cell_angle_beta   90.00643477
_cell_angle_gamma   119.89187954
_symmetry_Int_Tables_number   1
_chemical_formula_structural   Na6Mg7Sn(SO4)12
_chemical_formula_sum   'Na18 Mg21 Sn3 S36 O144'
_cell_volume   2972.77221972
_cell_formula_units_Z   3
loop_
 _symmetry_equiv_pos_site_id
 _symmetry_equiv_pos_as_xyz
  1  'x, y, z'
loop_
 _atom_site_type_symbol
 _atom_site_label
 _atom_site_symmetry_multiplicity
 _atom_site_fract_x
 _atom_site_fract_y
 _atom_site_fract_z
 _atom_site_occupancy
  Na  Na0  1  0.32066363  0.64080248  0.74985911  1
  Na  Na1  1  0.64867032  0.33064075  0.58403459  1
  Na  Na2  1  0.98648824  0.66709662  0.91700613  1
  Na  Na3  1  0.66515649  0.30064735  0.91569129  1
  Na  Na4  1  0.16708588  0.03046271  0.41693308  1
  Na  Na5  1  0.66638211  0.02884827  0.41703599  1
  Na  Na6  1  0.99729063  0.00174206  0.49714042  1
  Na  Na7  1  0.49100211  0.98887692  0.50074617  1
  Na  Na8  1  0.00206547  0.01031996  0.99835588  1
  Na  Na9  1  0.49455039  0.99093020  0.99694390  1
  Na  Na10  1  0.33612420  0.32925150  0.83540044  1
  Na  Na11  1  0.83165881  0.32331812  0.83086123  1
  Na  Na12  1  0.33721879  0.34038278  0.33334403  1
  Na  Na13  1  0.83769968  0.34056875  0.33293880  1
  Na  Na14  1  0.16747493  0.66664926  0.16665266  1
  Na  Na15  1  0.66617953  0.66622326  0.16674579  1
  Na  Na16  1  0.16661670  0.67030359  0.66455652  1
  Na  Na17  1  0.66382314  0.67094473  0.66880385  1
  Mg  Mg18  1  0.99656362  0.99967107  0.35197871  1
  Mg  Mg19  1  0.49529430  0.99801415  0.35199681  1
  Mg  Mg20  1  0.00111485  0.00846168  0.85199324  1
  Mg  Mg21  1  0.49609390  0.99389276  0.85027919  1
  Mg  Mg22  1  0.49613708  0.99212260  0.64988230  1
  Mg  Mg23  1  0.33781726  0.33296708  0.68269974  1
  Mg  Mg24  1  0.83117531  0.32859516  0.68582466  1
  Mg  Mg25  1  0.33367175  0.33377549  0.18449390  1
  Mg  Mg26  1  0.83351701  0.33313513  0.18521652  1
  Mg  Mg27  1  0.33361397  0.33619840  0.98091556  1
  Mg  Mg28  1  0.83342748  0.32264503  0.98388253  1
  Mg  Mg29  1  0.33778555  0.34337810  0.48336603  1
  Mg  Mg30  1  0.83831496  0.33764737  0.48197594  1
  Mg  Mg31  1  0.16979694  0.66790572  0.01679837  1
  Mg  Mg32  1  0.66432667  0.66761198  0.01741248  1
  Mg  Mg33  1  0.16900693  0.66384551  0.51761996  1
  Mg  Mg34  1  0.66472584  0.67155566  0.51635381  1
  Mg  Mg35  1  0.16702522  0.66454794  0.31629900  1
  Mg  Mg36  1  0.66631099  0.66463755  0.31569726  1
  Mg  Mg37  1  0.16764947  0.67264070  0.81796935  1
  Mg  Mg38  1  0.66344702  0.66439564  0.81460565  1
  Sn  Sn39  1  0.00045314  0.00245133  0.64961323  1
  Sn  Sn40  1  0.00024287  0.00136465  0.14985135  1
  Sn  Sn41  1  0.49875885  0.99896045  0.14954597  1
  S  S42  1  0.14782948  0.00043040  0.25188832  1
  S  S43  1  0.64762550  0.00080725  0.25183553  1
  S  S44  1  0.35254361  0.70439056  0.25160326  1
  S  S45  1  0.85293700  0.70534781  0.25143463  1
  S  S46  1  0.99977865  0.29487882  0.25161045  1
  S  S47  1  0.49980720  0.29420395  0.25143354  1
  S  S48  1  0.14715483  0.29361185  0.75164952  1
  S  S49  1  0.64692168  0.29376071  0.74997974  1
  S  S50  1  0.99959445  0.70466968  0.75176066  1
  S  S51  1  0.50119630  0.70881674  0.74977987  1
  S  S52  1  0.35370315  0.00234542  0.75013209  1
  S  S53  1  0.85306893  -0.00006765  0.75157566  1
  S  S54  1  0.47950310  0.33324313  0.58299833  1
  S  S55  1  0.97911751  0.33671528  0.58406606  1
  S  S56  1  0.18802837  0.04029736  0.58348298  1
  S  S57  1  0.68790966  0.04027191  0.58302128  1
  S  S58  1  0.33292422  0.62569247  0.58407804  1
  S  S59  1  0.83355333  0.62416797  0.58350411  1
  S  S60  1  0.47902452  0.62218304  0.08380912  1
  S  S61  1  0.97971594  0.62337320  0.08347284  1
  S  S62  1  0.33177296  0.04243186  0.08359693  1
  S  S63  1  0.83177947  0.04024857  0.08424745  1
  S  S64  1  0.18891156  0.33572031  0.08374825  1
  S  S65  1  0.68831344  0.33600684  0.08363283  1
  S  S66  1  0.31308876  0.66594659  0.91625089  1
  S  S67  1  0.81252810  0.66939914  0.91688719  1
  S  S68  1  0.02135020  0.37436307  0.91690054  1
  S  S69  1  0.52024197  0.37579159  0.91672380  1
  S  S70  1  0.16762128  0.96039519  0.91689982  1
  S  S71  1  0.66675235  0.95736088  0.91646332  1
  S  S72  1  0.31281525  0.95801315  0.41677596  1
  S  S73  1  0.81285820  0.95691574  0.41672503  1
  S  S74  1  0.16668505  0.37521781  0.41652235  1
  S  S75  1  0.66695937  0.37517566  0.41699598  1
  S  S76  1  0.02055928  0.66457534  0.41659178  1
  S  S77  1  0.52006885  0.66480183  0.41581848  1
  O  O78  1  0.10577284  0.02806045  0.30397440  1
  O  O79  1  0.60593364  0.02843372  0.30413333  1
  O  O80  1  0.40975396  0.79032098  0.30222579  1
  O  O81  1  0.90990262  0.79087310  0.30220483  1
  O  O82  1  0.48610551  0.18064006  0.30224847  1
  O  O83  1  0.98563062  0.18051524  0.30226406  1
  O  O84  1  0.10439448  0.18015730  0.80213281  1
  O  O85  1  0.60674365  0.18617605  0.80399115  1
  O  O86  1  0.48400117  0.78727975  0.80257930  1
  O  O87  1  0.98587234  0.78858544  0.80405566  1
  O  O88  1  0.40730974  0.02810713  0.80324761  1
  O  O89  1  0.91037164  0.02827409  0.80231018  1
  O  O90  1  0.39301566  0.96756019  0.69740027  1
  O  O91  1  0.89118675  0.96492911  0.69524149  1
  O  O92  1  0.09235335  0.21932352  0.69578071  1
  O  O93  1  0.59358400  0.21301313  0.69581210  1
  O  O94  1  0.01681060  0.81790498  0.69615165  1
  O  O95  1  0.51414173  0.81592158  0.69654944  1
  O  O96  1  0.39027989  0.81546659  0.19536341  1
  O  O97  1  0.89089352  0.81623122  0.19511562  1
  O  O98  1  0.01739417  0.21936371  0.19525918  1
  O  O99  1  0.51772714  0.21852495  0.19520313  1
  O  O100  1  0.09136087  0.96560986  0.19624840  1
  O  O101  1  0.59148460  0.96691858  0.19623498  1
  O  O102  1  0.44014564  0.36139095  0.63608652  1
  O  O103  1  0.93870660  0.35818734  0.63766675  1
  O  O104  1  0.23933461  0.12268853  0.63669738  1
  O  O105  1  0.74275438  0.12441263  0.63537994  1
  O  O106  1  0.31907889  0.51955372  0.63876146  1
  O  O107  1  0.81983232  0.51768651  0.63685712  1
  O  O108  1  0.43928338  0.52056775  0.13761177  1
  O  O109  1  0.93800767  0.51871251  0.13618109  1
  O  O110  1  0.32100984  0.12188386  0.13758101  1
  O  O111  1  0.82093113  0.12189962  0.13741266  1
  O  O112  1  0.23954833  0.35732434  0.13761840  1
  O  O113  1  0.74066693  0.35722250  0.13634567  1
  O  O114  1  0.22600694  0.30138617  0.03090825  1
  O  O115  1  0.72495211  0.30322815  0.02917323  1
  O  O116  1  0.42512388  0.54808021  0.03090389  1
  O  O117  1  0.92646008  0.55080507  0.02905264  1
  O  O118  1  0.34836805  0.15040984  0.03068112  1
  O  O119  1  0.84905002  0.14872233  0.03098633  1
  O  O120  1  0.22371803  0.14552678  0.52918388  1
  O  O121  1  0.72660335  0.15144180  0.52888777  1
  O  O122  1  0.34630203  0.54243114  0.53153363  1
  O  O123  1  0.84915717  0.54815713  0.53040736  1
  O  O124  1  0.42542560  0.30539223  0.53018773  1
  O  O125  1  0.92509942  0.30166484  0.53094975  1
  O  O126  1  0.27131196  0.69365085  0.96861916  1
  O  O127  1  0.77269975  0.69525633  0.97025776  1
  O  O128  1  0.07443814  0.45509622  0.97019137  1
  O  O129  1  0.57715424  0.45460470  0.96956995  1
  O  O130  1  0.14968053  0.84588300  0.96950161  1
  O  O131  1  0.65369792  0.85165290  0.96996372  1
  O  O132  1  0.27226229  0.85046276  0.46996369  1
  O  O133  1  0.77243737  0.84959342  0.47010548  1
  O  O134  1  0.15213716  0.45413032  0.46955877  1
  O  O135  1  0.65358524  0.45287209  0.47164018  1
  O  O136  1  0.07668101  0.69824386  0.46961304  1
  O  O137  1  0.57629708  0.69954376  0.46885778  1
  O  O138  1  0.06072262  0.63836829  0.36314484  1
  O  O139  1  0.56120885  0.63895314  0.36292398  1
  O  O140  1  0.25677064  0.87949489  0.36373164  1
  O  O141  1  0.75659769  0.87875889  0.36387290  1
  O  O142  1  0.18043511  0.48217332  0.36333514  1
  O  O143  1  0.68040172  0.48414631  0.36458223  1
  O  O144  1  0.06007014  0.48606808  0.86366983  1
  O  O145  1  0.56116267  0.48339104  0.86371027  1
  O  O146  1  0.17983625  0.87901584  0.86338046  1
  O  O147  1  0.68158714  0.87859477  0.86361680  1
  O  O148  1  0.26016251  0.63802240  0.86143580  1
  O  O149  1  0.75725159  0.63609784  0.86408100  1
  O  O150  1  0.01346896  0.82938810  0.40993562  1
  O  O151  1  0.51373663  0.83021252  0.40951600  1
  O  O152  1  0.40177942  0.97800791  0.40991943  1
  O  O153  1  0.90188648  0.97764007  0.41001241  1
  O  O154  1  0.08768588  0.19221622  0.41018043  1
  O  O155  1  0.58799767  0.19321076  0.41042186  1
  O  O156  1  0.01059166  0.19586010  0.90989876  1
  O  O157  1  0.51378252  0.19756833  0.91021807  1
  O  O158  1  0.08463582  0.97271911  0.90995936  1
  O  O159  1  0.58813704  0.98303747  0.91034231  1
  O  O160  1  0.40187914  0.82659680  0.91003802  1
  O  O161  1  0.90384952  0.82408071  0.91017013  1
  O  O162  1  0.49202367  0.17548478  0.58946180  1
  O  O163  1  0.98796363  0.16791364  0.58881549  1
  O  O164  1  0.09501483  0.02291906  0.58886271  1
  O  O165  1  0.59923866  0.02735781  0.58965403  1
  O  O166  1  0.41323459  0.80372600  0.58996342  1
  O  O167  1  0.91560658  0.80791044  0.58897485  1
  O  O168  1  0.48866021  0.80884284  0.08895030  1
  O  O169  1  0.98799852  0.80810382  0.08880544  1
  O  O170  1  0.41588499  0.02421048  0.08858595  1
  O  O171  1  0.91586102  0.02341512  0.08882279  1
  O  O172  1  0.09568466  0.16761907  0.08877293  1
  O  O173  1  0.59628351  0.16850759  0.08893350  1
  O  O174  1  0.34296514  0.15916241  0.74298850  1
  O  O175  1  0.84680688  0.16118519  0.74307721  1
  O  O176  1  0.23585631  0.31293229  0.74330635  1
  O  O177  1  0.73614121  0.31095826  0.74359036  1
  O  O178  1  0.41856097  0.53069426  0.74348887  1
  O  O179  1  0.91953386  0.53148202  0.74283501  1
  O  O180  1  0.34573356  0.53024629  0.24298851  1
  O  O181  1  0.84586333  0.53082476  0.24278052  1
  O  O182  1  0.41963127  0.30809675  0.24285999  1
  O  O183  1  0.91945757  0.30840669  0.24293971  1
  O  O184  1  0.23444207  0.16088933  0.24299732  1
  O  O185  1  0.73449494  0.16109042  0.24304752  1
  O  O186  1  0.32162083  0.50548690  0.92317362  1
  O  O187  1  0.82276140  0.50672813  0.92339993  1
  O  O188  1  0.43143180  0.35547532  0.92393517  1
  O  O189  1  0.93202013  0.36100275  0.92333452  1
  O  O190  1  0.24601053  0.13733283  0.92378110  1
  O  O191  1  0.74581057  0.14121133  0.92303823  1
  O  O192  1  0.31968343  0.13638534  0.42346865  1
  O  O193  1  0.81962977  0.13532351  0.42333229  1
  O  O194  1  0.24544067  0.34967983  0.42292103  1
  O  O195  1  0.74599073  0.35058424  0.42317525  1
  O  O196  1  0.43141029  0.50761532  0.42293402  1
  O  O197  1  0.93131627  0.50744772  0.42349268  1
  O  O198  1  0.17590488  0.49037947  0.07753768  1
  O  O199  1  0.67668490  0.49185720  0.07717748  1
  O  O200  1  0.06917473  0.64693173  0.07701117  1
  O  O201  1  0.56912928  0.64734534  0.07767027  1
  O  O202  1  0.25457728  0.86200530  0.07753993  1
  O  O203  1  0.75454633  0.86148556  0.07733199  1
  O  O204  1  0.17539812  0.86037056  0.57743045  1
  O  O205  1  0.67840832  0.86259334  0.57641245  1
  O  O206  1  0.25273786  0.64370543  0.57739604  1
  O  O207  1  0.75370246  0.64318790  0.57705863  1
  O  O208  1  0.06871546  0.49081742  0.57750485  1
  O  O209  1  0.57093386  0.49152953  0.57676447  1
  O  O210  1  0.15507081  0.83929813  0.25658058  1
  O  O211  1  0.65518592  0.83991021  0.25650374  1
  O  O212  1  0.26486618  0.69035670  0.25654336  1
  O  O213  1  0.76512062  0.69070740  0.25641738  1
  O  O214  1  0.08003696  0.47023926  0.25646974  1
  O  O215  1  0.58019582  0.46975915  0.25631321  1
  O  O216  1  0.15676981  0.47259634  0.75659434  1
  O  O217  1  0.65618310  0.47222089  0.75638923  1
  O  O218  1  0.08006419  0.69004026  0.75649587  1
  O  O219  1  0.57990113  0.68846827  0.75644048  1
  O  O220  1  0.26471871  0.83640674  0.75645781  1
  O  O221  1  0.76567907  0.84002263  0.75652913  1
