# generated using pymatgen
data_MgFe2(OF)2
_symmetry_space_group_name_H-M   'P 1'
_cell_length_a   5.56660071
_cell_length_b   5.56660071
_cell_length_c   3.20863881
_cell_angle_alpha   90.00000000
_cell_angle_beta   90.00000000
_cell_angle_gamma   110.61471809
_symmetry_Int_Tables_number   1
_chemical_formula_structural   MgFe2(OF)2
_chemical_formula_sum   'Mg1 Fe2 O2 F2'
_cell_volume   93.05988176
_cell_formula_units_Z   1
loop_
 _symmetry_equiv_pos_site_id
 _symmetry_equiv_pos_as_xyz
  1  'x, y, z'
loop_
 _atom_site_type_symbol
 _atom_site_label
 _atom_site_symmetry_multiplicity
 _atom_site_fract_x
 _atom_site_fract_y
 _atom_site_fract_z
 _atom_site_occupancy
  Mg  Mg0  1  0.68429544  0.31570456  0.00000000  1
  Fe  Fe1  1  0.04858024  0.95141976  0.00000000  1
  Fe  Fe2  1  0.44136816  0.55863184  0.50000000  1
  O  O3  1  0.31517434  0.28845990  0.00000000  1
  O  O4  1  0.71154010  0.68482566  0.00000000  1
  F  F5  1  0.20787788  0.79212212  0.50000000  1
  F  F6  1  0.79949684  0.20050316  0.50000000  1
