# generated using pymatgen
data_Na4ScZn(PO4)3
_symmetry_space_group_name_H-M   'P 1'
_cell_length_a   9.12757647
_cell_length_b   9.12757615
_cell_length_c   21.87579713
_cell_angle_alpha   90.00000000
_cell_angle_beta   90.00000000
_cell_angle_gamma   120.00000113
_symmetry_Int_Tables_number   1
_chemical_formula_structural   Na4ScZn(PO4)3
_chemical_formula_sum   'Na24 Sc6 Zn6 P18 O72'
_cell_volume   1578.35779305
_cell_formula_units_Z   6
loop_
 _symmetry_equiv_pos_site_id
 _symmetry_equiv_pos_as_xyz
  1  'x, y, z'
loop_
 _atom_site_type_symbol
 _atom_site_label
 _atom_site_symmetry_multiplicity
 _atom_site_fract_x
 _atom_site_fract_y
 _atom_site_fract_z
 _atom_site_occupancy
  Na  Na0  1  0.63808422  0.01088032  0.24731075  1
  Na  Na1  1  0.37279610  0.36191578  0.24731075  1
  Na  Na2  1  0.98911968  0.62720390  0.24731075  1
  Na  Na3  1  0.63808422  0.62720390  0.74731075  1
  Na  Na4  1  0.98911968  0.36191578  0.74731075  1
  Na  Na5  1  0.37279610  0.01088032  0.74731075  1
  Na  Na6  1  0.30475122  0.34421332  0.58064375  1
  Na  Na7  1  0.03946310  0.69524878  0.58064375  1
  Na  Na8  1  0.65578668  0.96053690  0.58064375  1
  Na  Na9  1  0.30475122  0.96053690  0.08064375  1
  Na  Na10  1  0.65578668  0.69524878  0.08064375  1
  Na  Na11  1  0.03946310  0.34421332  0.08064375  1
  Na  Na12  1  0.97141722  0.67754732  0.91397775  1
  Na  Na13  1  0.70612910  0.02858278  0.91397775  1
  Na  Na14  1  0.32245268  0.29387090  0.91397775  1
  Na  Na15  1  0.97141722  0.29387090  0.41397775  1
  Na  Na16  1  0.32245268  0.02858278  0.41397775  1
  Na  Na17  1  0.70612910  0.67754732  0.41397775  1
  Na  Na18  1  -0.00000000  -0.00000000  0.49512863  1
  Na  Na19  1  -0.00000000  -0.00000000  0.99512863  1
  Na  Na20  1  0.66666700  0.33333300  0.82846163  1
  Na  Na21  1  0.66666700  0.33333300  0.32846163  1
  Na  Na22  1  0.33333300  0.66666700  0.16179563  1
  Na  Na23  1  0.33333300  0.66666700  0.66179563  1
  Sc  Sc24  1  -0.00000000  -0.00000000  0.65019913  1
  Sc  Sc25  1  -0.00000000  -0.00000000  0.15019913  1
  Sc  Sc26  1  0.66666700  0.33333300  0.98353213  1
  Sc  Sc27  1  0.66666700  0.33333300  0.48353213  1
  Sc  Sc28  1  0.33333300  0.66666700  0.31686613  1
  Sc  Sc29  1  0.33333300  0.66666700  0.81686613  1
  Zn  Zn30  1  -0.00000000  -0.00000000  0.34390938  1
  Zn  Zn31  1  -0.00000000  -0.00000000  0.84390938  1
  Zn  Zn32  1  0.66666700  0.33333300  0.67724238  1
  Zn  Zn33  1  0.66666700  0.33333300  0.17724238  1
  Zn  Zn34  1  0.33333300  0.66666700  0.01057638  1
  Zn  Zn35  1  0.33333300  0.66666700  0.51057638  1
  P  P36  1  0.29975235  0.00058820  0.25153171  1
  P  P37  1  0.70083585  0.70024765  0.25153171  1
  P  P38  1  0.99941180  0.29916415  0.25153171  1
  P  P39  1  0.29975235  0.29916415  0.75153171  1
  P  P40  1  0.99941180  0.70024765  0.75153171  1
  P  P41  1  0.70083585  0.00058820  0.75153171  1
  P  P42  1  0.96641935  0.33392120  0.58486471  1
  P  P43  1  0.36750285  0.03358065  0.58486471  1
  P  P44  1  0.66607880  0.63249715  0.58486471  1
  P  P45  1  0.96641935  0.63249715  0.08486471  1
  P  P46  1  0.66607880  0.03358065  0.08486471  1
  P  P47  1  0.36750285  0.33392120  0.08486471  1
  P  P48  1  0.63308535  0.66725520  0.91819871  1
  P  P49  1  0.03416885  0.36691465  0.91819871  1
  P  P50  1  0.33274480  0.96583115  0.91819871  1
  P  P51  1  0.63308535  0.96583115  0.41819871  1
  P  P52  1  0.33274480  0.36691465  0.41819871  1
  P  P53  1  0.03416885  0.66725520  0.41819871  1
  O  O54  1  0.21839681  0.02507009  0.30929412  1
  O  O55  1  0.80667329  0.78160319  0.30929412  1
  O  O56  1  0.97492991  0.19332671  0.30929412  1
  O  O57  1  0.21839681  0.19332671  0.80929412  1
  O  O58  1  0.97492991  0.78160319  0.80929412  1
  O  O59  1  0.80667329  0.02507009  0.80929412  1
  O  O60  1  0.78887201  0.97665364  0.69461361  1
  O  O61  1  0.18778163  0.21112799  0.69461361  1
  O  O62  1  0.02334636  0.81221837  0.69461361  1
  O  O63  1  0.78887201  0.81221837  0.19461361  1
  O  O64  1  0.02334636  0.21112799  0.19461361  1
  O  O65  1  0.18778163  0.97665364  0.19461361  1
  O  O66  1  0.88506381  0.35840309  0.64262712  1
  O  O67  1  0.47334029  0.11493619  0.64262712  1
  O  O68  1  0.64159691  0.52665971  0.64262712  1
  O  O69  1  0.88506381  0.52665971  0.14262712  1
  O  O70  1  0.64159691  0.11493619  0.14262712  1
  O  O71  1  0.47334029  0.35840309  0.14262712  1
  O  O72  1  0.45553901  0.30998664  0.02794661  1
  O  O73  1  0.85444863  0.54446099  0.02794661  1
  O  O74  1  0.69001336  0.14555137  0.02794661  1
  O  O75  1  0.45553901  0.14555137  0.52794661  1
  O  O76  1  0.69001336  0.54446099  0.52794661  1
  O  O77  1  0.85444863  0.30998664  0.52794661  1
  O  O78  1  0.55172981  0.69173709  0.97596112  1
  O  O79  1  0.14000629  0.44827019  0.97596112  1
  O  O80  1  0.30826291  0.85999371  0.97596112  1
  O  O81  1  0.55172981  0.85999371  0.47596112  1
  O  O82  1  0.30826291  0.44827019  0.47596112  1
  O  O83  1  0.14000629  0.69173709  0.47596112  1
  O  O84  1  0.12220501  0.64332064  0.36128061  1
  O  O85  1  0.52111463  0.87779499  0.36128061  1
  O  O86  1  0.35667936  0.47888537  0.36128061  1
  O  O87  1  0.12220501  0.47888537  0.86128061  1
  O  O88  1  0.35667936  0.87779499  0.86128061  1
  O  O89  1  0.52111463  0.64332064  0.86128061  1
  O  O90  1  0.01157052  0.82356255  0.41340281  1
  O  O91  1  0.81199203  0.98842948  0.41340281  1
  O  O92  1  0.17643745  0.18800797  0.41340281  1
  O  O93  1  0.01157052  0.18800797  0.91340281  1
  O  O94  1  0.17643745  0.98842948  0.91340281  1
  O  O95  1  0.81199203  0.82356255  0.91340281  1
  O  O96  1  0.98039653  0.17014868  0.58743461  1
  O  O97  1  0.18975215  0.01960347  0.58743461  1
  O  O98  1  0.82985132  0.81024785  0.58743461  1
  O  O99  1  0.98039653  0.81024785  0.08743461  1
  O  O100  1  0.82985132  0.01960347  0.08743461  1
  O  O101  1  0.18975215  0.17014868  0.08743461  1
  O  O102  1  0.67823752  0.15689555  0.74673581  1
  O  O103  1  0.47865903  0.32176248  0.74673581  1
  O  O104  1  0.84310445  0.52134097  0.74673581  1
  O  O105  1  0.67823752  0.52134097  0.24673581  1
  O  O106  1  0.84310445  0.32176248  0.24673581  1
  O  O107  1  0.47865903  0.15689555  0.24673581  1
  O  O108  1  0.64706353  0.50348168  0.92076761  1
  O  O109  1  0.85641915  0.35293647  0.92076761  1
  O  O110  1  0.49651832  0.14358085  0.92076761  1
  O  O111  1  0.64706353  0.14358085  0.42076761  1
  O  O112  1  0.49651832  0.35293647  0.42076761  1
  O  O113  1  0.85641915  0.50348168  0.42076761  1
  O  O114  1  0.34490352  0.49022955  0.08006981  1
  O  O115  1  0.14532503  0.65509648  0.08006981  1
  O  O116  1  0.50977045  0.85467497  0.08006981  1
  O  O117  1  0.34490352  0.85467497  0.58006981  1
  O  O118  1  0.50977045  0.65509648  0.58006981  1
  O  O119  1  0.14532503  0.49022955  0.58006981  1
  O  O120  1  0.31372953  0.83681568  0.25410161  1
  O  O121  1  0.52308515  0.68627047  0.25410161  1
  O  O122  1  0.16318432  0.47691485  0.25410161  1
  O  O123  1  0.31372953  0.47691485  0.75410161  1
  O  O124  1  0.16318432  0.68627047  0.75410161  1
  O  O125  1  0.52308515  0.83681568  0.75410161  1
