# generated using pymatgen
data_Na2Ga4Si3Ge4(S3O16)3
_symmetry_space_group_name_H-M   'P 1'
_cell_length_a   16.94840362
_cell_length_b   8.48794938
_cell_length_c   22.04131570
_cell_angle_alpha   89.59291709
_cell_angle_beta   89.76694674
_cell_angle_gamma   120.15889043
_symmetry_Int_Tables_number   1
_chemical_formula_structural   Na2Ga4Si3Ge4(S3O16)3
_chemical_formula_sum   'Na6 Ga12 Si9 Ge12 S27 O144'
_cell_volume   2741.41162473
_cell_formula_units_Z   3
loop_
 _symmetry_equiv_pos_site_id
 _symmetry_equiv_pos_as_xyz
  1  'x, y, z'
loop_
 _atom_site_type_symbol
 _atom_site_label
 _atom_site_symmetry_multiplicity
 _atom_site_fract_x
 _atom_site_fract_y
 _atom_site_fract_z
 _atom_site_occupancy
  Na  Na0  1  0.99685291  0.00482188  0.50072625  1
  Na  Na1  1  0.49755515  0.99058860  0.00296638  1
  Na  Na2  1  0.33038396  0.32588583  0.83708871  1
  Na  Na3  1  0.83015786  0.33216793  0.83234120  1
  Na  Na4  1  0.33181935  0.32963120  0.33137427  1
  Na  Na5  1  0.82598206  0.32838459  0.33448551  1
  Ga  Ga6  1  0.00358075  0.00116694  0.34801558  1
  Ga  Ga7  1  0.50437368  0.00665973  0.84984794  1
  Ga  Ga8  1  0.99802417  0.00826553  0.64567279  1
  Ga  Ga9  1  0.50148059  0.97922532  0.14793207  1
  Ga  Ga10  1  0.32989245  0.33092310  0.98232929  1
  Ga  Ga11  1  0.83827458  0.34197010  0.98537144  1
  Ga  Ga12  1  0.33899945  0.33293723  0.48207257  1
  Ga  Ga13  1  0.83003630  0.32733503  0.47987732  1
  Ga  Ga14  1  0.16658953  0.67547568  0.30763766  1
  Ga  Ga15  1  0.66745830  0.66385444  0.31128146  1
  Ga  Ga16  1  0.16905026  0.68092401  0.81605916  1
  Ga  Ga17  1  0.66484841  0.65409921  0.80892500  1
  Si  Si18  1  0.14745152  0.00555005  0.24984252  1
  Si  Si19  1  0.64746297  0.99566491  0.24830927  1
  Si  Si20  1  0.64780382  0.29000879  0.74950432  1
  Si  Si21  1  0.47930682  0.33352419  0.58228112  1
  Si  Si22  1  0.97528015  0.33387326  0.58205837  1
  Si  Si23  1  0.47377116  0.61852431  0.08154426  1
  Si  Si24  1  0.97591336  0.62096202  0.08421490  1
  Si  Si25  1  0.16963534  0.96125106  0.91621453  1
  Si  Si26  1  0.66852765  0.38013737  0.41485289  1
  Ge  Ge27  1  0.51641357  0.02349575  0.35326254  1
  Ge  Ge28  1  0.00379588  0.99686480  0.85716954  1
  Ge  Ge29  1  0.50737529  0.02606151  0.64422859  1
  Ge  Ge30  1  0.00534513  0.98549588  0.14534934  1
  Ge  Ge31  1  0.33898922  0.33943433  0.68200189  1
  Ge  Ge32  1  0.83153675  0.33503612  0.68224939  1
  Ge  Ge33  1  0.33511340  0.33195099  0.18553329  1
  Ge  Ge34  1  0.83385032  0.33139339  0.18681763  1
  Ge  Ge35  1  0.15989468  0.67936475  0.02518332  1
  Ge  Ge36  1  0.66180709  0.66535083  0.02537178  1
  Ge  Ge37  1  0.16224465  0.65906601  0.52132601  1
  Ge  Ge38  1  0.65856611  0.64305029  0.51954646  1
  S  S39  1  0.35649398  0.71276840  0.25205620  1
  S  S40  1  0.85608610  0.71199795  0.24871929  1
  S  S41  1  -0.00003965  0.28628736  0.24907240  1
  S  S42  1  0.49947198  0.28502983  0.24849204  1
  S  S43  1  0.14685209  0.29454069  0.74941760  1
  S  S44  1  0.00101057  0.71363901  0.74926771  1
  S  S45  1  0.49792602  0.71090265  0.74888393  1
  S  S46  1  0.35374307  0.99809611  0.74850539  1
  S  S47  1  0.85709676  0.00040719  0.75211386  1
  S  S48  1  0.18909716  0.04311239  0.58264399  1
  S  S49  1  0.68659736  0.03616252  0.58305028  1
  S  S50  1  0.33422505  0.62729415  0.58349029  1
  S  S51  1  0.83272671  0.62563959  0.58258122  1
  S  S52  1  0.33390902  0.04106974  0.08346686  1
  S  S53  1  0.83455075  0.04079196  0.08343128  1
  S  S54  1  0.18632808  0.33624627  0.08310079  1
  S  S55  1  0.68819601  0.33498449  0.08154717  1
  S  S56  1  0.31172718  0.67041436  0.91603027  1
  S  S57  1  0.80992522  0.66688397  0.91676016  1
  S  S58  1  0.02077574  0.37337062  0.91544332  1
  S  S59  1  0.52330921  0.37850755  0.91679495  1
  S  S60  1  0.66780519  0.95517603  0.91659602  1
  S  S61  1  0.31055590  0.95193448  0.41669110  1
  S  S62  1  0.81254248  0.95381824  0.41690957  1
  S  S63  1  0.16756769  0.37895279  0.41686271  1
  S  S64  1  0.02344092  0.66851371  0.41625208  1
  S  S65  1  0.52018339  0.66867899  0.41611912  1
  O  O66  1  0.10895373  0.05403256  0.31012969  1
  O  O67  1  0.60710261  0.04639751  0.30884700  1
  O  O68  1  0.41396396  0.79381967  0.30721769  1
  O  O69  1  0.91170751  0.78638019  0.30430062  1
  O  O70  1  0.47690457  0.16654635  0.30528432  1
  O  O71  1  0.97842572  0.17264453  0.30525074  1
  O  O72  1  0.10783393  0.17604024  0.80495841  1
  O  O73  1  0.60825445  0.16276049  0.80962865  1
  O  O74  1  0.47665013  0.78086159  0.80425894  1
  O  O75  1  0.98091122  0.79214653  0.80504102  1
  O  O76  1  0.40945221  0.03702747  0.80381294  1
  O  O77  1  0.91688484  0.03695325  0.80748602  1
  O  O78  1  0.39553303  0.96798468  0.69402009  1
  O  O79  1  0.89561488  0.96427637  0.69785192  1
  O  O80  1  0.09160405  0.21284160  0.69539691  1
  O  O81  1  0.58433734  0.19885006  0.69073117  1
  O  O82  1  0.01627696  0.82830843  0.69504146  1
  O  O83  1  0.51108375  0.81944845  0.69333638  1
  O  O84  1  0.39167760  0.82304081  0.19661129  1
  O  O85  1  0.89737147  0.83011021  0.19379727  1
  O  O86  1  0.01327134  0.20393077  0.19398349  1
  O  O87  1  0.51108691  0.20161346  0.19401458  1
  O  O88  1  0.08462145  0.96999531  0.19075626  1
  O  O89  1  0.58776347  0.96757168  0.19005893  1
  O  O90  1  0.43639504  0.37528557  0.64372268  1
  O  O91  1  0.93113984  0.37151126  0.64446295  1
  O  O92  1  0.24504497  0.12246306  0.63888205  1
  O  O93  1  0.74310232  0.11540562  0.63902446  1
  O  O94  1  0.31004145  0.50403204  0.63958473  1
  O  O95  1  0.81252798  0.51036444  0.63892469  1
  O  O96  1  0.43052880  0.49007294  0.14329803  1
  O  O97  1  0.92885375  0.48754853  0.14390150  1
  O  O98  1  0.31198705  0.11518755  0.13802744  1
  O  O99  1  0.81155906  0.11477800  0.13714869  1
  O  O100  1  0.24320430  0.37068360  0.13794214  1
  O  O101  1  0.74434756  0.36917638  0.13612970  1
  O  O102  1  0.22188207  0.29194340  0.02930370  1
  O  O103  1  0.72548427  0.29471362  0.02639192  1
  O  O104  1  0.41409881  0.52889031  0.02188001  1
  O  O105  1  0.91729850  0.54257073  0.02385589  1
  O  O106  1  0.34961939  0.15003266  0.02811284  1
  O  O107  1  0.84992355  0.14944855  0.02736881  1
  O  O108  1  0.22617075  0.16018564  0.52818797  1
  O  O109  1  0.72275609  0.15553850  0.53010588  1
  O  O110  1  0.34961575  0.54674498  0.52942626  1
  O  O111  1  0.85028225  0.54772272  0.52901516  1
  O  O112  1  0.41513310  0.29096651  0.52522666  1
  O  O113  1  0.91318965  0.29804358  0.52358067  1
  O  O114  1  0.27129605  0.70007361  0.97136390  1
  O  O115  1  0.77064732  0.70026267  0.97252490  1
  O  O116  1  0.07700981  0.44773998  0.96998900  1
  O  O117  1  0.58246533  0.45741360  0.97175928  1
  O  O118  1  0.14833293  0.82890734  0.97552587  1
  O  O119  1  0.65297592  0.84123234  0.97272399  1
  O  O120  1  0.26948474  0.83776615  0.47450663  1
  O  O121  1  0.77192343  0.84325921  0.47414182  1
  O  O122  1  0.15217211  0.46104234  0.47348297  1
  O  O123  1  0.64891315  0.46402101  0.47631475  1
  O  O124  1  0.08198919  0.70775273  0.47245874  1
  O  O125  1  0.57648465  0.70568360  0.47219585  1
  O  O126  1  0.06497658  0.63614511  0.36293708  1
  O  O127  1  0.55911782  0.63200450  0.36294984  1
  O  O128  1  0.25207559  0.86944308  0.36378341  1
  O  O129  1  0.75819695  0.87644145  0.36275185  1
  O  O130  1  0.18288330  0.49108634  0.36245484  1
  O  O131  1  0.68628674  0.50459774  0.35568855  1
  O  O132  1  0.06026937  0.48481680  0.85979146  1
  O  O133  1  0.56385007  0.49296121  0.86223132  1
  O  O134  1  0.18792097  0.88110056  0.85557039  1
  O  O135  1  0.68286097  0.87535758  0.86164440  1
  O  O136  1  0.25644356  0.63657567  0.86038734  1
  O  O137  1  0.75456738  0.63773597  0.86243889  1
  O  O138  1  0.01417729  0.83300830  0.41182876  1
  O  O139  1  0.50809900  0.82936912  0.40961460  1
  O  O140  1  0.39990943  0.96726238  0.41004070  1
  O  O141  1  0.90508681  0.97035062  0.41135557  1
  O  O142  1  0.08387040  0.19850866  0.41394225  1
  O  O143  1  0.57360027  0.18169597  0.41065180  1
  O  O144  1  0.00991903  0.18837700  0.90750196  1
  O  O145  1  0.51394065  0.19486375  0.91181330  1
  O  O146  1  0.07650778  0.97496787  0.90749772  1
  O  O147  1  0.58353248  0.96691981  0.91338299  1
  O  O148  1  0.40412188  0.83988287  0.90885836  1
  O  O149  1  0.90131401  0.83441559  0.90943654  1
  O  O150  1  0.48423118  0.14855179  0.59049772  1
  O  O151  1  0.98961469  0.15980706  0.59058700  1
  O  O152  1  0.09710862  0.01673314  0.59124109  1
  O  O153  1  0.59319678  0.00855906  0.59241787  1
  O  O154  1  0.41696024  0.80261670  0.59463520  1
  O  O155  1  0.91701834  0.80405769  0.59133179  1
  O  O156  1  0.48476489  0.81779611  0.08666054  1
  O  O157  1  0.98465514  0.81882402  0.09121063  1
  O  O158  1  0.41642356  0.02857867  0.09197645  1
  O  O159  1  0.91713671  0.02900622  0.09313539  1
  O  O160  1  0.09272354  0.17841311  0.09201174  1
  O  O161  1  0.59533639  0.18146182  0.08811811  1
  O  O162  1  0.34293829  0.16553599  0.74220829  1
  O  O163  1  0.85092139  0.16792657  0.74596407  1
  O  O164  1  0.23984314  0.30913031  0.74237607  1
  O  O165  1  0.74995652  0.30779160  0.73859195  1
  O  O166  1  0.41201462  0.52213931  0.74363189  1
  O  O167  1  0.91720193  0.53192333  0.74482940  1
  O  O168  1  0.34956096  0.53086306  0.24569922  1
  O  O169  1  0.84964890  0.53048967  0.24247605  1
  O  O170  1  0.41515877  0.30229516  0.24498139  1
  O  O171  1  0.91741324  0.30658969  0.24381820  1
  O  O172  1  0.24924101  0.19134316  0.23856653  1
  O  O173  1  0.74954210  0.18797117  0.23977841  1
  O  O174  1  0.32262628  0.50995085  0.92078377  1
  O  O175  1  0.81916999  0.50277001  0.92192833  1
  O  O176  1  0.43347218  0.36051688  0.92262514  1
  O  O177  1  0.92829995  0.35174864  0.92148998  1
  O  O178  1  0.25725411  0.16211493  0.92508802  1
  O  O179  1  0.74969016  0.13915458  0.92366154  1
  O  O180  1  0.31697656  0.13293949  0.42258437  1
  O  O181  1  0.82347054  0.13654465  0.42232601  1
  O  O182  1  0.24984262  0.36075829  0.42466601  1
  O  O183  1  0.75717351  0.35586251  0.42429018  1
  O  O184  1  0.42711186  0.50357817  0.42304280  1
  O  O185  1  0.93380506  0.50590492  0.42302459  1
  O  O186  1  0.18151478  0.50509777  0.07341343  1
  O  O187  1  0.68577587  0.50811200  0.07332549  1
  O  O188  1  0.07447817  0.63151568  0.07903689  1
  O  O189  1  0.57594402  0.63866568  0.07469000  1
  O  O190  1  0.25292739  0.85421779  0.07709703  1
  O  O191  1  0.75302631  0.85510869  0.07511621  1
  O  O192  1  0.18445148  0.86527488  0.57523673  1
  O  O193  1  0.68128515  0.85920431  0.57467230  1
  O  O194  1  0.25296684  0.64854783  0.57628508  1
  O  O195  1  0.75331772  0.65143098  0.57668932  1
  O  O196  1  0.07814474  0.51659523  0.57407159  1
  O  O197  1  0.57760742  0.51931943  0.57723656  1
  O  O198  1  0.15726575  0.83025804  0.25685059  1
  O  O199  1  0.65930385  0.82533665  0.26170427  1
  O  O200  1  0.26444872  0.68426267  0.26041056  1
  O  O201  1  0.76652028  0.69213910  0.25332009  1
  O  O202  1  0.08217958  0.46415630  0.25687376  1
  O  O203  1  0.57937129  0.46360447  0.25593700  1
  O  O204  1  0.15701690  0.47427409  0.75873304  1
  O  O205  1  0.65811433  0.48666632  0.75677204  1
  O  O206  1  0.08104162  0.69267494  0.75657714  1
  O  O207  1  0.57875183  0.69387037  0.75642903  1
  O  O208  1  0.26390992  0.83406367  0.75387533  1
  O  O209  1  0.76621926  0.84315375  0.76069441  1
