# generated using pymatgen
data_Cd4Sb2I3
_symmetry_space_group_name_H-M   'P 1'
_cell_length_a   13.69201328
_cell_length_b   13.69201328
_cell_length_c   13.69201328
_cell_angle_alpha   90.00000000
_cell_angle_beta   90.00000000
_cell_angle_gamma   90.00000000
_symmetry_Int_Tables_number   1
_chemical_formula_structural   Cd4Sb2I3
_chemical_formula_sum   'Cd32 Sb16 I24'
_cell_volume   2566.85853873
_cell_formula_units_Z   8
loop_
 _symmetry_equiv_pos_site_id
 _symmetry_equiv_pos_as_xyz
  1  'x, y, z'
loop_
 _atom_site_type_symbol
 _atom_site_label
 _atom_site_symmetry_multiplicity
 _atom_site_fract_x
 _atom_site_fract_y
 _atom_site_fract_z
 _atom_site_occupancy
  Cd  Cd0  1  0.03110785  0.01804485  0.25443183  1
  Cd  Cd1  1  0.25443183  0.03110785  0.01804485  1
  Cd  Cd2  1  0.01804485  0.25443183  0.03110785  1
  Cd  Cd3  1  0.48195515  0.74556817  0.53110785  1
  Cd  Cd4  1  0.75443183  0.46889215  0.98195515  1
  Cd  Cd5  1  0.98195515  0.75443183  0.46889215  1
  Cd  Cd6  1  0.24556817  0.96889215  0.51804485  1
  Cd  Cd7  1  0.74556817  0.53110785  0.48195515  1
  Cd  Cd8  1  0.51804485  0.24556817  0.96889215  1
  Cd  Cd9  1  0.53110785  0.48195515  0.74556817  1
  Cd  Cd10  1  0.96889215  0.51804485  0.24556817  1
  Cd  Cd11  1  0.46889215  0.98195515  0.75443183  1
  Cd  Cd12  1  0.96889215  0.98195515  0.74556817  1
  Cd  Cd13  1  0.74556817  0.96889215  0.98195515  1
  Cd  Cd14  1  0.98195515  0.74556817  0.96889215  1
  Cd  Cd15  1  0.51804485  0.25443183  0.46889215  1
  Cd  Cd16  1  0.24556817  0.53110785  0.01804485  1
  Cd  Cd17  1  0.01804485  0.24556817  0.53110785  1
  Cd  Cd18  1  0.75443183  0.03110785  0.48195515  1
  Cd  Cd19  1  0.25443183  0.46889215  0.51804485  1
  Cd  Cd20  1  0.48195515  0.75443183  0.03110785  1
  Cd  Cd21  1  0.46889215  0.51804485  0.25443183  1
  Cd  Cd22  1  0.03110785  0.48195515  0.75443183  1
  Cd  Cd23  1  0.53110785  0.01804485  0.24556817  1
  Cd  Cd24  1  0.77842195  0.22157805  0.72157805  1
  Cd  Cd25  1  0.72157805  0.77842195  0.22157805  1
  Cd  Cd26  1  0.22157805  0.72157805  0.77842195  1
  Cd  Cd27  1  0.27842195  0.27842195  0.27842195  1
  Cd  Cd28  1  0.22157805  0.77842195  0.27842195  1
  Cd  Cd29  1  0.27842195  0.22157805  0.77842195  1
  Cd  Cd30  1  0.77842195  0.27842195  0.22157805  1
  Cd  Cd31  1  0.72157805  0.72157805  0.72157805  1
  Sb  Sb32  1  0.89488076  0.10511924  0.60511924  1
  Sb  Sb33  1  0.60511924  0.89488076  0.10511924  1
  Sb  Sb34  1  0.10511924  0.60511924  0.89488076  1
  Sb  Sb35  1  0.39488076  0.39488076  0.39488076  1
  Sb  Sb36  1  0.10511924  0.89488076  0.39488076  1
  Sb  Sb37  1  0.39488076  0.10511924  0.89488076  1
  Sb  Sb38  1  0.89488076  0.39488076  0.10511924  1
  Sb  Sb39  1  0.60511924  0.60511924  0.60511924  1
  Sb  Sb40  1  0.55885094  0.05885094  0.44114906  1
  Sb  Sb41  1  0.44114906  0.55885094  0.05885094  1
  Sb  Sb42  1  0.05885094  0.44114906  0.55885094  1
  Sb  Sb43  1  0.94114906  0.94114906  0.94114906  1
  Sb  Sb44  1  0.44114906  0.94114906  0.55885094  1
  Sb  Sb45  1  0.55885094  0.44114906  0.94114906  1
  Sb  Sb46  1  0.94114906  0.55885094  0.44114906  1
  Sb  Sb47  1  0.05885094  0.05885094  0.05885094  1
  I  I48  1  0.23734254  0.18324734  0.56856044  1
  I  I49  1  0.56856044  0.23734254  0.18324734  1
  I  I50  1  0.18324734  0.56856044  0.23734254  1
  I  I51  1  0.31675266  0.43143956  0.73734254  1
  I  I52  1  0.06856044  0.26265746  0.81675266  1
  I  I53  1  0.81675266  0.06856044  0.26265746  1
  I  I54  1  0.93143956  0.76265746  0.68324734  1
  I  I55  1  0.43143956  0.73734254  0.31675266  1
  I  I56  1  0.68324734  0.93143956  0.76265746  1
  I  I57  1  0.73734254  0.31675266  0.43143956  1
  I  I58  1  0.76265746  0.68324734  0.93143956  1
  I  I59  1  0.26265746  0.81675266  0.06856044  1
  I  I60  1  0.76265746  0.81675266  0.43143956  1
  I  I61  1  0.43143956  0.76265746  0.81675266  1
  I  I62  1  0.81675266  0.43143956  0.76265746  1
  I  I63  1  0.68324734  0.56856044  0.26265746  1
  I  I64  1  0.93143956  0.73734254  0.18324734  1
  I  I65  1  0.18324734  0.93143956  0.73734254  1
  I  I66  1  0.06856044  0.23734254  0.31675266  1
  I  I67  1  0.56856044  0.26265746  0.68324734  1
  I  I68  1  0.31675266  0.06856044  0.23734254  1
  I  I69  1  0.26265746  0.68324734  0.56856044  1
  I  I70  1  0.23734254  0.31675266  0.06856044  1
  I  I71  1  0.73734254  0.18324734  0.93143956  1
