# generated using pymatgen
data_Na2CaZrP2SO12
_symmetry_space_group_name_H-M   'P 1'
_cell_length_a   9.14433179
_cell_length_b   9.19854758
_cell_length_c   23.01877250
_cell_angle_alpha   90.39324614
_cell_angle_beta   90.00000000
_cell_angle_gamma   119.80522041
_symmetry_Int_Tables_number   1
_chemical_formula_structural   Na2CaZrP2SO12
_chemical_formula_sum   'Na12 Ca6 Zr6 P12 S6 O72'
_cell_volume   1680.03953414
_cell_formula_units_Z   6
loop_
 _symmetry_equiv_pos_site_id
 _symmetry_equiv_pos_as_xyz
  1  'x, y, z'
loop_
 _atom_site_type_symbol
 _atom_site_label
 _atom_site_symmetry_multiplicity
 _atom_site_fract_x
 _atom_site_fract_y
 _atom_site_fract_z
 _atom_site_occupancy
  Na  Na0  1  0.99480625  0.63532945  0.24139610  1
  Na  Na1  1  0.64052321  0.63532945  0.74139610  1
  Na  Na2  1  0.66147325  0.96866245  0.57472910  1
  Na  Na3  1  0.30719021  0.96866245  0.07472910  1
  Na  Na4  1  0.32813925  0.30199645  0.90806310  1
  Na  Na5  1  0.97385621  0.30199645  0.40806310  1
  Na  Na6  1  0.99503497  0.96385186  0.49428938  1
  Na  Na7  1  0.96881689  0.96385186  0.99428938  1
  Na  Na8  1  0.66170197  0.29718486  0.82762238  1
  Na  Na9  1  0.63548389  0.29718486  0.32762238  1
  Na  Na10  1  0.32836797  0.63051886  0.16095638  1
  Na  Na11  1  0.30214989  0.63051886  0.66095638  1
  Ca  Ca12  1  0.99769252  0.99697723  0.35203256  1
  Ca  Ca13  1  0.99928471  0.99697723  0.85203256  1
  Ca  Ca14  1  0.66435952  0.33031023  0.68536556  1
  Ca  Ca15  1  0.66595171  0.33031023  0.18536556  1
  Ca  Ca16  1  0.33102552  0.66364423  0.01869956  1
  Ca  Ca17  1  0.33261771  0.66364423  0.51869956  1
  Zr  Zr18  1  0.00190842  0.01154246  0.64915171  1
  Zr  Zr19  1  0.00963404  0.01154246  0.14915171  1
  Zr  Zr20  1  0.66857542  0.34487546  0.98248471  1
  Zr  Zr21  1  0.67630104  0.34487546  0.48248471  1
  Zr  Zr22  1  0.33524142  0.67820946  0.31581871  1
  Zr  Zr23  1  0.34296704  0.67820946  0.81581871  1
  P  P24  1  0.29497610  0.99386614  0.25069405  1
  P  P25  1  0.01031861  0.30569934  0.25507963  1
  P  P26  1  0.29538072  0.30569934  0.75507963  1
  P  P27  1  0.69889004  0.99386614  0.75069405  1
  P  P28  1  0.96164310  0.32719914  0.58402705  1
  P  P29  1  0.67698561  0.63903234  0.58841263  1
  P  P30  1  0.96204772  0.63903234  0.08841263  1
  P  P31  1  0.36555704  0.32719914  0.08402705  1
  P  P32  1  0.62830910  0.66053314  0.91736105  1
  P  P33  1  0.34365161  0.97236634  0.92174663  1
  P  P34  1  0.62871372  0.97236634  0.42174663  1
  P  P35  1  0.03222304  0.66053314  0.41736105  1
  S  S36  1  0.69948964  0.71080570  0.24911132  1
  S  S37  1  0.01131606  0.71080570  0.74911132  1
  S  S38  1  0.36615664  0.04413870  0.58244432  1
  S  S39  1  0.67798306  0.04413870  0.08244432  1
  S  S40  1  0.03282264  0.37747270  0.91577832  1
  S  S41  1  0.34464906  0.37747270  0.41577832  1
  O  O42  1  0.20478457  0.00587533  0.30320508  1
  O  O43  1  0.79511559  0.78718739  0.30182771  1
  O  O44  1  0.98985729  0.21521820  0.31172898  1
  O  O45  1  0.22536091  0.21521820  0.81172898  1
  O  O46  1  0.99207180  0.78718739  0.80182771  1
  O  O47  1  0.80109076  0.00587533  0.80320508  1
  O  O48  1  0.78764908  0.96871097  0.69443589  1
  O  O49  1  0.17818562  0.20105868  0.70176451  1
  O  O50  1  0.02933505  0.81635395  0.69726241  1
  O  O51  1  0.78701890  0.81635395  0.19726241  1
  O  O52  1  0.02287306  0.20105868  0.20176451  1
  O  O53  1  0.18106189  0.96871097  0.19443589  1
  O  O54  1  0.87145157  0.33920833  0.63653808  1
  O  O55  1  0.46178259  0.12052039  0.63516071  1
  O  O56  1  0.65652429  0.54855120  0.64506198  1
  O  O57  1  0.89202791  0.54855120  0.14506198  1
  O  O58  1  0.65873880  0.12052039  0.13516071  1
  O  O59  1  0.46775776  0.33920833  0.13653808  1
  O  O60  1  0.45431608  0.30204397  0.02776889  1
  O  O61  1  0.84485262  0.53439168  0.03509751  1
  O  O62  1  0.69600205  0.14968695  0.03059541  1
  O  O63  1  0.45368590  0.14968695  0.53059541  1
  O  O64  1  0.68954006  0.53439168  0.53509751  1
  O  O65  1  0.84772889  0.30204397  0.52776889  1
  O  O66  1  0.53811757  0.67254233  0.96987208  1
  O  O67  1  0.12844859  0.45385439  0.96849471  1
  O  O68  1  0.32319029  0.88188520  0.97839598  1
  O  O69  1  0.55869391  0.88188520  0.47839598  1
  O  O70  1  0.32540480  0.45385439  0.46849471  1
  O  O71  1  0.13442376  0.67254233  0.46987208  1
  O  O72  1  0.12098208  0.63537797  0.36110289  1
  O  O73  1  0.51151862  0.86772568  0.36843151  1
  O  O74  1  0.36266805  0.48302095  0.36392941  1
  O  O75  1  0.12035190  0.48302095  0.86392941  1
  O  O76  1  0.35620606  0.86772568  0.86843151  1
  O  O77  1  0.51439489  0.63537797  0.86110289  1
  O  O78  1  -0.00152183  0.80511962  0.41256357  1
  O  O79  1  0.81052782  0.00894738  0.41456646  1
  O  O80  1  0.19468909  0.21009019  0.41042946  1
  O  O81  1  0.01540110  0.21009019  0.91042946  1
  O  O82  1  0.19841956  0.00894738  0.91456646  1
  O  O83  1  0.80664146  0.80511962  0.91256357  1
  O  O84  1  0.96418335  0.15477592  0.58686298  1
  O  O85  1  0.19559873  0.02974537  0.58514175  1
  O  O86  1  0.84649734  0.81354483  0.58845645  1
  O  O87  1  0.96704749  0.81354483  0.08845645  1
  O  O88  1  0.83414664  0.02974537  0.08514175  1
  O  O89  1  0.19059257  0.15477592  0.08686298  1
  O  O90  1  0.66514517  0.13845262  0.74589657  1
  O  O91  1  0.47719482  0.34228038  0.74789946  1
  O  O92  1  0.86135609  0.54342319  0.74376246  1
  O  O93  1  0.68206810  0.54342319  0.24376246  1
  O  O94  1  0.86508656  0.34228038  0.24789946  1
  O  O95  1  0.47330846  0.13845262  0.24589657  1
  O  O96  1  0.63085035  0.48810892  0.92019598  1
  O  O97  1  0.86226573  0.36307837  0.91847475  1
  O  O98  1  0.51316434  0.14687783  0.92178945  1
  O  O99  1  0.63371449  0.14687783  0.42178945  1
  O  O100  1  0.50081364  0.36307837  0.41847475  1
  O  O101  1  0.85725957  0.48810892  0.42019598  1
  O  O102  1  0.33181117  0.47178662  0.07923057  1
  O  O103  1  0.14386082  0.67561438  0.08123346  1
  O  O104  1  0.52802209  0.87675719  0.07709646  1
  O  O105  1  0.34873410  0.87675719  0.57709646  1
  O  O106  1  0.53175256  0.67561438  0.58123346  1
  O  O107  1  0.13997446  0.47178662  0.57923057  1
  O  O108  1  0.29751635  0.82144292  0.25352998  1
  O  O109  1  0.52893173  0.69641237  0.25180875  1
  O  O110  1  0.17983034  0.48021183  0.25512345  1
  O  O111  1  0.30038049  0.48021183  0.75512345  1
  O  O112  1  0.16747964  0.69641237  0.75180875  1
  O  O113  1  0.52392557  0.82144292  0.75352998  1
