# generated using pymatgen
data_Na3Zr3AlSi3(SO8)3
_symmetry_space_group_name_H-M   'P 1'
_cell_length_a   8.91945404
_cell_length_b   8.97062963
_cell_length_c   23.08754274
_cell_angle_alpha   89.95924587
_cell_angle_beta   90.01264289
_cell_angle_gamma   120.02566126
_symmetry_Int_Tables_number   1
_chemical_formula_structural   Na3Zr3AlSi3(SO8)3
_chemical_formula_sum   'Na9 Zr9 Al3 Si9 S9 O72'
_cell_volume   1599.39991958
_cell_formula_units_Z   3
loop_
 _symmetry_equiv_pos_site_id
 _symmetry_equiv_pos_as_xyz
  1  'x, y, z'
loop_
 _atom_site_type_symbol
 _atom_site_label
 _atom_site_symmetry_multiplicity
 _atom_site_fract_x
 _atom_site_fract_y
 _atom_site_fract_z
 _atom_site_occupancy
  Na  Na0  1  0.35456951  0.35815964  0.24170308  1
  Na  Na1  1  0.64403664  0.62895691  0.75266258  1
  Na  Na2  1  0.97389894  0.29764630  0.41669884  1
  Na  Na3  1  0.99277307  0.00472440  0.49423890  1
  Na  Na4  1  0.99648882  0.98082185  0.00319615  1
  Na  Na5  1  0.66284236  0.33899597  0.82945102  1
  Na  Na6  1  0.66405171  0.31755166  0.32628406  1
  Na  Na7  1  0.29991857  0.65339814  0.16444511  1
  Na  Na8  1  0.29033949  0.64470612  0.66599956  1
  Zr  Zr9  1  0.00718859  0.99138672  0.84900657  1
  Zr  Zr10  1  0.01296724  0.01702905  0.64592374  1
  Zr  Zr11  1  0.00877839  0.00937346  0.14561214  1
  Zr  Zr12  1  0.66549763  0.35571758  0.98086673  1
  Zr  Zr13  1  0.66210541  0.31917071  0.47806148  1
  Zr  Zr14  1  0.34322708  0.65536876  0.02799438  1
  Zr  Zr15  1  0.32881785  0.64828472  0.51841127  1
  Zr  Zr16  1  0.33620982  0.66498498  0.31372752  1
  Zr  Zr17  1  0.32634009  0.65204886  0.81095711  1
  Al  Al18  1  0.98682551  0.02767834  0.35165683  1
  Al  Al19  1  0.68507621  0.34787476  0.68865485  1
  Al  Al20  1  0.69798462  0.34438505  0.17897737  1
  Si  Si21  1  0.97920335  0.29035624  0.25054320  1
  Si  Si22  1  0.31278531  0.29122370  0.74718385  1
  Si  Si23  1  0.99655755  0.70041580  0.74481217  1
  Si  Si24  1  0.94901112  0.33775264  0.58700809  1
  Si  Si25  1  0.95827585  0.62618953  0.08623013  1
  Si  Si26  1  0.39560893  0.33480615  0.09314397  1
  Si  Si27  1  0.63340270  0.67673677  0.91456998  1
  Si  Si28  1  0.63137570  0.95092673  0.41576436  1
  Si  Si29  1  0.32654484  0.35929703  0.41191141  1
  S  S30  1  0.28465169  0.00209626  0.25366032  1
  S  S31  1  0.71943890  0.71171569  0.25317444  1
  S  S32  1  0.70841661  0.01038287  0.74879867  1
  S  S33  1  0.38301002  0.04441035  0.58654262  1
  S  S34  1  0.66618113  0.61802329  0.58648111  1
  S  S35  1  0.66573659  0.05303066  0.08511531  1
  S  S36  1  0.03935317  0.36971715  0.91778611  1
  S  S37  1  0.33741948  0.95529399  0.91746857  1
  S  S38  1  0.04255504  0.67833409  0.41574200  1
  O  O39  1  0.18890763  0.01806996  0.30348314  1
  O  O40  1  0.82315419  0.80309268  0.30467607  1
  O  O41  1  0.96065094  0.18319480  0.31052772  1
  O  O42  1  0.21656060  0.17649532  0.80494447  1
  O  O43  1  0.95513598  0.78795409  0.80212650  1
  O  O44  1  0.81604598  0.03613360  0.80128729  1
  O  O45  1  0.78739201  0.97525535  0.69800721  1
  O  O46  1  0.18121826  0.20947609  0.69247314  1
  O  O47  1  0.01528838  0.82243743  0.69034992  1
  O  O48  1  0.79813329  0.80900538  0.19964343  1
  O  O49  1  0.02399099  0.19597671  0.19781502  1
  O  O50  1  0.18562656  0.97626190  0.19890536  1
  O  O51  1  0.83850370  0.34602341  0.64082320  1
  O  O52  1  0.48195341  0.13398282  0.63781854  1
  O  O53  1  0.64726729  0.51982732  0.64006922  1
  O  O54  1  0.87327721  0.50547773  0.14175794  1
  O  O55  1  0.64761298  0.13872793  0.13665641  1
  O  O56  1  0.50553201  0.34368802  0.15059501  1
  O  O57  1  0.47359319  0.30965033  0.03224013  1
  O  O58  1  0.84831681  0.53702242  0.02657548  1
  O  O59  1  0.68789108  0.14839852  0.03107140  1
  O  O60  1  0.46110859  0.14482659  0.53219989  1
  O  O61  1  0.67950540  0.53124040  0.53414019  1
  O  O62  1  0.85214675  0.32373194  0.52493898  1
  O  O63  1  0.52545809  0.68450001  0.97062732  1
  O  O64  1  0.14184656  0.45825701  0.96967373  1
  O  O65  1  0.31547286  0.85380777  0.96986189  1
  O  O66  1  0.53066499  0.83608176  0.47330957  1
  O  O67  1  0.28110369  0.44932335  0.46780070  1
  O  O68  1  0.14831616  0.70210097  0.46857080  1
  O  O69  1  0.12145518  0.63922930  0.36518421  1
  O  O70  1  0.50583796  0.86597897  0.35995993  1
  O  O71  1  0.35311197  0.47959858  0.35503680  1
  O  O72  1  0.12006301  0.47638167  0.86469765  1
  O  O73  1  0.34516123  0.86656015  0.86436671  1
  O  O74  1  0.52457264  0.65979440  0.85532663  1
  O  O75  1  0.02351656  0.82780323  0.40644795  1
  O  O76  1  0.82252922  0.97242639  0.40759596  1
  O  O77  1  0.15390635  0.17242642  0.40318718  1
  O  O78  1  0.03141340  0.20262044  0.91163586  1
  O  O79  1  0.18332838  0.98037770  0.91299132  1
  O  O80  1  0.82531889  0.84982572  0.91211503  1
  O  O81  1  0.96711884  0.16327577  0.58929507  1
  O  O82  1  0.20513086  0.02373689  0.58731267  1
  O  O83  1  0.81993649  0.79296416  0.58867046  1
  O  O84  1  0.96702201  0.81184259  0.09127999  1
  O  O85  1  0.81749164  0.02742226  0.09083204  1
  O  O86  1  0.19687196  0.17145179  0.09333779  1
  O  O87  1  0.68641678  0.16017330  0.74147432  1
  O  O88  1  0.50172761  0.31426972  0.73502684  1
  O  O89  1  0.82488181  0.51140791  0.74072069  1
  O  O90  1  0.69164631  0.53482105  0.25046792  1
  O  O91  1  0.80472564  0.30210108  0.23846355  1
  O  O92  1  0.45501471  0.16058333  0.24995712  1
  O  O93  1  0.64742277  0.50021409  0.91671280  1
  O  O94  1  0.86263320  0.34392992  0.92118512  1
  O  O95  1  0.49687891  0.12662388  0.91984848  1
  O  O96  1  0.66975171  0.15238860  0.42122782  1
  O  O97  1  0.50084700  0.35055118  0.42251876  1
  O  O98  1  0.86984846  0.51790210  0.42246519  1
  O  O99  1  0.37823395  0.51042209  0.08714873  1
  O  O100  1  0.15378039  0.65331719  0.07761394  1
  O  O101  1  0.50636628  0.87961156  0.08227756  1
  O  O102  1  0.36698807  0.87264952  0.58128246  1
  O  O103  1  0.50663096  0.63439362  0.58186108  1
  O  O104  1  0.14403237  0.51183540  0.58209920  1
  O  O105  1  0.30748267  0.84916752  0.25729158  1
  O  O106  1  0.53913910  0.69157771  0.25521398  1
  O  O107  1  0.15944321  0.48299261  0.25492325  1
  O  O108  1  0.34362603  0.48963102  0.75436874  1
  O  O109  1  0.17000235  0.68630920  0.75412709  1
  O  O110  1  0.53558500  0.85178248  0.75568223  1
