# generated using pymatgen
data_Na7La2Nb2Si5PO24
_symmetry_space_group_name_H-M   'P 1'
_cell_length_a   9.50532398
_cell_length_b   9.51746358
_cell_length_c   22.39103455
_cell_angle_alpha   90.37916989
_cell_angle_beta   89.66962005
_cell_angle_gamma   120.01050051
_symmetry_Int_Tables_number   1
_chemical_formula_structural   Na7La2Nb2Si5PO24
_chemical_formula_sum   'Na21 La6 Nb6 Si15 P3 O72'
_cell_volume   1754.02476033
_cell_formula_units_Z   3
loop_
 _symmetry_equiv_pos_site_id
 _symmetry_equiv_pos_as_xyz
  1  'x, y, z'
loop_
 _atom_site_type_symbol
 _atom_site_label
 _atom_site_symmetry_multiplicity
 _atom_site_fract_x
 _atom_site_fract_y
 _atom_site_fract_z
 _atom_site_occupancy
  Na  Na0  1  0.66454457  0.02127530  0.24768988  1
  Na  Na1  1  0.36445588  0.35643844  0.24723435  1
  Na  Na2  1  0.98510122  0.63753414  0.24470191  1
  Na  Na3  1  0.63941258  0.63073495  0.74795735  1
  Na  Na4  1  0.98354291  0.34293695  0.74599945  1
  Na  Na5  1  0.35905585  0.01792016  0.74468433  1
  Na  Na6  1  0.31888234  0.34207478  0.57894901  1
  Na  Na7  1  0.03061107  0.69240878  0.57746755  1
  Na  Na8  1  0.65385312  0.96543942  0.57857804  1
  Na  Na9  1  0.30427725  0.96936726  0.07239947  1
  Na  Na10  1  0.02671602  0.34662257  0.07825480  1
  Na  Na11  1  0.99471284  0.68043735  0.91174019  1
  Na  Na12  1  0.31503077  0.29325576  0.91006303  1
  Na  Na13  1  0.32351861  0.01633852  0.41125536  1
  Na  Na14  1  0.70479782  0.68008206  0.40977498  1
  Na  Na15  1  0.98693113  0.00258340  0.49869381  1
  Na  Na16  1  0.97880447  0.99952569  0.00017178  1
  Na  Na17  1  0.66875357  0.31803827  0.83233172  1
  Na  Na18  1  0.68006082  0.33237398  0.33285022  1
  Na  Na19  1  0.34005900  0.64957239  0.16457424  1
  Na  Na20  1  0.33713754  0.66576746  0.66221266  1
  La  La21  1  0.00007500  0.00905306  0.34749852  1
  La  La22  1  0.99065547  0.00039492  0.84969380  1
  La  La23  1  0.66714755  0.33474136  0.67545769  1
  La  La24  1  0.66402036  0.34004736  0.17412918  1
  La  La25  1  0.34230125  0.66734141  0.01451507  1
  La  La26  1  0.32891064  0.66246461  0.50758676  1
  Nb  Nb27  1  0.99812306  0.99764304  0.64768812  1
  Nb  Nb28  1  0.00488426  0.99654616  0.14922600  1
  Nb  Nb29  1  0.66503339  0.33418610  0.98231515  1
  Nb  Nb30  1  0.67639886  0.33213617  0.48335762  1
  Nb  Nb31  1  0.32726552  0.66898794  0.31476892  1
  Nb  Nb32  1  0.32871406  0.67133687  0.81291743  1
  Si  Si33  1  0.29963422  0.98610443  0.25173865  1
  Si  Si34  1  0.69068922  0.70751636  0.25232355  1
  Si  Si35  1  0.01110979  0.30994484  0.24635752  1
  Si  Si36  1  0.29260187  0.30877917  0.75143605  1
  Si  Si37  1  0.01364677  0.70491478  0.75162924  1
  Si  Si38  1  0.68794087  0.98692218  0.74768505  1
  Si  Si39  1  0.96764239  0.31593943  0.58574336  1
  Si  Si40  1  0.35327142  0.03447726  0.58369759  1
  Si  Si41  1  0.68087930  0.64493875  0.58449267  1
  Si  Si42  1  0.96260006  0.64808952  0.08431208  1
  Si  Si43  1  0.34771396  0.31406392  0.08667559  1
  Si  Si44  1  0.02230793  0.37666507  0.92022193  1
  Si  Si45  1  0.35253804  0.97737106  0.91927248  1
  Si  Si46  1  0.62614918  0.97927015  0.42025894  1
  Si  Si47  1  0.01829152  0.64915852  0.41938196  1
  P  P48  1  0.69161416  0.04837069  0.08429633  1
  P  P49  1  0.62256679  0.63694430  0.91347256  1
  P  P50  1  0.36202806  0.37621096  0.41631992  1
  O  O51  1  0.23554684  0.01799562  0.31349613  1
  O  O52  1  0.78752283  0.76818088  0.31401999  1
  O  O53  1  0.95950662  0.19214704  0.30260076  1
  O  O54  1  0.22695829  0.20897926  0.81224704  1
  O  O55  1  0.99314934  0.77429492  0.81402380  1
  O  O56  1  0.80568560  0.03655828  0.80384438  1
  O  O57  1  0.79777089  0.96572887  0.68992880  1
  O  O58  1  0.15789930  0.19032542  0.69573214  1
  O  O59  1  0.02870051  0.83621931  0.69622351  1
  O  O60  1  0.81398966  0.84614468  0.19915781  1
  O  O61  1  0.03349528  0.20083135  0.18890815  1
  O  O62  1  0.16417998  0.96954948  0.19693825  1
  O  O63  1  0.90723769  0.34890396  0.64835611  1
  O  O64  1  0.44505612  0.09903514  0.64630899  1
  O  O65  1  0.65095467  0.55647463  0.64784176  1
  O  O66  1  0.90348190  0.55459926  0.14675616  1
  O  O67  1  0.67816865  0.10816800  0.14625718  1
  O  O68  1  0.42400379  0.32165693  0.15094704  1
  O  O69  1  0.47553685  0.30721384  0.03228762  1
  O  O70  1  0.82937957  0.52646994  0.02957879  1
  O  O71  1  0.69868945  0.17775066  0.03588704  1
  O  O72  1  0.47458990  0.17028551  0.52950751  1
  O  O73  1  0.69386956  0.52116464  0.53058259  1
  O  O74  1  0.82918735  0.30515593  0.53259466  1
  O  O75  1  0.55528025  0.65846259  0.97199956  1
  O  O76  1  0.10737475  0.45424926  0.98260018  1
  O  O77  1  0.32326966  0.88034245  0.97994751  1
  O  O78  1  0.55343354  0.89844323  0.48372055  1
  O  O79  1  0.34636769  0.43563757  0.47814349  1
  O  O80  1  0.10639988  0.67445371  0.48235464  1
  O  O81  1  0.13910691  0.63675503  0.36406151  1
  O  O82  1  0.48684803  0.85352880  0.36619157  1
  O  O83  1  0.36127743  0.49442187  0.36584941  1
  O  O84  1  0.14527332  0.51218026  0.86456248  1
  O  O85  1  0.36615224  0.85985264  0.86256260  1
  O  O86  1  0.51281512  0.63011364  0.85918997  1
  O  O87  1  0.99125283  0.80264406  0.41180979  1
  O  O88  1  0.80106605  0.99303956  0.41406506  1
  O  O89  1  0.22451865  0.20012896  0.40983965  1
  O  O90  1  0.00902894  0.20175720  0.91518534  1
  O  O91  1  0.20110736  0.00832657  0.91199298  1
  O  O92  1  0.80182065  0.76812745  0.90891613  1
  O  O93  1  0.95168830  0.13391161  0.58495215  1
  O  O94  1  0.18197952  0.04474916  0.58594032  1
  O  O95  1  0.86280611  0.81402084  0.58523913  1
  O  O96  1  0.95868512  0.82199554  0.08871194  1
  O  O97  1  0.85687553  0.05199683  0.07954104  1
  O  O98  1  0.17653361  0.13246857  0.08361994  1
  O  O99  1  0.64095251  0.12738417  0.74208306  1
  O  O100  1  0.47673390  0.34600652  0.74305901  1
  O  O101  1  0.86965883  0.51947451  0.74508745  1
  O  O102  1  0.65070508  0.52271266  0.24269958  1
  O  O103  1  0.87060812  0.35717110  0.24058345  1
  O  O104  1  0.48618953  0.12379770  0.24188284  1
  O  O105  1  0.61167938  0.46447748  0.91586287  1
  O  O106  1  0.84715425  0.37899988  0.91993746  1
  O  O107  1  0.52583211  0.15512903  0.92458051  1
  O  O108  1  0.62159989  0.15284449  0.41920718  1
  O  O109  1  0.53186267  0.38668327  0.41273052  1
  O  O110  1  0.84229261  0.47484009  0.42171626  1
  O  O111  1  0.30844361  0.45984363  0.08169011  1
  O  O112  1  0.14846442  0.68836544  0.07715894  1
  O  O113  1  0.54316820  0.88175568  0.07507299  1
  O  O114  1  0.31423660  0.84897246  0.57722027  1
  O  O115  1  0.53371254  0.68129837  0.57550562  1
  O  O116  1  0.15300459  0.45863748  0.57599453  1
  O  O117  1  0.28389587  0.80100106  0.25535532  1
  O  O118  1  0.51799665  0.71494944  0.25584667  1
  O  O119  1  0.19464278  0.47819100  0.25581949  1
  O  O120  1  0.28451266  0.48075664  0.75463239  1
  O  O121  1  0.19695832  0.71394910  0.75366795  1
  O  O122  1  0.51982537  0.80406283  0.75486151  1
