# generated using pymatgen
data_MgV4O7F5
_symmetry_space_group_name_H-M   'P 1'
_cell_length_a   5.13864559
_cell_length_b   7.59093364
_cell_length_c   5.37838554
_cell_angle_alpha   93.16752821
_cell_angle_beta   87.29102366
_cell_angle_gamma   91.99064572
_symmetry_Int_Tables_number   1
_chemical_formula_structural   MgV4O7F5
_chemical_formula_sum   'Mg1 V4 O7 F5'
_cell_volume   209.13213924
_cell_formula_units_Z   1
loop_
 _symmetry_equiv_pos_site_id
 _symmetry_equiv_pos_as_xyz
  1  'x, y, z'
loop_
 _atom_site_type_symbol
 _atom_site_label
 _atom_site_symmetry_multiplicity
 _atom_site_fract_x
 _atom_site_fract_y
 _atom_site_fract_z
 _atom_site_occupancy
  Mg  Mg0  1  0.49629500  0.28906100  0.90699400  1
  V  V1  1  0.45283200  0.51893500  0.47786400  1
  V  V2  1  0.51329800  0.02120000  0.49853100  1
  V  V3  1  0.02428300  0.52311000  0.00304000  1
  V  V4  1  0.99804900  0.98728100  0.00082100  1
  O  O5  1  0.71729300  0.96206700  0.20063300  1
  O  O6  1  0.59389300  0.24136700  0.51821000  1
  O  O7  1  0.40848000  0.73427500  0.49482900  1
  O  O8  1  0.31167100  0.43976000  0.19293100  1
  O  O9  1  0.29735100  0.05900200  0.82756200  1
  O  O10  1  0.22682000  0.44193800  0.71143900  1
  O  O11  1  0.08905300  0.74109900  0.99859400  1
  F  F12  1  0.86719800  0.25743500  0.99894900  1
  F  F13  1  0.80503300  0.53304800  0.32289900  1
  F  F14  1  0.80117000  0.94213800  0.69468600  1
  F  F15  1  0.69573100  0.52617400  0.81383500  1
  F  F16  1  0.20154900  0.04104200  0.31318400  1
