# generated using pymatgen
data_Ca2Si5N8
_symmetry_space_group_name_H-M   'P 1'
_cell_length_a   7.70372644
_cell_length_b   7.70372644
_cell_length_c   9.68072662
_cell_angle_alpha   69.56208438
_cell_angle_beta   69.56208438
_cell_angle_gamma   42.65308130
_symmetry_Int_Tables_number   1
_chemical_formula_structural   Ca2Si5N8
_chemical_formula_sum   'Ca4 Si10 N16'
_cell_volume   360.88885304
_cell_formula_units_Z   2
loop_
 _symmetry_equiv_pos_site_id
 _symmetry_equiv_pos_as_xyz
  1  'x, y, z'
loop_
 _atom_site_type_symbol
 _atom_site_label
 _atom_site_symmetry_multiplicity
 _atom_site_fract_x
 _atom_site_fract_y
 _atom_site_fract_z
 _atom_site_occupancy
  Ca  Ca0  1  0.35654722  0.86404731  0.30128750  1
  Ca  Ca1  1  0.86404731  0.35654722  0.80128750  1
  Ca  Ca2  1  0.76423783  0.23628064  0.49840885  1
  Ca  Ca3  1  0.23628064  0.76423783  0.99840885  1
  Si  Si4  1  0.85767676  0.85276183  0.37391984  1
  Si  Si5  1  0.85276183  0.85767676  0.87391984  1
  Si  Si6  1  0.57056784  0.15420621  0.13195468  1
  Si  Si7  1  0.15420621  0.57056784  0.63195468  1
  Si  Si8  1  0.25097891  0.25796217  0.43692644  1
  Si  Si9  1  0.25796217  0.25097891  0.93692644  1
  Si  Si10  1  0.96578449  0.54574286  0.18190912  1
  Si  Si11  1  0.54574286  0.96578449  0.68190912  1
  Si  Si12  1  0.86396813  0.25131686  0.14688520  1
  Si  Si13  1  0.25131686  0.86396813  0.64688520  1
  N  N14  1  0.27890283  0.31301984  0.08372991  1
  N  N15  1  0.31301984  0.27890283  0.58372991  1
  N  N16  1  0.78863342  0.47383055  0.22676946  1
  N  N17  1  0.47383055  0.78863342  0.72676946  1
  N  N18  1  0.84768175  0.81905439  0.56513041  1
  N  N19  1  0.81905439  0.84768175  0.06513041  1
  N  N20  1  0.97771948  0.98338073  0.28216273  1
  N  N21  1  0.98338073  0.97771948  0.78216273  1
  N  N22  1  0.55078265  0.05562958  0.32431725  1
  N  N23  1  0.05562958  0.55078265  0.82431725  1
  N  N24  1  0.03732653  0.55337352  0.33020691  1
  N  N25  1  0.55337352  0.03732653  0.83020691  1
  N  N26  1  0.13846846  0.11966793  0.50391991  1
  N  N27  1  0.11966793  0.13846846  0.00391991  1
  N  N28  1  0.34631878  0.62692950  0.57057178  1
  N  N29  1  0.62692950  0.34631878  0.07057178  1
