# generated using pymatgen
data_Na5Sc3TaSiP5O24
_symmetry_space_group_name_H-M   'P 1'
_cell_length_a   8.99837119
_cell_length_b   9.00475593
_cell_length_c   22.54073587
_cell_angle_alpha   90.02494467
_cell_angle_beta   89.97401481
_cell_angle_gamma   120.02518681
_symmetry_Int_Tables_number   1
_chemical_formula_structural   Na5Sc3TaSiP5O24
_chemical_formula_sum   'Na15 Sc9 Ta3 Si3 P15 O72'
_cell_volume   1581.33628242
_cell_formula_units_Z   3
loop_
 _symmetry_equiv_pos_site_id
 _symmetry_equiv_pos_as_xyz
  1  'x, y, z'
loop_
 _atom_site_type_symbol
 _atom_site_label
 _atom_site_symmetry_multiplicity
 _atom_site_fract_x
 _atom_site_fract_y
 _atom_site_fract_z
 _atom_site_occupancy
  Na  Na0  1  0.63712735  0.99954700  0.25181969  1
  Na  Na1  1  0.36203682  0.36117268  0.25101623  1
  Na  Na2  1  0.00140445  0.63798906  0.25121631  1
  Na  Na3  1  0.30463597  0.34082019  0.58904728  1
  Na  Na4  1  0.03496613  0.70253333  0.58538031  1
  Na  Na5  1  0.66477586  0.96149943  0.58609518  1
  Na  Na6  1  0.29515300  0.95796184  0.07955246  1
  Na  Na7  1  0.97565733  0.67632747  0.91222532  1
  Na  Na8  1  0.69532112  0.01859839  0.90962971  1
  Na  Na9  1  0.99664640  0.99653818  0.49569438  1
  Na  Na10  1  0.01015904  0.02262167  0.99685473  1
  Na  Na11  1  0.65216313  0.32915271  0.82344074  1
  Na  Na12  1  0.66662608  0.33099603  0.33503851  1
  Na  Na13  1  0.33431790  0.65206425  0.16104616  1
  Na  Na14  1  0.34106093  0.66588113  0.66899807  1
  Sc  Sc15  1  0.99942746  0.99930400  0.35449329  1
  Sc  Sc16  1  0.00946369  0.00924931  0.85071005  1
  Sc  Sc17  1  0.99683771  0.99725418  0.65210852  1
  Sc  Sc18  1  0.99355607  0.00054720  0.14427373  1
  Sc  Sc19  1  0.66520110  0.33658694  0.68794875  1
  Sc  Sc20  1  0.66888955  0.33598733  0.18356138  1
  Sc  Sc21  1  0.32740955  0.65682484  0.01894860  1
  Sc  Sc22  1  0.33689642  0.66695308  0.51515119  1
  Sc  Sc23  1  0.33408069  0.66718186  0.32017938  1
  Ta  Ta24  1  0.66535133  0.33294737  0.97894237  1
  Ta  Ta25  1  0.66838640  0.33866574  0.47886301  1
  Ta  Ta26  1  0.33016881  0.66581980  0.81368847  1
  Si  Si27  1  0.66636899  0.62820459  0.58473082  1
  Si  Si28  1  0.04194449  0.37124858  0.91829601  1
  Si  Si29  1  0.33144745  0.95767318  0.92016989  1
  P  P30  1  0.29184521  0.99819238  0.24833257  1
  P  P31  1  0.70695471  0.70855829  0.25028598  1
  P  P32  1  0.00170056  0.29272853  0.25024691  1
  P  P33  1  0.29629144  0.30069934  0.74875642  1
  P  P34  1  0.00264878  0.70371546  0.75142732  1
  P  P35  1  0.69959168  0.99635550  0.75138128  1
  P  P36  1  0.95608837  0.33402990  0.58296763  1
  P  P37  1  0.37835830  0.04447441  0.58294850  1
  P  P38  1  0.96057516  0.62896228  0.08380703  1
  P  P39  1  0.66910094  0.04196261  0.08324970  1
  P  P40  1  0.37488088  0.33451428  0.08504662  1
  P  P41  1  0.61909445  0.66233056  0.91696354  1
  P  P42  1  0.63299409  0.96840458  0.41723637  1
  P  P43  1  0.33387970  0.36673978  0.41726777  1
  P  P44  1  0.03436823  0.66566553  0.41748910  1
  O  O45  1  0.20197210  0.02723140  0.30121868  1
  O  O46  1  0.82058675  0.79232325  0.30466903  1
  O  O47  1  0.97006429  0.17806356  0.30449455  1
  O  O48  1  0.19913302  0.18905798  0.80189257  1
  O  O49  1  0.98632343  0.79093751  0.80722254  1
  O  O50  1  0.80310147  0.00971324  0.80701374  1
  O  O51  1  0.78327164  0.97331088  0.69412996  1
  O  O52  1  0.19513506  0.22578642  0.69022755  1
  O  O53  1  0.02858917  0.81061559  0.69428768  1
  O  O54  1  0.79069503  0.82142395  0.19492995  1
  O  O55  1  0.03058420  0.20942557  0.19475130  1
  O  O56  1  0.18684420  0.97123584  0.19070177  1
  O  O57  1  0.87159185  0.36262723  0.63695176  1
  O  O58  1  0.49415610  0.12234881  0.63689970  1
  O  O59  1  0.62887877  0.49923425  0.63910600  1
  O  O60  1  0.87177397  0.52836376  0.14062275  1
  O  O61  1  0.65037559  0.13043680  0.13928756  1
  O  O62  1  0.47164375  0.34580894  0.14296858  1
  O  O63  1  0.48380604  0.32233519  0.03157783  1
  O  O64  1  0.84812155  0.52721012  0.02838855  1
  O  O65  1  0.68102021  0.15782407  0.02767710  1
  O  O66  1  0.47512754  0.15996254  0.52739956  1
  O  O67  1  0.68975795  0.52416245  0.52577009  1
  O  O68  1  0.83943505  0.30972884  0.52710647  1
  O  O69  1  0.54192654  0.69911485  0.97096225  1
  O  O70  1  0.15534719  0.45828424  0.97575740  1
  O  O71  1  0.30670711  0.84928146  0.97973253  1
  O  O72  1  0.54284029  0.86193774  0.47279230  1
  O  O73  1  0.31880618  0.45640275  0.47304487  1
  O  O74  1  0.13782097  0.68044464  0.47339494  1
  O  O75  1  0.11661199  0.63993205  0.36086027  1
  O  O76  1  0.52460253  0.88580897  0.36062018  1
  O  O77  1  0.36188614  0.47550965  0.36077337  1
  O  O78  1  0.13744090  0.50175976  0.86100485  1
  O  O79  1  0.37217882  0.86062107  0.86416310  1
  O  O80  1  0.50332977  0.63065415  0.86146645  1
  O  O81  1  0.00689005  0.81939476  0.41322561  1
  O  O82  1  0.81279772  0.99166383  0.41320366  1
  O  O83  1  0.17912899  0.18617258  0.41303277  1
  O  O84  1  0.99065790  0.17352161  0.91063128  1
  O  O85  1  0.16353611  0.97461938  0.91050624  1
  O  O86  1  0.80174987  0.81302309  0.90797038  1
  O  O87  1  0.97103090  0.17035867  0.58587697  1
  O  O88  1  0.20370450  0.03849012  0.58612551  1
  O  O89  1  0.84316744  0.81446127  0.58702240  1
  O  O90  1  0.97627929  0.80800891  0.08300497  1
  O  O91  1  0.83411590  0.03299695  0.08285444  1
  O  O92  1  0.20293829  0.16284631  0.08302776  1
  O  O93  1  0.67261026  0.15083046  0.74708194  1
  O  O94  1  0.47632830  0.32270284  0.74701125  1
  O  O95  1  0.84977335  0.52095917  0.74699808  1
  O  O96  1  0.68510141  0.52534576  0.24527299  1
  O  O97  1  0.84092300  0.31584116  0.24491706  1
  O  O98  1  0.47659723  0.15909578  0.24532703  1
  O  O99  1  0.63626550  0.49760866  0.92503698  1
  O  O100  1  0.85335807  0.37095486  0.92437737  1
  O  O101  1  0.51136882  0.14831916  0.92489528  1
  O  O102  1  0.64808346  0.14968361  0.42331082  1
  O  O103  1  0.50087499  0.35043666  0.42339571  1
  O  O104  1  0.85211702  0.49619089  0.42275157  1
  O  O105  1  0.35857718  0.49381624  0.08067818  1
  O  O106  1  0.14097722  0.64953378  0.08173511  1
  O  O107  1  0.50438815  0.86737879  0.07929444  1
  O  O108  1  0.34824873  0.86074134  0.57486793  1
  O  O109  1  0.49890217  0.65247931  0.57755778  1
  O  O110  1  0.13599571  0.49452527  0.57555902  1
  O  O111  1  0.31124939  0.83597536  0.25565836  1
  O  O112  1  0.52424155  0.68740950  0.25603133  1
  O  O113  1  0.16392134  0.47483605  0.25628830  1
  O  O114  1  0.31345500  0.48300674  0.75724488  1
  O  O115  1  0.17298293  0.69201716  0.75757038  1
  O  O116  1  0.51835540  0.82701563  0.75692717  1
