# generated using pymatgen
data_LiVPO5
_symmetry_space_group_name_H-M   'P 1'
_cell_length_a   6.28572402
_cell_length_b   6.28608256
_cell_length_c   8.78514588
_cell_angle_alpha   90.00000000
_cell_angle_beta   90.00000000
_cell_angle_gamma   90.00000000
_symmetry_Int_Tables_number   1
_chemical_formula_structural   LiVPO5
_chemical_formula_sum   'Li4 V4 P4 O20'
_cell_volume   347.12378062
_cell_formula_units_Z   4
loop_
 _symmetry_equiv_pos_site_id
 _symmetry_equiv_pos_as_xyz
  1  'x, y, z'
loop_
 _atom_site_type_symbol
 _atom_site_label
 _atom_site_symmetry_multiplicity
 _atom_site_fract_x
 _atom_site_fract_y
 _atom_site_fract_z
 _atom_site_occupancy
  Li  Li0  1  0.48659361  0.00991736  0.24373015  1
  Li  Li1  1  0.48659361  0.49008264  0.74373015  1
  Li  Li2  1  0.98659361  0.50991736  0.25626985  1
  Li  Li3  1  0.98659361  0.99008264  0.75626985  1
  V  V4  1  0.24822935  0.24700325  0.95771699  1
  V  V5  1  0.24822935  0.25299675  0.45771699  1
  V  V6  1  0.74822935  0.74700325  0.54228301  1
  V  V7  1  0.74822935  0.75299675  0.04228301  1
  P  P8  1  0.24751708  0.74894730  0.00002679  1
  P  P9  1  0.24751708  0.75105270  0.50002679  1
  P  P10  1  0.74751708  0.24894730  0.49997321  1
  P  P11  1  0.74751708  0.25105270  -0.00002679  1
  O  O12  1  0.05107173  0.73824499  0.10331208  1
  O  O13  1  0.05107173  0.76175501  0.60331208  1
  O  O14  1  0.23383443  0.55545617  0.39589763  1
  O  O15  1  0.23383443  0.94454383  0.89589763  1
  O  O16  1  0.25343659  0.24178195  0.14238747  1
  O  O17  1  0.25343659  0.25821805  0.64238747  1
  O  O18  1  0.26029046  0.55059999  0.89900000  1
  O  O19  1  0.26029046  0.94940001  0.39900000  1
  O  O20  1  0.44502575  0.73532009  0.60192802  1
  O  O21  1  0.44502575  0.76467991  0.10192802  1
  O  O22  1  0.55107173  0.23824499  0.39668792  1
  O  O23  1  0.55107173  0.26175501  0.89668792  1
  O  O24  1  0.73383443  0.05545617  0.10410237  1
  O  O25  1  0.73383443  0.44454383  0.60410237  1
  O  O26  1  0.75343659  0.74178195  0.35761253  1
  O  O27  1  0.75343659  0.75821805  0.85761253  1
  O  O28  1  0.76029046  0.05059999  0.60100000  1
  O  O29  1  0.76029046  0.44940001  0.10100000  1
  O  O30  1  0.94502575  0.23532009  0.89807198  1
  O  O31  1  0.94502575  0.26467991  0.39807198  1
