# generated using pymatgen
data_MgZn2(CoO2)4
_symmetry_space_group_name_H-M   'P 1'
_cell_length_a   5.93814549
_cell_length_b   6.16806897
_cell_length_c   6.31666756
_cell_angle_alpha   94.56732154
_cell_angle_beta   118.59406640
_cell_angle_gamma   117.67730834
_symmetry_Int_Tables_number   1
_chemical_formula_structural   MgZn2(CoO2)4
_chemical_formula_sum   'Mg1 Zn2 Co4 O8'
_cell_volume   165.78083425
_cell_formula_units_Z   1
loop_
 _symmetry_equiv_pos_site_id
 _symmetry_equiv_pos_as_xyz
  1  'x, y, z'
loop_
 _atom_site_type_symbol
 _atom_site_label
 _atom_site_symmetry_multiplicity
 _atom_site_fract_x
 _atom_site_fract_y
 _atom_site_fract_z
 _atom_site_occupancy
  Mg  Mg0  1  0.21879000  0.32857200  0.64375300  1
  Zn  Zn1  1  0.26943200  0.06129100  0.95853000  1
  Zn  Zn2  1  0.76875600  0.90068200  0.08318700  1
  Co  Co3  1  0.51700500  0.01200700  0.51858400  1
  Co  Co4  1  0.51702900  0.56628900  0.43999900  1
  Co  Co5  1  0.95936600  0.46928100  0.97756000  1
  Co  Co6  1  0.97124400  0.56879300  0.44990100  1
  O  O7  1  0.02909500  0.75196300  0.22181600  1
  O  O8  1  0.45694500  0.71603200  0.69736000  1
  O  O9  1  0.52770800  0.77251500  0.25068800  1
  O  O10  1  0.95149100  0.69193600  0.74102200  1
  O  O11  1  0.49659200  0.21968500  0.78719700  1
  O  O12  1  0.54187700  0.27482200  0.32301500  1
  O  O13  1  0.03984300  0.29554600  0.27182800  1
  O  O14  1  0.99524500  0.23516800  0.80222800  1
