# generated using pymatgen
data_Na2MgTiSi(SO6)2
_symmetry_space_group_name_H-M   'P 1'
_cell_length_a   8.83671296
_cell_length_b   8.83380444
_cell_length_c   22.30076717
_cell_angle_alpha   90.47751613
_cell_angle_beta   90.00000000
_cell_angle_gamma   120.01089205
_symmetry_Int_Tables_number   1
_chemical_formula_structural   Na2MgTiSi(SO6)2
_chemical_formula_sum   'Na12 Mg6 Ti6 Si6 S12 O72'
_cell_volume   1507.37452748
_cell_formula_units_Z   6
loop_
 _symmetry_equiv_pos_site_id
 _symmetry_equiv_pos_as_xyz
  1  'x, y, z'
loop_
 _atom_site_type_symbol
 _atom_site_label
 _atom_site_symmetry_multiplicity
 _atom_site_fract_x
 _atom_site_fract_y
 _atom_site_fract_z
 _atom_site_occupancy
  Na  Na0  1  0.99686663  0.63168759  0.24324151  1
  Na  Na1  1  0.63482096  0.63168759  0.74324151  1
  Na  Na2  1  0.65476198  0.95977374  0.57662896  1
  Na  Na3  1  0.30501276  0.95977374  0.07662896  1
  Na  Na4  1  0.69677515  0.02927601  0.91112791  1
  Na  Na5  1  0.33249986  0.02927601  0.41112791  1
  Na  Na6  1  0.98661327  0.99668918  0.49485572  1
  Na  Na7  1  0.01007591  0.99668918  0.99485572  1
  Na  Na8  1  0.66090329  0.31693534  0.82882810  1
  Na  Na9  1  0.65603306  0.31693534  0.32882810  1
  Na  Na10  1  0.32908104  0.65393168  0.16222652  1
  Na  Na11  1  0.32484964  0.65393168  0.66222652  1
  Mg  Mg12  1  0.99766606  0.00749200  0.35176002  1
  Mg  Mg13  1  0.00982594  0.00749200  0.85176002  1
  Mg  Mg14  1  0.66349045  0.32686257  0.68519365  1
  Mg  Mg15  1  0.66337313  0.32686257  0.18519365  1
  Mg  Mg16  1  0.32233614  0.66547537  0.01890364  1
  Mg  Mg17  1  0.34313823  0.66547537  0.51890364  1
  Ti  Ti18  1  0.98248487  0.98577724  0.64806096  1
  Ti  Ti19  1  0.00329237  0.98577724  0.14806096  1
  Ti  Ti20  1  0.67128984  0.34296166  0.98023553  1
  Ti  Ti21  1  0.67167282  0.34296166  0.48023553  1
  Ti  Ti22  1  0.34866488  0.69204603  0.31368784  1
  Ti  Ti23  1  0.34338015  0.69204603  0.81368784  1
  Si  Si24  1  0.29973986  0.01039300  0.25450633  1
  Si  Si25  1  0.71065315  0.01039300  0.75450633  1
  Si  Si26  1  0.65963893  0.61874157  0.58860430  1
  Si  Si27  1  0.95910364  0.61874157  0.08860430  1
  Si  Si28  1  0.32862866  0.96696539  0.92172307  1
  Si  Si29  1  0.63833573  0.96696539  0.42172307  1
  S  S30  1  0.70721121  0.71056839  0.25075302  1
  S  S31  1  0.00286481  0.29030803  0.25017260  1
  S  S32  1  0.28744322  0.29030803  0.75017260  1
  S  S33  1  0.00335718  0.71056839  0.75075302  1
  S  S34  1  0.95836591  0.33572122  0.58360409  1
  S  S35  1  0.37005110  0.04403496  0.58259682  1
  S  S36  1  0.67398486  0.04403496  0.08259682  1
  S  S37  1  0.37735631  0.33572122  0.08360409  1
  S  S38  1  0.61967467  0.66197094  0.91724390  1
  S  S39  1  0.04475720  0.37991876  0.91710202  1
  S  S40  1  0.33516056  0.37991876  0.41710202  1
  S  S41  1  0.04229527  0.66197094  0.41724390  1
  O  O42  1  0.20334688  0.01700775  0.31366455  1
  O  O43  1  0.81594664  0.79448134  0.30347793  1
  O  O44  1  0.97903496  0.18744282  0.30367257  1
  O  O45  1  0.20840786  0.18744282  0.80367257  1
  O  O46  1  0.97853471  0.79448134  0.80347793  1
  O  O47  1  0.81366087  0.01700775  0.81366455  1
  O  O48  1  0.80542039  0.96746634  0.69381267  1
  O  O49  1  0.18050743  0.20268078  0.69531168  1
  O  O50  1  0.03277722  0.82016531  0.69563441  1
  O  O51  1  0.78738809  0.82016531  0.19563441  1
  O  O52  1  0.02217336  0.20268078  0.19531168  1
  O  O53  1  0.16204595  0.96746634  0.19381267  1
  O  O54  1  0.87774450  0.35723312  0.63719207  1
  O  O55  1  0.48627944  0.12420486  0.63417415  1
  O  O56  1  0.64758607  0.51770022  0.64822403  1
  O  O57  1  0.87011515  0.51770022  0.14822403  1
  O  O58  1  0.63792642  0.12420486  0.13417415  1
  O  O59  1  0.47948962  0.35723312  0.13719207  1
  O  O60  1  0.45723836  0.29833320  0.02899961  1
  O  O61  1  0.82777016  0.51802948  0.02850849  1
  O  O62  1  0.69456280  0.14860883  0.02655817  1
  O  O63  1  0.45404704  0.14860883  0.52655817  1
  O  O64  1  0.69026032  0.51802948  0.52850849  1
  O  O65  1  0.84109585  0.29833320  0.52899961  1
  O  O66  1  0.53279882  0.68399162  0.96939857  1
  O  O67  1  0.14708131  0.45781930  0.97138146  1
  O  O68  1  0.31784410  0.85824551  0.97947740  1
  O  O69  1  0.54040041  0.85824551  0.47947740  1
  O  O70  1  0.31073699  0.45781930  0.47138146  1
  O  O71  1  0.15119180  0.68399162  0.46939857  1
  O  O72  1  0.12023183  0.63465142  0.36065187  1
  O  O73  1  0.49648716  0.86319330  0.36128273  1
  O  O74  1  0.35833668  0.48554512  0.36290067  1
  O  O75  1  0.12720744  0.48554512  0.86290067  1
  O  O76  1  0.36670514  0.86319330  0.86128273  1
  O  O77  1  0.51441859  0.63465142  0.86065187  1
  O  O78  1  0.02325383  0.81776679  0.41210723  1
  O  O79  1  0.82587396  0.99000376  0.41100324  1
  O  O80  1  0.18751028  0.19926175  0.41167538  1
  O  O81  1  0.01175147  0.19926175  0.91167538  1
  O  O82  1  0.16412980  0.99000376  0.91100324  1
  O  O83  1  0.79451296  0.81776679  0.91210723  1
  O  O84  1  0.97108891  0.17063311  0.58796095  1
  O  O85  1  0.19894454  0.03650347  0.58885382  1
  O  O86  1  0.84783782  0.82168953  0.59149567  1
  O  O87  1  0.97385171  0.82168953  0.09149567  1
  O  O88  1  0.83755893  0.03650347  0.08885382  1
  O  O89  1  0.19954420  0.17063311  0.08796095  1
  O  O90  1  0.67942356  0.16929515  0.74374197  1
  O  O91  1  0.46703306  0.31894373  0.74505197  1
  O  O92  1  0.84844416  0.53649323  0.74405373  1
  O  O93  1  0.68805007  0.53649323  0.24405373  1
  O  O94  1  0.85191167  0.31894373  0.24505197  1
  O  O95  1  0.48987259  0.16929515  0.24374197  1
  O  O96  1  0.63641236  0.50110356  0.92166196  1
  O  O97  1  0.86385272  0.36259596  0.92193358  1
  O  O98  1  0.52019637  0.15781163  0.92482299  1
  O  O99  1  0.63761626  0.15781163  0.42482299  1
  O  O100  1  0.49874425  0.36259596  0.42193358  1
  O  O101  1  0.86469220  0.50110356  0.42166196  1
  O  O102  1  0.35678639  0.48777747  0.07450890  1
  O  O103  1  0.15690616  0.65923795  0.08165765  1
  O  O104  1  0.52325342  0.86502669  0.07620106  1
  O  O105  1  0.34177227  0.86502669  0.57620106  1
  O  O106  1  0.50233079  0.65923795  0.58165765  1
  O  O107  1  0.13099008  0.48777747  0.57450890  1
  O  O108  1  0.30180517  0.81624050  0.25774522  1
  O  O109  1  0.52897991  0.69186079  0.25567042  1
  O  O110  1  0.16514121  0.46812392  0.25447477  1
  O  O111  1  0.30298171  0.46812392  0.75447477  1
  O  O112  1  0.16287988  0.69186079  0.75567042  1
  O  O113  1  0.51443433  0.81624050  0.75774522  1
