# generated using pymatgen
data_Rb2FeF5
_symmetry_space_group_name_H-M   'P 1'
_cell_length_a   5.80021455
_cell_length_b   7.50615804
_cell_length_c   11.97165432
_cell_angle_alpha   90.00000000
_cell_angle_beta   90.00000000
_cell_angle_gamma   90.00000000
_symmetry_Int_Tables_number   1
_chemical_formula_structural   Rb2FeF5
_chemical_formula_sum   'Rb8 Fe4 F20'
_cell_volume   521.21382980
_cell_formula_units_Z   4
loop_
 _symmetry_equiv_pos_site_id
 _symmetry_equiv_pos_as_xyz
  1  'x, y, z'
loop_
 _atom_site_type_symbol
 _atom_site_label
 _atom_site_symmetry_multiplicity
 _atom_site_fract_x
 _atom_site_fract_y
 _atom_site_fract_z
 _atom_site_occupancy
  Rb  Rb0  1  0.25000000  0.48355421  0.27702012  1
  Rb  Rb1  1  0.75000000  0.51644579  0.72297988  1
  Rb  Rb2  1  0.25000000  0.98355421  0.22297988  1
  Rb  Rb3  1  0.75000000  0.01644579  0.77702012  1
  Rb  Rb4  1  0.25000000  0.15696387  0.58546905  1
  Rb  Rb5  1  0.75000000  0.84303613  0.41453095  1
  Rb  Rb6  1  0.25000000  0.65696387  0.91453095  1
  Rb  Rb7  1  0.75000000  0.34303613  0.08546905  1
  Fe  Fe8  1  0.25000000  0.66522111  0.56362187  1
  Fe  Fe9  1  0.75000000  0.33477889  0.43637813  1
  Fe  Fe10  1  0.25000000  0.16522111  0.93637813  1
  Fe  Fe11  1  0.75000000  0.83477889  0.06362187  1
  F  F12  1  0.51046906  0.18678417  0.38223337  1
  F  F13  1  0.01046906  0.81321583  0.61776663  1
  F  F14  1  0.98953094  0.68678417  0.11776663  1
  F  F15  1  0.48953094  0.31321583  0.88223337  1
  F  F16  1  0.48953094  0.81321583  0.61776663  1
  F  F17  1  0.98953094  0.18678417  0.38223337  1
  F  F18  1  0.01046906  0.31321583  0.88223337  1
  F  F19  1  0.51046906  0.68678417  0.11776663  1
  F  F20  1  0.25000000  0.78145189  0.41966005  1
  F  F21  1  0.75000000  0.21854811  0.58033995  1
  F  F22  1  0.25000000  0.28145189  0.08033995  1
  F  F23  1  0.75000000  0.71854811  0.91966005  1
  F  F24  1  0.50000000  0.50000000  0.50000000  1
  F  F25  1  -0.00000000  0.50000000  0.50000000  1
  F  F26  1  -0.00000000  -0.00000000  -0.00000000  1
  F  F27  1  0.50000000  -0.00000000  -0.00000000  1
  F  F28  1  0.75000000  0.98400258  0.19137742  1
  F  F29  1  0.25000000  0.01599742  0.80862258  1
  F  F30  1  0.75000000  0.48400258  0.30862258  1
  F  F31  1  0.25000000  0.51599742  0.69137742  1
