# generated using pymatgen
data_MgMn2Al2O6
_symmetry_space_group_name_H-M   'P 1'
_cell_length_a   4.99243128
_cell_length_b   5.73153045
_cell_length_c   5.54050531
_cell_angle_alpha   69.57045259
_cell_angle_beta   115.15394843
_cell_angle_gamma   112.72876431
_symmetry_Int_Tables_number   1
_chemical_formula_structural   MgMn2Al2O6
_chemical_formula_sum   'Mg1 Mn2 Al2 O6'
_cell_volume   129.07512662
_cell_formula_units_Z   1
loop_
 _symmetry_equiv_pos_site_id
 _symmetry_equiv_pos_as_xyz
  1  'x, y, z'
loop_
 _atom_site_type_symbol
 _atom_site_label
 _atom_site_symmetry_multiplicity
 _atom_site_fract_x
 _atom_site_fract_y
 _atom_site_fract_z
 _atom_site_occupancy
  Mg  Mg0  1  0.35949119  0.22930362  0.33208084  1
  Mn  Mn1  1  0.73278489  0.45638021  0.91515347  1
  Mn  Mn2  1  0.51806165  0.88156138  0.05173212  1
  Al  Al3  1  0.94039816  0.10207228  0.61880844  1
  Al  Al4  1  0.06474482  0.65918138  0.47773096  1
  O  O5  1  0.02199369  0.78904636  0.71847334  1
  O  O6  1  0.65729002  0.12782186  0.71408884  1
  O  O7  1  0.24312085  0.39824055  0.70145001  1
  O  O8  1  0.67865731  0.55576841  0.24201619  1
  O  O9  1  0.28234645  0.88406403  0.27478977  1
  O  O10  1  0.91360995  0.18044793  0.26617703  1
