# generated using pymatgen
data_Na10La6Ta2Si7S5O48
_symmetry_space_group_name_H-M   'P 1'
_cell_length_a   18.97517825
_cell_length_b   9.51938528
_cell_length_c   23.75273315
_cell_angle_alpha   90.00884595
_cell_angle_beta   90.14076890
_cell_angle_gamma   120.12831296
_symmetry_Int_Tables_number   1
_chemical_formula_structural   Na10La6Ta2Si7S5O48
_chemical_formula_sum   'Na30 La18 Ta6 Si21 S15 O144'
_cell_volume   3710.85631467
_cell_formula_units_Z   3
loop_
 _symmetry_equiv_pos_site_id
 _symmetry_equiv_pos_as_xyz
  1  'x, y, z'
loop_
 _atom_site_type_symbol
 _atom_site_label
 _atom_site_symmetry_multiplicity
 _atom_site_fract_x
 _atom_site_fract_y
 _atom_site_fract_z
 _atom_site_occupancy
  Na  Na0  1  0.31230525  0.99888788  0.23985783  1
  Na  Na1  1  0.81818157  0.02238989  0.23759318  1
  Na  Na2  1  0.18181217  0.36458439  0.24528213  1
  Na  Na3  1  0.32255427  0.61975133  0.73997004  1
  Na  Na4  1  0.81169328  0.62552217  0.73930705  1
  Na  Na5  1  0.68222252  0.00055612  0.74809771  1
  Na  Na6  1  0.17114552  0.34739196  0.59283794  1
  Na  Na7  1  0.66091060  0.33286623  0.57604068  1
  Na  Na8  1  0.00723640  0.70058250  0.57264155  1
  Na  Na9  1  0.16666809  0.99412361  0.08415749  1
  Na  Na10  1  0.67129623  0.99566825  0.09078628  1
  Na  Na11  1  0.50646726  0.31395912  0.07127589  1
  Na  Na12  1  0.84621979  0.00483393  0.91785101  1
  Na  Na13  1  0.66281594  0.31019288  0.91566225  1
  Na  Na14  1  0.48868454  0.28966785  0.42397629  1
  Na  Na15  1  0.16385960  0.01627845  0.41818423  1
  Na  Na16  1  0.66798437  0.05765928  0.41315883  1
  Na  Na17  1  0.85139771  0.65106634  0.41212290  1
  Na  Na18  1  0.99874247  0.98355224  0.50383217  1
  Na  Na19  1  0.48095677  0.97950442  0.49697004  1
  Na  Na20  1  0.98947162  0.98091806  0.00183524  1
  Na  Na21  1  0.48421865  0.00890591  0.99969609  1
  Na  Na22  1  0.34634981  0.34730794  0.83272608  1
  Na  Na23  1  0.83116434  0.33337291  0.83630992  1
  Na  Na24  1  0.32449615  0.34239088  0.33517283  1
  Na  Na25  1  0.84299365  0.34326802  0.33252683  1
  Na  Na26  1  0.17195895  0.64525682  0.16491860  1
  Na  Na27  1  0.67983166  0.67329119  0.16040057  1
  Na  Na28  1  0.18244087  0.69585842  0.65929856  1
  Na  Na29  1  0.67218976  0.69999815  0.66304590  1
  La  La30  1  0.00467695  0.00911079  0.34857308  1
  La  La31  1  0.50014802  0.98898476  0.34698435  1
  La  La32  1  0.00598022  0.01337899  0.84918042  1
  La  La33  1  0.49911865  0.00219434  0.85119304  1
  La  La34  1  0.33239504  0.32748947  0.68310026  1
  La  La35  1  0.83016030  0.31587763  0.68214616  1
  La  La36  1  0.32888718  0.33988937  0.17967608  1
  La  La37  1  0.83212338  0.34033933  0.18302494  1
  La  La38  1  0.33902588  0.32184061  0.98304520  1
  La  La39  1  0.82761119  0.33651738  0.99123664  1
  La  La40  1  0.32327908  0.32813463  0.49122189  1
  La  La41  1  0.83748529  0.34914120  0.48616898  1
  La  La42  1  0.16969971  0.65791751  0.02082670  1
  La  La43  1  0.67381507  0.65733023  0.01798483  1
  La  La44  1  0.17783185  0.69481449  0.51582835  1
  La  La45  1  0.67014848  0.67049674  0.52221716  1
  La  La46  1  0.66095870  0.65702020  0.30954252  1
  La  La47  1  0.16043987  0.64581447  0.81009731  1
  Ta  Ta48  1  0.99605521  0.00552686  0.65396764  1
  Ta  Ta49  1  0.50769609  0.98661391  0.65147976  1
  Ta  Ta50  1  0.00781086  0.02951183  0.15166629  1
  Ta  Ta51  1  0.49567678  0.98400046  0.15440994  1
  Ta  Ta52  1  0.16311626  0.68571769  0.30879008  1
  Ta  Ta53  1  0.66203160  0.63952968  0.80842943  1
  Si  Si54  1  0.14618787  0.99688172  0.24930742  1
  Si  Si55  1  0.64875085  0.98973938  0.25086165  1
  Si  Si56  1  0.34348895  0.70146721  0.25205242  1
  Si  Si57  1  0.00615517  0.31089450  0.25230424  1
  Si  Si58  1  0.14850652  0.30517371  0.74691127  1
  Si  Si59  1  0.64427651  0.29279040  0.74978751  1
  Si  Si60  1  0.50693703  0.70565099  0.75317321  1
  Si  Si61  1  0.84606763  0.98566059  0.75594476  1
  Si  Si62  1  0.16722499  0.02453359  0.58412243  1
  Si  Si63  1  0.67473761  0.02389991  0.58609430  1
  Si  Si64  1  0.33736236  0.64674951  0.59224171  1
  Si  Si65  1  0.83989588  0.65102571  0.59002609  1
  Si  Si66  1  0.33937987  0.02984377  0.09229826  1
  Si  Si67  1  0.83832505  0.03063217  0.08801302  1
  Si  Si68  1  0.17723636  0.32158054  0.08909451  1
  Si  Si69  1  0.66723415  0.30998396  0.08479362  1
  Si  Si70  1  0.81251137  0.65561227  0.90713790  1
  Si  Si71  1  0.51766921  0.37924238  0.91498562  1
  Si  Si72  1  0.31299499  0.98025079  0.40612015  1
  Si  Si73  1  0.66684936  0.36589838  0.42064576  1
  Si  Si74  1  0.01762713  0.65898400  0.41432194  1
  S  S75  1  0.85559536  0.72480599  0.24713057  1
  S  S76  1  0.50327728  0.29045480  0.24338668  1
  S  S77  1  0.00445077  0.71824888  0.74353750  1
  S  S78  1  0.35368694  0.98443803  0.74508346  1
  S  S79  1  0.48704341  0.30918245  0.58429796  1
  S  S80  1  0.98904648  0.31891561  0.58597881  1
  S  S81  1  0.48770980  0.65692198  0.08619387  1
  S  S82  1  0.98869673  0.66667038  0.08695399  1
  S  S83  1  0.31812525  0.65972770  0.91419075  1
  S  S84  1  0.00747182  0.36123024  0.91825726  1
  S  S85  1  0.16749027  0.96511309  0.91874910  1
  S  S86  1  0.67304824  0.96098217  0.91261782  1
  S  S87  1  0.81644191  0.96864186  0.41360344  1
  S  S88  1  0.17201179  0.38536284  0.41253162  1
  S  S89  1  0.51226563  0.65389380  0.41789764  1
  O  O90  1  0.11460712  0.03054414  0.30766363  1
  O  O91  1  0.61359824  0.98871527  0.31321412  1
  O  O92  1  0.39284422  0.78435173  0.30805425  1
  O  O93  1  0.88647280  0.78261803  0.30486597  1
  O  O94  1  0.50380586  0.21891433  0.29803538  1
  O  O95  1  0.98704646  0.19183549  0.30473628  1
  O  O96  1  0.10555530  0.22312511  0.80540804  1
  O  O97  1  0.61212537  0.19293730  0.80735872  1
  O  O98  1  0.48999104  0.79091994  0.80515966  1
  O  O99  1  0.00025338  0.79314810  0.79624855  1
  O  O100  1  0.38882706  0.99302270  0.80091226  1
  O  O101  1  0.89316988  0.00653338  0.81420804  1
  O  O102  1  0.40870530  0.98427934  0.69987630  1
  O  O103  1  0.90752151  0.98084727  0.70319958  1
  O  O104  1  0.08462369  0.18306325  0.69465543  1
  O  O105  1  0.58382938  0.18615173  0.69590841  1
  O  O106  1  0.00562164  0.82054611  0.69417470  1
  O  O107  1  0.51982533  0.83789841  0.69776152  1
  O  O108  1  0.40239476  0.82456749  0.19819448  1
  O  O109  1  0.91410359  0.83883992  0.20424336  1
  O  O110  1  0.01994662  0.20304626  0.19779328  1
  O  O111  1  0.50120393  0.18114683  0.19619972  1
  O  O112  1  0.08553743  0.98403812  0.19573065  1
  O  O113  1  0.57936758  0.98404556  0.20154716  1
  O  O114  1  0.44295925  0.32688572  0.63129837  1
  O  O115  1  0.95410638  0.35823860  0.63447978  1
  O  O116  1  0.23370463  0.13267908  0.63074665  1
  O  O117  1  0.72314560  0.10212191  0.64437695  1
  O  O118  1  0.32395766  0.54095535  0.64844175  1
  O  O119  1  0.83322709  0.53761261  0.64275931  1
  O  O120  1  0.45416309  0.54945270  0.13521301  1
  O  O121  1  0.95326400  0.56766448  0.13681484  1
  O  O122  1  0.32348433  0.10365437  0.14908180  1
  O  O123  1  0.82657970  0.12165283  0.14162836  1
  O  O124  1  0.21733457  0.34544463  0.15100066  1
  O  O125  1  0.73465595  0.34139920  0.13142548  1
  O  O126  1  0.22661996  0.28209157  0.04128229  1
  O  O127  1  0.70053837  0.27672417  0.02414794  1
  O  O128  1  0.43832511  0.58474929  0.03545094  1
  O  O129  1  0.94082114  0.58678488  0.03529605  1
  O  O130  1  0.36744928  0.16316004  0.04056165  1
  O  O131  1  0.85158628  0.13441759  0.02933132  1
  O  O132  1  0.19714607  0.12482134  0.52339571  1
  O  O133  1  0.71776793  0.14270959  0.53158554  1
  O  O134  1  0.35058129  0.55672267  0.53738644  1
  O  O135  1  0.86508011  0.58913674  0.53211914  1
  O  O136  1  0.44609057  0.29988993  0.52940607  1
  O  O137  1  0.94055712  0.29233883  0.53470777  1
  O  O138  1  0.26763179  0.65734095  0.96226806  1
  O  O139  1  0.77020242  0.68186973  0.96205706  1
  O  O140  1  0.05148845  0.45676108  0.96826216  1
  O  O141  1  0.55683820  0.46233611  0.97530319  1
  O  O142  1  0.17132225  0.88800067  0.97237223  1
  O  O143  1  0.66676417  0.87728784  0.96595014  1
  O  O144  1  0.27113697  0.88414206  0.46352288  1
  O  O145  1  0.76784859  0.87007013  0.46199271  1
  O  O146  1  0.16975626  0.45970852  0.46616161  1
  O  O147  1  0.66185493  0.44617216  0.48035269  1
  O  O148  1  0.05973941  0.66171410  0.47395835  1
  O  O149  1  0.56029109  0.65888865  0.46754950  1
  O  O150  1  0.07979817  0.66214283  0.36030661  1
  O  O151  1  0.55437898  0.65043630  0.36554484  1
  O  O152  1  0.25096059  0.85622225  0.35239924  1
  O  O153  1  0.77445629  0.89023182  0.35983427  1
  O  O154  1  0.17045822  0.47797241  0.36229001  1
  O  O155  1  0.67187206  0.48543222  0.36826049  1
  O  O156  1  0.05229425  0.44614173  0.86618621  1
  O  O157  1  0.58010885  0.50231496  0.86079632  1
  O  O158  1  0.16320208  0.86230168  0.86976374  1
  O  O159  1  0.67357980  0.86649849  0.86252867  1
  O  O160  1  0.27823420  0.66601526  0.86030368  1
  O  O161  1  0.75078059  0.64710255  0.85213563  1
  O  O162  1  0.01246085  0.82799514  0.41254846  1
  O  O163  1  0.50424438  0.80117640  0.41971781  1
  O  O164  1  0.40689022  0.02064057  0.40400773  1
  O  O165  1  0.89672405  0.97688138  0.41771584  1
  O  O166  1  0.10075148  0.21571974  0.41273507  1
  O  O167  1  0.58589742  0.18268692  0.41769470  1
  O  O168  1  -0.00108422  0.19668448  0.92255207  1
  O  O169  1  0.52152918  0.21005824  0.91363004  1
  O  O170  1  0.09355706  0.98118805  0.92118100  1
  O  O171  1  0.60612781  0.99855060  0.91059092  1
  O  O172  1  0.39952100  0.80722588  0.92106128  1
  O  O173  1  0.90257757  0.81601466  0.90549690  1
  O  O174  1  0.49206917  0.15691186  0.58990620  1
  O  O175  1  0.98802969  0.16030379  0.59680100  1
  O  O176  1  0.07786968  0.01686156  0.59795228  1
  O  O177  1  0.58555646  0.02457579  0.59503859  1
  O  O178  1  0.42022338  0.83096354  0.60378945  1
  O  O179  1  0.91989712  0.83646638  0.60129544  1
  O  O180  1  0.48793477  0.81457825  0.09699822  1
  O  O181  1  0.99285947  0.82845427  0.09228173  1
  O  O182  1  0.42048758  0.00654540  0.10073608  1
  O  O183  1  0.92029938  0.01011223  0.10399300  1
  O  O184  1  0.08541176  0.14627949  0.09470403  1
  O  O185  1  0.58005111  0.13551293  0.09971509  1
  O  O186  1  0.33873820  0.11938103  0.73961764  1
  O  O187  1  0.82503035  0.13013522  0.74846389  1
  O  O188  1  0.23978351  0.33153859  0.74531702  1
  O  O189  1  0.73888709  0.34002655  0.74250225  1
  O  O190  1  0.43056475  0.52793417  0.74352913  1
  O  O191  1  0.93076369  0.55630569  0.74031237  1
  O  O192  1  0.32398080  0.51516804  0.24679539  1
  O  O193  1  0.84256692  0.56149024  0.24180075  1
  O  O194  1  0.42889246  0.30246209  0.24052851  1
  O  O195  1  0.92962670  0.33433580  0.24209915  1
  O  O196  1  0.23992035  0.14094163  0.24250889  1
  O  O197  1  0.73898632  0.15059958  0.24547364  1
  O  O198  1  0.32379002  0.51091491  0.91405143  1
  O  O199  1  0.80755903  0.47798714  0.90935922  1
  O  O200  1  0.42664642  0.35337164  0.90746838  1
  O  O201  1  0.92418649  0.34039100  0.91496984  1
  O  O202  1  0.24218081  0.12701173  0.91324336  1
  O  O203  1  0.75302158  0.12032900  0.91207164  1
  O  O204  1  0.30931774  0.14995963  0.40566482  1
  O  O205  1  0.82358137  0.13097429  0.41602540  1
  O  O206  1  0.24725323  0.37130227  0.41010783  1
  O  O207  1  0.75100678  0.35305143  0.41810821  1
  O  O208  1  0.43181221  0.50073533  0.41856003  1
  O  O209  1  0.92524544  0.50490469  0.40757125  1
  O  O210  1  0.15752486  0.46705126  0.07977411  1
  O  O211  1  0.64310743  0.45208162  0.08468254  1
  O  O212  1  0.07472950  0.70257394  0.08093278  1
  O  O213  1  0.57390697  0.70250691  0.07937719  1
  O  O214  1  0.25540543  0.85867894  0.08007524  1
  O  O215  1  0.75468718  0.85366723  0.08536822  1
  O  O216  1  0.14562615  0.83549777  0.58398476  1
  O  O217  1  0.65351543  0.83742703  0.58270640  1
  O  O218  1  0.25445556  0.65733410  0.58530386  1
  O  O219  1  0.75527543  0.65451457  0.58689028  1
  O  O220  1  0.07505868  0.44602080  0.57955454  1
  O  O221  1  0.57221192  0.44884876  0.58507582  1
  O  O222  1  0.14868914  0.82160516  0.25566628  1
  O  O223  1  0.65859012  0.82892360  0.23959815  1
  O  O224  1  0.25472190  0.70218183  0.25255846  1
  O  O225  1  0.77765913  0.72670264  0.23944413  1
  O  O226  1  0.09515112  0.48260421  0.25981606  1
  O  O227  1  0.57727693  0.45000358  0.23579030  1
  O  O228  1  0.15684639  0.48726465  0.73998625  1
  O  O229  1  0.64718078  0.47365743  0.75613795  1
  O  O230  1  0.07925111  0.70734284  0.74034122  1
  O  O231  1  0.59611957  0.71082978  0.75997541  1
  O  O232  1  0.27495479  0.82483644  0.74048060  1
  O  O233  1  0.75753228  0.80747225  0.75402341  1
