# generated using pymatgen
data_NaTi3NbSi3(SO8)3
_symmetry_space_group_name_H-M   'P 1'
_cell_length_a   8.76215365
_cell_length_b   8.74604328
_cell_length_c   22.64338095
_cell_angle_alpha   89.58554543
_cell_angle_beta   90.69012146
_cell_angle_gamma   119.79558918
_symmetry_Int_Tables_number   1
_chemical_formula_structural   NaTi3NbSi3(SO8)3
_chemical_formula_sum   'Na3 Ti9 Nb3 Si9 S9 O72'
_cell_volume   1505.75151144
_cell_formula_units_Z   3
loop_
 _symmetry_equiv_pos_site_id
 _symmetry_equiv_pos_as_xyz
  1  'x, y, z'
loop_
 _atom_site_type_symbol
 _atom_site_label
 _atom_site_symmetry_multiplicity
 _atom_site_fract_x
 _atom_site_fract_y
 _atom_site_fract_z
 _atom_site_occupancy
  Na  Na0  1  0.00396906  0.99680254  0.99438455  1
  Na  Na1  1  0.66373050  0.32680598  0.83194932  1
  Na  Na2  1  0.67312909  0.33493191  0.33395423  1
  Ti  Ti3  1  0.99153704  0.00087028  0.35778002  1
  Ti  Ti4  1  0.01671242  0.01565575  0.85098367  1
  Ti  Ti5  1  0.63934951  0.31769557  0.69082418  1
  Ti  Ti6  1  0.68225928  0.34926385  0.18355671  1
  Ti  Ti7  1  0.64858782  0.33536399  0.97808293  1
  Ti  Ti8  1  0.66844627  0.34842963  0.48305899  1
  Ti  Ti9  1  0.31394458  0.66393649  0.02286470  1
  Ti  Ti10  1  0.30748214  0.65304365  0.31100353  1
  Ti  Ti11  1  0.34960747  0.68643978  0.80713367  1
  Nb  Nb12  1  0.99718113  0.99976548  0.64497331  1
  Nb  Nb13  1  0.01084835  0.01232220  0.14239687  1
  Nb  Nb14  1  0.33055993  0.67682458  0.52678765  1
  Si  Si15  1  0.99187596  0.28532893  0.25167575  1
  Si  Si16  1  0.28836739  0.29728808  0.75070362  1
  Si  Si17  1  0.71789431  0.00792403  0.75131571  1
  Si  Si18  1  0.38280532  0.06003000  0.58283468  1
  Si  Si19  1  0.66832713  0.61699322  0.58581944  1
  Si  Si20  1  0.95062566  0.61724698  0.08038914  1
  Si  Si21  1  0.39044622  0.34763275  0.08295335  1
  Si  Si22  1  0.33193175  0.95323287  0.91592854  1
  Si  Si23  1  0.03570882  0.66267256  0.41584102  1
  S  S24  1  0.29041389  0.00195764  0.25221513  1
  S  S25  1  0.70926022  0.71248227  0.25142581  1
  S  S26  1  0.99882593  0.70947203  0.75154475  1
  S  S27  1  0.94935845  0.33345924  0.58393096  1
  S  S28  1  0.66150306  0.04556218  0.08273885  1
  S  S29  1  0.62132371  0.67043392  0.91700669  1
  S  S30  1  0.04342567  0.37941357  0.91627846  1
  S  S31  1  0.61920578  0.95401403  0.41514596  1
  S  S32  1  0.33263949  0.37786930  0.41534891  1
  O  O33  1  0.20430432  0.02812120  0.30359661  1
  O  O34  1  0.82471978  0.79314965  0.30439032  1
  O  O35  1  0.97243104  0.16006113  0.30817401  1
  O  O36  1  0.19962979  0.16380988  0.80765155  1
  O  O37  1  0.96943533  0.79262534  0.80383105  1
  O  O38  1  0.83943307  0.02666533  0.80904314  1
  O  O39  1  0.80369873  0.97014978  0.69280756  1
  O  O40  1  0.16635546  0.19662641  0.69310503  1
  O  O41  1  0.03094297  0.82052694  0.69712346  1
  O  O42  1  0.79211022  0.81941187  0.19781660  1
  O  O43  1  0.02571447  0.19180609  0.19415143  1
  O  O44  1  0.17801482  0.96759635  0.19740422  1
  O  O45  1  0.87984333  0.36807508  0.63615378  1
  O  O46  1  0.50576094  0.13516259  0.64098615  1
  O  O47  1  0.63881323  0.49291547  0.64157148  1
  O  O48  1  0.86499220  0.49901896  0.14084931  1
  O  O49  1  0.63935109  0.12601065  0.13709658  1
  O  O50  1  0.50324527  0.35772623  0.14208545  1
  O  O51  1  0.46852165  0.29635218  0.02594526  1
  O  O52  1  0.82523909  0.52220515  0.02435604  1
  O  O53  1  0.70138470  0.15734871  0.03013614  1
  O  O54  1  0.47995681  0.17193786  0.52366459  1
  O  O55  1  0.70016273  0.53039369  0.52544946  1
  O  O56  1  0.84421815  0.30619325  0.52888902  1
  O  O57  1  0.54032922  0.69224112  0.97039087  1
  O  O58  1  0.15381442  0.45699841  0.97091212  1
  O  O59  1  0.30942590  0.83087259  0.97443567  1
  O  O60  1  0.54393227  0.84446054  0.46919039  1
  O  O61  1  0.30390010  0.45538690  0.46827726  1
  O  O62  1  0.16690889  0.69399179  0.47215187  1
  O  O63  1  0.14067568  0.63809409  0.35905162  1
  O  O64  1  0.51081756  0.86935033  0.36217949  1
  O  O65  1  0.36379113  0.49091302  0.36218695  1
  O  O66  1  0.12365846  0.48547006  0.86377082  1
  O  O67  1  0.35935715  0.85603033  0.85930269  1
  O  O68  1  0.51231048  0.63564068  0.86316435  1
  O  O69  1  0.02303171  0.83894097  0.40125990  1
  O  O70  1  0.79659365  0.96936056  0.40805166  1
  O  O71  1  0.17535585  0.20054109  0.40670752  1
  O  O72  1  0.02595017  0.19935701  0.91211613  1
  O  O73  1  0.15564623  0.97311253  0.90962461  1
  O  O74  1  0.80000386  0.82416482  0.91111603  1
  O  O75  1  0.97220469  0.17673679  0.58825998  1
  O  O76  1  0.18680141  0.02597798  0.59242147  1
  O  O77  1  0.83689695  0.81210883  0.59234674  1
  O  O78  1  0.97018042  0.81131122  0.09386811  1
  O  O79  1  0.82426543  0.02485811  0.09116315  1
  O  O80  1  0.19176540  0.16638957  0.09175872  1
  O  O81  1  0.70242034  0.18360120  0.74257537  1
  O  O82  1  0.48122803  0.31213262  0.74486587  1
  O  O83  1  0.84303839  0.53523655  0.74382014  1
  O  O84  1  0.69215724  0.53395863  0.24517924  1
  O  O85  1  0.81914332  0.30641222  0.24342031  1
  O  O86  1  0.46453499  0.15766729  0.24439406  1
  O  O87  1  0.63992456  0.50656730  0.92255743  1
  O  O88  1  0.86585849  0.35825018  0.92408367  1
  O  O89  1  0.50961303  0.14865677  0.92560123  1
  O  O90  1  0.64196875  0.13131384  0.42188864  1
  O  O91  1  0.49073873  0.35660831  0.42083188  1
  O  O92  1  0.84497606  0.48622625  0.42282247  1
  O  O93  1  0.36294856  0.51148622  0.07012316  1
  O  O94  1  0.14509779  0.64181069  0.07373040  1
  O  O95  1  0.51140354  0.86847867  0.07609359  1
  O  O96  1  0.36266471  0.86182345  0.57358265  1
  O  O97  1  0.49464234  0.63433133  0.56943710  1
  O  O98  1  0.13104221  0.48863307  0.57410437  1
  O  O99  1  0.30921956  0.84281011  0.25948988  1
  O  O100  1  0.53596041  0.69583507  0.26018604  1
  O  O101  1  0.17159635  0.47694992  0.26143433  1
  O  O102  1  0.30425951  0.48389261  0.76498167  1
  O  O103  1  0.15723241  0.69312352  0.75868894  1
  O  O104  1  0.52448513  0.83349579  0.75995612  1
