# generated using pymatgen
data_Na5Ta3GaSi5PO24
_symmetry_space_group_name_H-M   'P 1'
_cell_length_a   8.96170513
_cell_length_b   8.94713693
_cell_length_c   22.43682316
_cell_angle_alpha   89.96320281
_cell_angle_beta   89.81442447
_cell_angle_gamma   120.13900386
_symmetry_Int_Tables_number   1
_chemical_formula_structural   Na5Ta3GaSi5PO24
_chemical_formula_sum   'Na15 Ta9 Ga3 Si15 P3 O72'
_cell_volume   1555.79703261
_cell_formula_units_Z   3
loop_
 _symmetry_equiv_pos_site_id
 _symmetry_equiv_pos_as_xyz
  1  'x, y, z'
loop_
 _atom_site_type_symbol
 _atom_site_label
 _atom_site_symmetry_multiplicity
 _atom_site_fract_x
 _atom_site_fract_y
 _atom_site_fract_z
 _atom_site_occupancy
  Na  Na0  1  0.99145081  0.62926148  0.24518130  1
  Na  Na1  1  0.63550673  0.62518088  0.74693423  1
  Na  Na2  1  0.98988228  0.36429362  0.74677227  1
  Na  Na3  1  0.37325600  0.00953763  0.74784038  1
  Na  Na4  1  0.31093452  0.97182864  0.08398333  1
  Na  Na5  1  0.66561421  0.69248696  0.08381951  1
  Na  Na6  1  0.96876405  0.29279089  0.41385159  1
  Na  Na7  1  0.32333914  0.03123011  0.41256278  1
  Na  Na8  1  0.70659165  0.67599599  0.41431822  1
  Na  Na9  1  0.99862761  0.99957329  0.49988710  1
  Na  Na10  1  0.99976288  0.00742451  0.99633586  1
  Na  Na11  1  0.66642027  0.33378342  0.83319449  1
  Na  Na12  1  0.65454669  0.32252411  0.32426074  1
  Na  Na13  1  0.33401389  0.66047021  0.16544302  1
  Na  Na14  1  0.33256846  0.66433349  0.66433327  1
  Ta  Ta15  1  0.00033011  0.99963037  0.85544019  1
  Ta  Ta16  1  0.99675036  0.99972788  0.64399248  1
  Ta  Ta17  1  0.00297014  0.00324579  0.14596636  1
  Ta  Ta18  1  0.66675184  0.33225974  0.97751769  1
  Ta  Ta19  1  0.67071792  0.33577137  0.48141602  1
  Ta  Ta20  1  0.32854411  0.66260569  0.02044154  1
  Ta  Ta21  1  0.33367677  0.66288566  0.52237331  1
  Ta  Ta22  1  0.33735108  0.67102804  0.31086248  1
  Ta  Ta23  1  0.33340586  0.66614087  0.81394607  1
  Ga  Ga24  1  0.00641822  0.00335893  0.35104156  1
  Ga  Ga25  1  0.67109307  0.33995697  0.68602822  1
  Ga  Ga26  1  0.65272748  0.32155780  0.18242382  1
  Si  Si27  1  0.29938982  0.01307651  0.25153644  1
  Si  Si28  1  0.29219537  0.28818897  0.74852188  1
  Si  Si29  1  0.99833499  0.70933354  0.74904298  1
  Si  Si30  1  0.71082608  0.00370832  0.74944581  1
  Si  Si31  1  0.95467857  0.33334138  0.58655316  1
  Si  Si32  1  0.66697001  0.62175688  0.58654397  1
  Si  Si33  1  0.94975573  0.61174572  0.08752228  1
  Si  Si34  1  0.66943369  0.04920277  0.08461663  1
  Si  Si35  1  0.38265675  0.33621237  0.08504290  1
  Si  Si36  1  0.62401895  0.66621950  0.91724169  1
  Si  Si37  1  0.04039392  0.37402574  0.91646321  1
  Si  Si38  1  0.33341138  0.95856036  0.91692923  1
  Si  Si39  1  0.62647736  0.95621911  0.41599409  1
  Si  Si40  1  0.33032454  0.37419803  0.41567503  1
  Si  Si41  1  0.04566720  0.67017697  0.41603381  1
  P  P42  1  0.71216427  0.70998480  0.25167176  1
  P  P43  1  0.99627990  0.28659487  0.25255511  1
  P  P44  1  0.37794817  0.04417566  0.58502735  1
  O  O45  1  0.20563887  0.02673409  0.31165974  1
  O  O46  1  0.82166334  0.79500525  0.30784270  1
  O  O47  1  0.97241072  0.18109595  0.30947772  1
  O  O48  1  0.19666078  0.16340373  0.80610666  1
  O  O49  1  0.96764742  0.80468182  0.80618398  1
  O  O50  1  0.83733233  0.03492694  0.80607200  1
  O  O51  1  0.80162586  0.96162758  0.69266014  1
  O  O52  1  0.16061790  0.19838182  0.69218632  1
  O  O53  1  0.03983834  0.84085183  0.69234338  1
  O  O54  1  0.79680040  0.82571691  0.19506493  1
  O  O55  1  0.02291915  0.19432411  0.19746708  1
  O  O56  1  0.16630046  0.96937407  0.19358350  1
  O  O57  1  0.87160600  0.36447877  0.64541182  1
  O  O58  1  0.48676240  0.12204794  0.64137802  1
  O  O59  1  0.63001634  0.50553986  0.64540164  1
  O  O60  1  0.87040467  0.50507442  0.14839926  1
  O  O61  1  0.61849876  0.12255587  0.14159136  1
  O  O62  1  0.50564464  0.38381382  0.14210997  1
  O  O63  1  0.46419414  0.29255010  0.02668881  1
  O  O64  1  0.82579764  0.53049999  0.02901284  1
  O  O65  1  0.70007811  0.16794724  0.02550255  1
  O  O66  1  0.46718422  0.15788759  0.52780571  1
  O  O67  1  0.69110602  0.52848396  0.52542466  1
  O  O68  1  0.83646637  0.30514759  0.52543639  1
  O  O69  1  0.53137197  0.69418354  0.97593652  1
  O  O70  1  0.16615006  0.47239785  0.97335994  1
  O  O71  1  0.30628208  0.83878377  0.97589168  1
  O  O72  1  0.53083088  0.82975110  0.47265744  1
  O  O73  1  0.30083792  0.47119681  0.47275458  1
  O  O74  1  0.17279248  0.70119323  0.47205994  1
  O  O75  1  0.13126134  0.62689432  0.35758297  1
  O  O76  1  0.49355195  0.86381526  0.35911405  1
  O  O77  1  0.37205479  0.50750177  0.35928151  1
  O  O78  1  0.13330361  0.49463121  0.85683690  1
  O  O79  1  0.36090364  0.86506409  0.85749989  1
  O  O80  1  0.50376245  0.63909364  0.85778373  1
  O  O81  1  0.01850230  0.83493414  0.41077197  1
  O  O82  1  0.81514340  0.97735388  0.40855964  1
  O  O83  1  0.15918679  0.18581529  0.41170729  1
  O  O84  1  0.02588229  0.18702332  0.91042984  1
  O  O85  1  0.16092377  0.97333720  0.91028524  1
  O  O86  1  0.81197934  0.83886205  0.91023843  1
  O  O87  1  0.97816131  0.16288382  0.58842220  1
  O  O88  1  0.19877922  0.02830942  0.58811071  1
  O  O89  1  0.84230613  0.81260521  0.58846558  1
  O  O90  1  0.97299478  0.81084650  0.09262740  1
  O  O91  1  0.83385664  0.01548845  0.09176518  1
  O  O92  1  0.18942305  0.16068202  0.09222714  1
  O  O93  1  0.68677507  0.17015695  0.74375892  1
  O  O94  1  0.48087841  0.30657138  0.74422841  1
  O  O95  1  0.82859764  0.51923509  0.74629799  1
  O  O96  1  0.69906914  0.53372484  0.24596477  1
  O  O97  1  0.84558995  0.31951086  0.24632576  1
  O  O98  1  0.48943511  0.17837267  0.24460385  1
  O  O99  1  0.63982890  0.49414204  0.92311443  1
  O  O100  1  0.85447234  0.36144066  0.92275239  1
  O  O101  1  0.50615089  0.14669271  0.92225437  1
  O  O102  1  0.63678834  0.14457692  0.42304010  1
  O  O103  1  0.50392926  0.35715808  0.42391694  1
  O  O104  1  0.85440264  0.49220697  0.42320165  1
  O  O105  1  0.36004096  0.50594990  0.07642076  1
  O  O106  1  0.14969854  0.65343108  0.07819446  1
  O  O107  1  0.49955910  0.85236890  0.07603587  1
  O  O108  1  0.35831274  0.86371277  0.57531286  1
  O  O109  1  0.49903746  0.64705154  0.57585318  1
  O  O110  1  0.14558469  0.50583507  0.57589130  1
  O  O111  1  0.30014956  0.82391009  0.25599580  1
  O  O112  1  0.53004965  0.69468535  0.25610007  1
  O  O113  1  0.16713263  0.47030199  0.25581468  1
  O  O114  1  0.30688252  0.47928947  0.75528266  1
  O  O115  1  0.17455082  0.69481484  0.75538119  1
  O  O116  1  0.52071667  0.82582185  0.75515844  1
