# generated using pymatgen
data_Na5Ca2Ge2P5SO24
_symmetry_space_group_name_H-M   'P 1'
_cell_length_a   8.98260043
_cell_length_b   8.95560991
_cell_length_c   22.20857251
_cell_angle_alpha   90.40653409
_cell_angle_beta   89.16059238
_cell_angle_gamma   120.11698286
_symmetry_Int_Tables_number   1
_chemical_formula_structural   Na5Ca2Ge2P5SO24
_chemical_formula_sum   'Na15 Ca6 Ge6 P15 S3 O72'
_cell_volume   1545.21439375
_cell_formula_units_Z   3
loop_
 _symmetry_equiv_pos_site_id
 _symmetry_equiv_pos_as_xyz
  1  'x, y, z'
loop_
 _atom_site_type_symbol
 _atom_site_label
 _atom_site_symmetry_multiplicity
 _atom_site_fract_x
 _atom_site_fract_y
 _atom_site_fract_z
 _atom_site_occupancy
  Na  Na0  1  0.64137761  0.00625869  0.25244092  1
  Na  Na1  1  0.37442421  0.37528873  0.24435088  1
  Na  Na2  1  0.98922197  0.61780178  0.25122205  1
  Na  Na3  1  0.64263551  0.63347816  0.74748050  1
  Na  Na4  1  0.98647643  0.35141716  0.74700586  1
  Na  Na5  1  0.36750343  0.01775561  0.74687393  1
  Na  Na6  1  0.30867083  0.96654904  0.07371037  1
  Na  Na7  1  0.02746035  0.34701489  0.07560152  1
  Na  Na8  1  0.70111162  0.67574132  0.42421518  1
  Na  Na9  1  0.00526683  0.00412947  0.50431092  1
  Na  Na10  1  0.99696873  0.99521199  0.99087529  1
  Na  Na11  1  0.66671809  0.33143019  0.83587526  1
  Na  Na12  1  0.68327412  0.32117290  0.34292308  1
  Na  Na13  1  0.35261094  0.66273494  0.16087229  1
  Na  Na14  1  0.33655106  0.66526235  0.66157743  1
  Ca  Ca15  1  0.00006661  0.00462473  0.36212848  1
  Ca  Ca16  1  0.00398630  0.00543708  0.85473249  1
  Ca  Ca17  1  0.67031328  0.33573058  0.67089227  1
  Ca  Ca18  1  0.66755676  0.33703937  0.17918980  1
  Ca  Ca19  1  0.33803060  0.66484662  0.01544103  1
  Ca  Ca20  1  0.32819577  0.66894210  0.32167257  1
  Ge  Ge21  1  0.00165524  0.00166756  0.64585125  1
  Ge  Ge22  1  0.98366274  0.99644360  0.14040712  1
  Ge  Ge23  1  0.66974219  0.32847537  0.98239515  1
  Ge  Ge24  1  0.67865224  0.32762154  0.49456010  1
  Ge  Ge25  1  0.32990473  0.67432532  0.51901731  1
  Ge  Ge26  1  0.31910995  0.67311378  0.81714306  1
  P  P27  1  0.71181457  0.71767516  0.24903004  1
  P  P28  1  0.00621720  0.28799004  0.24414671  1
  P  P29  1  0.28834791  0.30129443  0.74740144  1
  P  P30  1  0.00897799  0.71315473  0.74816505  1
  P  P31  1  0.70031160  0.98847767  0.74860184  1
  P  P32  1  0.98375213  0.33513412  0.58450077  1
  P  P33  1  0.35811872  0.02740752  0.58457663  1
  P  P34  1  0.66406161  0.64445108  0.58250163  1
  P  P35  1  0.95326511  0.63882580  0.08358736  1
  P  P36  1  0.67836540  0.04067379  0.08451065  1
  P  P37  1  0.35928165  0.31549307  0.08532969  1
  P  P38  1  0.02189417  0.37969773  0.91979548  1
  P  P39  1  0.35361509  0.97818016  0.92024287  1
  P  P40  1  0.62005384  0.97451148  0.42377746  1
  P  P41  1  0.02272564  0.64528760  0.42493314  1
  S  S42  1  0.28290357  0.99293715  0.24562292  1
  S  S43  1  0.62268438  0.64314636  0.91473538  1
  S  S44  1  0.35104103  0.37603087  0.42384060  1
  O  O45  1  0.19481557  0.00356368  0.29939986  1
  O  O46  1  0.80629064  0.79589459  0.30712619  1
  O  O47  1  0.99653230  0.18227240  0.29798091  1
  O  O48  1  0.21966231  0.19045000  0.80237278  1
  O  O49  1  0.96927672  0.78212086  0.80374595  1
  O  O50  1  0.80912686  0.02549530  0.80310514  1
  O  O51  1  0.78727624  0.95109815  0.69104881  1
  O  O52  1  0.16461967  0.21226209  0.69108712  1
  O  O53  1  0.04753000  0.83497563  0.69108781  1
  O  O54  1  0.81398812  0.83387918  0.19148534  1
  O  O55  1  0.02268543  0.19852453  0.18269387  1
  O  O56  1  0.18912385  0.98236625  0.18877902  1
  O  O57  1  0.93077888  0.37592452  0.64416272  1
  O  O58  1  0.44664502  0.07841075  0.64438420  1
  O  O59  1  0.62478633  0.54942913  0.64155433  1
  O  O60  1  0.89579598  0.55160413  0.14447584  1
  O  O61  1  0.65879501  0.10655426  0.14550162  1
  O  O62  1  0.43964761  0.33281420  0.14640057  1
  O  O63  1  0.46383507  0.28592860  0.03288648  1
  O  O64  1  0.82807035  0.53373717  0.03067472  1
  O  O65  1  0.71137511  0.17505631  0.03239751  1
  O  O66  1  0.46776354  0.16682400  0.53469195  1
  O  O67  1  0.69442672  0.54040453  0.52960302  1
  O  O68  1  0.84665731  0.30082447  0.53458217  1
  O  O69  1  0.54168759  0.65861195  0.96880482  1
  O  O70  1  0.11407761  0.45425245  0.97761900  1
  O  O71  1  0.34014463  0.88403206  0.97744639  1
  O  O72  1  0.50420243  0.83071325  0.47012647  1
  O  O73  1  0.33339810  0.47963369  0.47267351  1
  O  O74  1  0.15350882  0.66200825  0.47273706  1
  O  O75  1  0.07533808  0.61851965  0.36145861  1
  O  O76  1  0.54049580  0.92343955  0.36093393  1
  O  O77  1  0.37382986  0.46206882  0.36477153  1
  O  O78  1  0.12064341  0.49907360  0.86043149  1
  O  O79  1  0.37525946  0.88203072  0.86009927  1
  O  O80  1  0.52025281  0.62660627  0.85772353  1
  O  O81  1  0.99554147  0.80075763  0.42905516  1
  O  O82  1  0.79523289  0.98551522  0.42801269  1
  O  O83  1  0.20230989  0.20240840  0.42617501  1
  O  O84  1  0.98969584  0.19903261  0.91210960  1
  O  O85  1  0.20129274  0.00376259  0.91406433  1
  O  O86  1  0.79637349  0.79041590  0.91054515  1
  O  O87  1  0.99663052  0.16713303  0.58742020  1
  O  O88  1  0.17681409  0.01391449  0.58681091  1
  O  O89  1  0.83406581  0.82579712  0.58590492  1
  O  O90  1  0.96599706  0.82239064  0.08478990  1
  O  O91  1  0.85248090  0.03497474  0.08262701  1
  O  O92  1  0.17762312  0.13850042  0.08471013  1
  O  O93  1  0.66872251  0.13953222  0.73853553  1
  O  O94  1  0.47180630  0.33598126  0.73675944  1
  O  O95  1  0.86212405  0.52801915  0.73849715  1
  O  O96  1  0.68629211  0.53481216  0.24567752  1
  O  O97  1  0.84464826  0.30692052  0.24543828  1
  O  O98  1  0.45936704  0.14641254  0.24643047  1
  O  O99  1  0.62750026  0.47701371  0.91770841  1
  O  O100  1  0.84404120  0.37759864  0.92245718  1
  O  O101  1  0.52776824  0.15886239  0.92270041  1
  O  O102  1  0.63375528  0.15356649  0.43722082  1
  O  O103  1  0.51584801  0.37087760  0.43104092  1
  O  O104  1  0.83928282  0.47614076  0.43564754  1
  O  O105  1  0.32371441  0.46239010  0.07750394  1
  O  O106  1  0.13607427  0.67043922  0.07507003  1
  O  O107  1  0.52415000  0.86293467  0.07704113  1
  O  O108  1  0.33049512  0.84276742  0.56976588  1
  O  O109  1  0.50752022  0.67083895  0.56792606  1
  O  O110  1  0.16715411  0.49296720  0.56886444  1
  O  O111  1  0.29734021  0.83391094  0.24601165  1
  O  O112  1  0.53478848  0.70724615  0.24708442  1
  O  O113  1  0.16999494  0.46869207  0.24328079  1
  O  O114  1  0.29275110  0.48242244  0.75497798  1
  O  O115  1  0.18588053  0.70792427  0.75553834  1
  O  O116  1  0.51596674  0.81387076  0.75581035  1
