# generated using pymatgen
data_Na14Nb2Al6Si9(SO16)3
_symmetry_space_group_name_H-M   'P 1'
_cell_length_a   17.70200375
_cell_length_b   8.85422612
_cell_length_c   21.96621050
_cell_angle_alpha   89.83839983
_cell_angle_beta   90.24722512
_cell_angle_gamma   119.94948884
_symmetry_Int_Tables_number   1
_chemical_formula_structural   Na14Nb2Al6Si9(SO16)3
_chemical_formula_sum   'Na42 Nb6 Al18 Si27 S9 O144'
_cell_volume   2983.15255115
_cell_formula_units_Z   3
loop_
 _symmetry_equiv_pos_site_id
 _symmetry_equiv_pos_as_xyz
  1  'x, y, z'
loop_
 _atom_site_type_symbol
 _atom_site_label
 _atom_site_symmetry_multiplicity
 _atom_site_fract_x
 _atom_site_fract_y
 _atom_site_fract_z
 _atom_site_occupancy
  Na  Na0  1  0.81515838  0.00050867  0.24734208  1
  Na  Na1  1  0.68647831  0.36950482  0.24688328  1
  Na  Na2  1  0.50159916  0.62792999  0.24872184  1
  Na  Na3  1  0.31447134  0.62881750  0.74734358  1
  Na  Na4  1  0.99805163  0.36868890  0.74937908  1
  Na  Na5  1  0.18492918  0.00291337  0.74657185  1
  Na  Na6  1  0.15174418  0.33612613  0.58340356  1
  Na  Na7  1  0.65371783  0.33927212  0.58457962  1
  Na  Na8  1  0.01713904  0.69688566  0.58389815  1
  Na  Na9  1  0.51523455  0.69178424  0.58289937  1
  Na  Na10  1  0.32919071  0.96968960  0.58479958  1
  Na  Na11  1  0.83224612  0.96855693  0.58544671  1
  Na  Na12  1  0.15214575  0.96597992  0.08230693  1
  Na  Na13  1  0.65433297  0.96624696  0.08063697  1
  Na  Na14  1  0.33113013  0.69384390  0.08203866  1
  Na  Na15  1  0.83006791  0.69193413  0.08295092  1
  Na  Na16  1  0.01511977  0.33882764  0.08093464  1
  Na  Na17  1  0.51767236  0.34129726  0.08027602  1
  Na  Na18  1  0.48599583  0.66695558  0.91685043  1
  Na  Na19  1  0.98284433  0.65875900  0.91436924  1
  Na  Na20  1  0.35347483  0.04099118  0.91475338  1
  Na  Na21  1  0.85286922  0.04552931  0.91592054  1
  Na  Na22  1  0.16325645  0.29941636  0.91673593  1
  Na  Na23  1  0.66544438  0.29660269  0.92002929  1
  Na  Na24  1  0.48290237  0.30923960  0.41736205  1
  Na  Na25  1  0.98447999  0.30207705  0.41983163  1
  Na  Na26  1  0.16520569  0.03521313  0.42270914  1
  Na  Na27  1  0.66476526  0.02681838  0.41944930  1
  Na  Na28  1  0.35132568  0.65689455  0.42107908  1
  Na  Na29  1  0.85283355  0.66561886  0.41697577  1
  Na  Na30  1  0.00244799  0.00122948  0.50089370  1
  Na  Na31  1  0.50112648  0.99599822  0.50083082  1
  Na  Na32  1  0.00084180  0.00658910  0.99760263  1
  Na  Na33  1  0.50232271  0.00350171  0.99615162  1
  Na  Na34  1  0.33900806  0.33393998  0.82658620  1
  Na  Na35  1  0.83444852  0.33006075  0.82964415  1
  Na  Na36  1  0.33341103  0.33232142  0.33321865  1
  Na  Na37  1  0.83923976  0.34398612  0.32748412  1
  Na  Na38  1  0.16467586  0.66402338  0.16269210  1
  Na  Na39  1  0.66791485  0.66657625  0.16559144  1
  Na  Na40  1  0.16617922  0.66790348  0.66656197  1
  Na  Na41  1  0.66796122  0.66944840  0.66517264  1
  Nb  Nb42  1  0.00016498  0.99799550  0.64787381  1
  Nb  Nb43  1  0.49484827  0.99000862  0.64524949  1
  Nb  Nb44  1  0.99449680  0.99969156  0.14437058  1
  Nb  Nb45  1  0.50793502  0.01441351  0.14383499  1
  Nb  Nb46  1  0.15722246  0.64642935  0.31471702  1
  Nb  Nb47  1  0.66205031  0.67876607  0.81151783  1
  Al  Al48  1  0.00071273  0.99873461  0.35081473  1
  Al  Al49  1  0.50519837  0.00038396  0.34746549  1
  Al  Al50  1  0.00049819  0.01494759  0.84234905  1
  Al  Al51  1  0.50226805  0.00587611  0.84974394  1
  Al  Al52  1  0.33553626  0.33140412  0.68690013  1
  Al  Al53  1  0.83818938  0.33624087  0.68331418  1
  Al  Al54  1  0.33726739  0.32341691  0.17770056  1
  Al  Al55  1  0.83673002  0.34040925  0.18688488  1
  Al  Al56  1  0.34014515  0.33531114  0.98842373  1
  Al  Al57  1  0.83649044  0.32523606  0.98311298  1
  Al  Al58  1  0.33550779  0.34688148  0.48582711  1
  Al  Al59  1  0.83975889  0.34470910  0.49162242  1
  Al  Al60  1  0.15980379  0.64784531  0.02481006  1
  Al  Al61  1  0.65837249  0.66207559  0.02243565  1
  Al  Al62  1  0.15800769  0.65433973  0.52458939  1
  Al  Al63  1  0.66029067  0.67348995  0.52670534  1
  Al  Al64  1  0.65874609  0.66003183  0.30736159  1
  Al  Al65  1  0.15729782  0.65505129  0.80646356  1
  Si  Si66  1  0.64936562  0.00299305  0.25319592  1
  Si  Si67  1  0.85359947  0.70304893  0.25575717  1
  Si  Si68  1  0.99595100  0.28409183  0.25205703  1
  Si  Si69  1  0.49292120  0.28634994  0.25504131  1
  Si  Si70  1  0.14950481  0.29501837  0.75276098  1
  Si  Si71  1  0.99419642  0.70292711  0.75517964  1
  Si  Si72  1  0.49466085  0.70589383  0.75268247  1
  Si  Si73  1  0.35332434  0.00374991  0.75582534  1
  Si  Si74  1  0.85290085  0.00531571  0.75075623  1
  Si  Si75  1  0.47458332  0.33842406  0.58182206  1
  Si  Si76  1  0.97720995  0.33565522  0.58293265  1
  Si  Si77  1  0.19406397  0.04780709  0.58137809  1
  Si  Si78  1  0.69543187  0.05423735  0.58224813  1
  Si  Si79  1  0.32772036  0.61140819  0.58278484  1
  Si  Si80  1  0.82891664  0.61514528  0.58261033  1
  Si  Si81  1  0.47662871  0.61668504  0.08329237  1
  Si  Si82  1  0.97465493  0.61034175  0.08176166  1
  Si  Si83  1  0.32794753  0.03848695  0.08139865  1
  Si  Si84  1  0.82718505  0.04469586  0.08287591  1
  Si  Si85  1  0.19643781  0.33781196  0.08282989  1
  Si  Si86  1  0.69806567  0.34666816  0.08099411  1
  Si  Si87  1  0.02314384  0.37753600  0.91621718  1
  Si  Si88  1  0.51792144  0.37008930  0.91982376  1
  Si  Si89  1  0.66634628  0.96517076  0.92097742  1
  Si  Si90  1  0.16620221  0.36698961  0.42120695  1
  Si  Si91  1  0.01595130  0.66579640  0.42171482  1
  Si  Si92  1  0.52292625  0.66798348  0.41541034  1
  S  S93  1  0.14812787  0.00677220  0.25120745  1
  S  S94  1  0.35437306  0.70967199  0.25091955  1
  S  S95  1  0.64625032  0.28870121  0.75132659  1
  S  S96  1  0.30964826  0.66499293  0.91707231  1
  S  S97  1  0.81234791  0.66716438  0.91816626  1
  S  S98  1  0.16715075  0.95455545  0.91709164  1
  S  S99  1  0.31313115  0.95672804  0.41672905  1
  S  S100  1  0.80961125  0.95350455  0.41621690  1
  S  S101  1  0.66631916  0.37845642  0.41598468  1
  O  O102  1  0.10545597  0.02695324  0.30585011  1
  O  O103  1  0.60077220  0.03612896  0.30968600  1
  O  O104  1  0.40993552  0.79298642  0.30575897  1
  O  O105  1  0.91733656  0.80716366  0.31209318  1
  O  O106  1  0.48229497  0.16070016  0.31251884  1
  O  O107  1  0.98574721  0.16593656  0.31080535  1
  O  O108  1  0.10358098  0.16735638  0.81073465  1
  O  O109  1  0.60435665  0.18095287  0.80593059  1
  O  O110  1  0.48465416  0.80512113  0.81103314  1
  O  O111  1  0.98514104  0.80641162  0.81353848  1
  O  O112  1  0.41713534  0.02768218  0.81234172  1
  O  O113  1  0.91381348  0.03624662  0.81015503  1
  O  O114  1  0.39910734  0.96465368  0.69402810  1
  O  O115  1  0.89769431  0.96803517  0.69067823  1
  O  O116  1  0.08370946  0.20641031  0.69262435  1
  O  O117  1  0.59154745  0.21256819  0.69580591  1
  O  O118  1  0.01719649  0.83164930  0.69347054  1
  O  O119  1  0.51708417  0.83246636  0.69163223  1
  O  O120  1  0.39338893  0.81540990  0.19549436  1
  O  O121  1  0.89920031  0.83410509  0.19406373  1
  O  O122  1  0.01830133  0.20336799  0.19144550  1
  O  O123  1  0.51329916  0.19654505  0.19406652  1
  O  O124  1  0.09305133  0.97016247  0.19586200  1
  O  O125  1  0.58214635  0.96044430  0.19324268  1
  O  O126  1  0.43232456  0.37497840  0.64016113  1
  O  O127  1  0.93576857  0.37246903  0.64213217  1
  O  O128  1  0.25160300  0.13175069  0.64220434  1
  O  O129  1  0.75549717  0.14171671  0.64083790  1
  O  O130  1  0.31359657  0.49856822  0.64322290  1
  O  O131  1  0.81116739  0.48945559  0.64034585  1
  O  O132  1  0.43472187  0.50060741  0.14395550  1
  O  O133  1  0.93269006  0.49084227  0.14078447  1
  O  O134  1  0.31052023  0.12362316  0.14052128  1
  O  O135  1  0.81333227  0.12794426  0.14393290  1
  O  O136  1  0.25694379  0.36999229  0.14242249  1
  O  O137  1  0.75064972  0.36920129  0.14335412  1
  O  O138  1  0.23611028  0.29755075  0.02153714  1
  O  O139  1  0.73459883  0.29708508  0.02151509  1
  O  O140  1  0.41536949  0.54000718  0.02333949  1
  O  O141  1  0.91383421  0.53783454  0.02118157  1
  O  O142  1  0.35356960  0.16492384  0.02233182  1
  O  O143  1  0.85430060  0.16731129  0.02327706  1
  O  O144  1  0.23476319  0.17075060  0.52088375  1
  O  O145  1  0.73437755  0.17140222  0.51970697  1
  O  O146  1  0.35467857  0.54406542  0.52245804  1
  O  O147  1  0.85169413  0.54130537  0.52104773  1
  O  O148  1  0.41469083  0.29118123  0.52021642  1
  O  O149  1  0.91664636  0.29182949  0.52192278  1
  O  O150  1  0.27110344  0.69769801  0.97212066  1
  O  O151  1  0.77251762  0.69825051  0.97231483  1
  O  O152  1  0.08656546  0.46781815  0.97594842  1
  O  O153  1  0.58327733  0.46360113  0.97716845  1
  O  O154  1  0.15432164  0.84637924  0.97212543  1
  O  O155  1  0.64826996  0.83082716  0.97665092  1
  O  O156  1  0.27416385  0.84725491  0.47069370  1
  O  O157  1  0.77110598  0.84385732  0.47107123  1
  O  O158  1  0.14900269  0.46911867  0.47512609  1
  O  O159  1  0.65225512  0.45749827  0.47064609  1
  O  O160  1  0.08531466  0.70392624  0.47543264  1
  O  O161  1  0.58712633  0.70741939  0.47461442  1
  O  O162  1  0.06648245  0.63324529  0.36082318  1
  O  O163  1  0.56975879  0.63468285  0.35685115  1
  O  O164  1  0.25717224  0.87494592  0.36162806  1
  O  O165  1  0.75533264  0.87171953  0.36162832  1
  O  O166  1  0.18478278  0.50304323  0.36043546  1
  O  O167  1  0.68145329  0.48841115  0.36138038  1
  O  O168  1  0.07059619  0.50648596  0.85814782  1
  O  O169  1  0.56789567  0.50150602  0.86093137  1
  O  O170  1  0.18299172  0.87665519  0.86267752  1
  O  O171  1  0.68518057  0.86974805  0.86112058  1
  O  O172  1  0.25573091  0.63853811  0.86259317  1
  O  O173  1  0.75675604  0.63657705  0.86356195  1
  O  O174  1  0.01056117  0.84188615  0.40878153  1
  O  O175  1  0.50891835  0.84349648  0.40649212  1
  O  O176  1  0.40117720  0.97355522  0.40989329  1
  O  O177  1  0.89909890  0.97551969  0.41174990  1
  O  O178  1  0.07854556  0.17958293  0.40739189  1
  O  O179  1  0.58556022  0.20026345  0.41112029  1
  O  O180  1  0.01170387  0.17755045  0.90982163  1
  O  O181  1  0.50987236  0.17857599  0.90977580  1
  O  O182  1  0.08727629  0.97105194  0.91304359  1
  O  O183  1  0.57815717  0.97760617  0.90826016  1
  O  O184  1  0.39889335  0.82122647  0.91290536  1
  O  O185  1  0.90054246  0.82434403  0.91258944  1
  O  O186  1  0.48975364  0.16673979  0.58976079  1
  O  O187  1  0.98837888  0.16142102  0.58695618  1
  O  O188  1  0.09440828  0.02407399  0.58735099  1
  O  O189  1  0.59547183  0.02964352  0.58855634  1
  O  O190  1  0.41740583  0.81276800  0.58795474  1
  O  O191  1  0.91721783  0.81165819  0.58787659  1
  O  O192  1  0.48588300  0.81242495  0.09025055  1
  O  O193  1  0.99003080  0.81297483  0.09068998  1
  O  O194  1  0.41592019  0.01767592  0.09099233  1
  O  O195  1  0.91727770  0.02277415  0.08825721  1
  O  O196  1  0.09673995  0.16238942  0.08992299  1
  O  O197  1  0.59606014  0.16743820  0.08777566  1
  O  O198  1  0.34222618  0.17047247  0.74415773  1
  O  O199  1  0.84488906  0.17744268  0.74236484  1
  O  O200  1  0.24312777  0.31026686  0.74395082  1
  O  O201  1  0.73263920  0.30440265  0.74521045  1
  O  O202  1  0.40991394  0.51975889  0.74369561  1
  O  O203  1  0.91098956  0.51130754  0.74410912  1
  O  O204  1  0.34586009  0.53663612  0.24644212  1
  O  O205  1  0.84197132  0.51359505  0.24428964  1
  O  O206  1  0.40969274  0.31564920  0.24378122  1
  O  O207  1  0.91134653  0.30260289  0.24398540  1
  O  O208  1  0.23383952  0.16292662  0.24507429  1
  O  O209  1  0.74244293  0.17512667  0.24431374  1
  O  O210  1  0.31852262  0.50603314  0.92219873  1
  O  O211  1  0.82053722  0.50866565  0.92225877  1
  O  O212  1  0.42112057  0.35662669  0.92434866  1
  O  O213  1  0.92602501  0.35994830  0.92322910  1
  O  O214  1  0.24512465  0.13348668  0.92195772  1
  O  O215  1  0.75386120  0.15653325  0.92357433  1
  O  O216  1  0.32150611  0.13093236  0.42003527  1
  O  O217  1  0.81867034  0.12983618  0.42062937  1
  O  O218  1  0.25421729  0.35187367  0.42217875  1
  O  O219  1  0.74357204  0.35445426  0.42024564  1
  O  O220  1  0.42559484  0.49295229  0.42201596  1
  O  O221  1  0.92072570  0.48570953  0.42341972  1
  O  O222  1  0.18139697  0.50592873  0.07672121  1
  O  O223  1  0.67919404  0.50856664  0.07458196  1
  O  O224  1  0.07496764  0.64634766  0.07449129  1
  O  O225  1  0.57408662  0.64349429  0.07796504  1
  O  O226  1  0.24478403  0.84320187  0.07122714  1
  O  O227  1  0.74699118  0.84550675  0.07402187  1
  O  O228  1  0.18007541  0.85082828  0.57341197  1
  O  O229  1  0.68053842  0.85631246  0.57583871  1
  O  O230  1  0.24702583  0.64808316  0.57296135  1
  O  O231  1  0.74494397  0.64427147  0.57070847  1
  O  O232  1  0.07423596  0.50557225  0.57716751  1
  O  O233  1  0.57447646  0.50334648  0.57374001  1
  O  O234  1  0.15820787  0.84814250  0.25767624  1
  O  O235  1  0.65546878  0.82607552  0.25804052  1
  O  O236  1  0.26783048  0.69788171  0.25654518  1
  O  O237  1  0.75737405  0.68981918  0.26255476  1
  O  O238  1  0.08706069  0.48239763  0.25516743  1
  O  O239  1  0.58433180  0.47445617  0.25782494  1
  O  O240  1  0.15619780  0.48490882  0.75829098  1
  O  O241  1  0.65458104  0.46319998  0.75740511  1
  O  O242  1  0.08534968  0.69484530  0.75793349  1
  O  O243  1  0.58435078  0.68988439  0.75494524  1
  O  O244  1  0.25761284  0.82454394  0.76279067  1
  O  O245  1  0.75942451  0.82038339  0.75726071  1
