# generated using pymatgen
data_MgCrP2O7
_symmetry_space_group_name_H-M   'P 1'
_cell_length_a   5.54170216
_cell_length_b   5.87113525
_cell_length_c   5.08665985
_cell_angle_alpha   74.19839366
_cell_angle_beta   83.77470049
_cell_angle_gamma   74.31606341
_symmetry_Int_Tables_number   1
_chemical_formula_structural   MgCrP2O7
_chemical_formula_sum   'Mg1 Cr1 P2 O7'
_cell_volume   153.20832075
_cell_formula_units_Z   1
loop_
 _symmetry_equiv_pos_site_id
 _symmetry_equiv_pos_as_xyz
  1  'x, y, z'
loop_
 _atom_site_type_symbol
 _atom_site_label
 _atom_site_symmetry_multiplicity
 _atom_site_fract_x
 _atom_site_fract_y
 _atom_site_fract_z
 _atom_site_occupancy
  Mg  Mg0  1  0.17635658  0.49131237  0.12658833  1
  Cr  Cr1  1  0.05080321  0.07399710  0.95664641  1
  P  P2  1  0.68197489  0.29302139  0.42549616  1
  P  P3  1  0.28404729  0.65427503  0.58092102  1
  O  O4  1  0.19446271  0.43008547  0.75155952  1
  O  O5  1  0.90172533  0.32193420  0.20921845  1
  O  O6  1  0.77071235  0.12035636  0.69550247  1
  O  O7  1  0.27498326  0.81757137  0.77108698  1
  O  O8  1  0.57542044  0.56738141  0.48462674  1
  O  O9  1  0.13978372  0.76718480  0.31293309  1
  O  O10  1  0.47124022  0.24689151  0.29653283  1
