# generated using pymatgen
data_Na3Zn3SnPS5O24
_symmetry_space_group_name_H-M   'P 1'
_cell_length_a   8.79778748
_cell_length_b   8.77712623
_cell_length_c   22.72209693
_cell_angle_alpha   90.32762332
_cell_angle_beta   90.02742800
_cell_angle_gamma   120.15949494
_symmetry_Int_Tables_number   1
_chemical_formula_structural   Na3Zn3SnPS5O24
_chemical_formula_sum   'Na9 Zn9 Sn3 P3 S15 O72'
_cell_volume   1517.03029616
_cell_formula_units_Z   3
loop_
 _symmetry_equiv_pos_site_id
 _symmetry_equiv_pos_as_xyz
  1  'x, y, z'
loop_
 _atom_site_type_symbol
 _atom_site_label
 _atom_site_symmetry_multiplicity
 _atom_site_fract_x
 _atom_site_fract_y
 _atom_site_fract_z
 _atom_site_occupancy
  Na  Na0  1  0.36414696  0.36442461  0.25095656  1
  Na  Na1  1  0.02807482  0.69946783  0.58496530  1
  Na  Na2  1  0.29899992  0.96451887  0.08057854  1
  Na  Na3  1  0.99329377  0.00154315  0.50091146  1
  Na  Na4  1  0.99886932  0.00695600  0.99322620  1
  Na  Na5  1  0.66721703  0.32883160  0.82968755  1
  Na  Na6  1  0.67576748  0.33253645  0.33188984  1
  Na  Na7  1  0.33328711  0.66646900  0.16716118  1
  Na  Na8  1  0.34802398  0.66460361  0.66506393  1
  Zn  Zn9  1  0.99658776  0.99730404  0.35034877  1
  Zn  Zn10  1  0.01065838  0.01040476  0.85239235  1
  Zn  Zn11  1  0.98780164  0.99639881  0.65184689  1
  Zn  Zn12  1  0.98999070  0.99729886  0.15239499  1
  Zn  Zn13  1  0.66181707  0.33943393  0.68487483  1
  Zn  Zn14  1  0.67611278  0.33518353  0.18454096  1
  Zn  Zn15  1  0.32703129  0.66223321  0.01008375  1
  Zn  Zn16  1  0.34913744  0.66586184  0.51774182  1
  Zn  Zn17  1  0.33267669  0.67435968  0.31885789  1
  Sn  Sn18  1  0.67060888  0.33078401  0.97904439  1
  Sn  Sn19  1  0.66627028  0.33621091  0.48378767  1
  Sn  Sn20  1  0.32891651  0.66767702  0.81697275  1
  P  P21  1  0.66543045  0.62911648  0.58549382  1
  P  P22  1  0.04149625  0.36991313  0.91781688  1
  P  P23  1  0.32846786  0.95912293  0.91921214  1
  S  S24  1  0.29295545  0.99770455  0.24916949  1
  S  S25  1  0.70587927  0.70647674  0.25025054  1
  S  S26  1  0.99925275  0.29320981  0.25057197  1
  S  S27  1  0.29315910  0.29237645  0.75004551  1
  S  S28  1  0.99885206  0.70647610  0.75007732  1
  S  S29  1  0.70640112  0.00121913  0.75109669  1
  S  S30  1  0.96021492  0.33155839  0.58419016  1
  S  S31  1  0.37264684  0.03925548  0.58440391  1
  S  S32  1  0.95912930  0.62664312  0.08471833  1
  S  S33  1  0.66841414  0.03880385  0.08467491  1
  S  S34  1  0.37462336  0.33684867  0.08495451  1
  S  S35  1  0.62800041  0.66895684  0.91796651  1
  S  S36  1  0.62806458  0.96135081  0.41698962  1
  S  S37  1  0.33070552  0.37024798  0.41567693  1
  S  S38  1  0.04122241  0.66798863  0.41775000  1
  O  O39  1  0.21116425  0.03106498  0.30100097  1
  O  O40  1  0.81357817  0.78634063  0.30326913  1
  O  O41  1  0.97238884  0.18568540  0.30335622  1
  O  O42  1  0.21367560  0.19101623  0.80335670  1
  O  O43  1  0.97769818  0.79142025  0.80253826  1
  O  O44  1  0.80980122  0.02289381  0.80413917  1
  O  O45  1  0.77778644  0.96649937  0.69710757  1
  O  O46  1  0.18562452  0.21700834  0.69640634  1
  O  O47  1  0.03107053  0.80957451  0.69522578  1
  O  O48  1  0.78303928  0.81071738  0.19667074  1
  O  O49  1  0.03353454  0.21601496  0.19701039  1
  O  O50  1  0.18985686  0.97146672  0.19401017  1
  O  O51  1  0.87704125  0.36269444  0.63508158  1
  O  O52  1  0.48557268  0.12131383  0.63538128  1
  O  O53  1  0.63754105  0.51126000  0.63761394  1
  O  O54  1  0.87546797  0.51726181  0.13629665  1
  O  O55  1  0.63488569  0.12158691  0.13610924  1
  O  O56  1  0.48042795  0.36073835  0.13861597  1
  O  O57  1  0.45795309  0.30070870  0.03158919  1
  O  O58  1  0.84858665  0.54705009  0.03000421  1
  O  O59  1  0.69858251  0.14933620  0.03027486  1
  O  O60  1  0.45012039  0.14632903  0.52843649  1
  O  O61  1  0.70969028  0.55155978  0.52737589  1
  O  O62  1  0.84930966  0.29666716  0.52820509  1
  O  O63  1  0.54862238  0.69349783  0.97111751  1
  O  O64  1  0.14880288  0.45028735  0.97342787  1
  O  O65  1  0.30961544  0.86015255  0.97667000  1
  O  O66  1  0.54765901  0.85922832  0.47021301  1
  O  O67  1  0.30787223  0.45322014  0.46848341  1
  O  O68  1  0.14143663  0.68952498  0.47229034  1
  O  O69  1  0.11771623  0.63533889  0.36488492  1
  O  O70  1  0.52107448  0.88785669  0.36345660  1
  O  O71  1  0.36403089  0.47556046  0.36148021  1
  O  O72  1  0.11912026  0.48676042  0.86158296  1
  O  O73  1  0.37195181  0.88057461  0.86394819  1
  O  O74  1  0.51596601  0.63072126  0.86378753  1
  O  O75  1  0.01813112  0.82270258  0.41153482  1
  O  O76  1  0.80584754  0.98518906  0.41117126  1
  O  O77  1  0.17576821  0.19188503  0.41015570  1
  O  O78  1  0.01430737  0.18597777  0.91039377  1
  O  O79  1  0.16628318  0.97551077  0.91111281  1
  O  O80  1  0.80239623  0.82210437  0.91033631  1
  O  O81  1  0.98017064  0.17595813  0.58860237  1
  O  O82  1  0.19695077  0.02261322  0.58864129  1
  O  O83  1  0.83832776  0.81044615  0.58893277  1
  O  O84  1  0.97911641  0.80532031  0.08890662  1
  O  O85  1  0.82690320  0.02406836  0.08973393  1
  O  O86  1  0.20042826  0.17164926  0.08841630  1
  O  O87  1  0.68260149  0.15523667  0.74461877  1
  O  O88  1  0.47077226  0.31524146  0.74510305  1
  O  O89  1  0.84537747  0.52713550  0.74509529  1
  O  O90  1  0.68226299  0.52476637  0.24464096  1
  O  O91  1  0.84229642  0.31235121  0.24413520  1
  O  O92  1  0.46995360  0.16252567  0.24412810  1
  O  O93  1  0.64072812  0.50314540  0.92242884  1
  O  O94  1  0.85673467  0.36145285  0.92143419  1
  O  O95  1  0.50055268  0.14789533  0.92216631  1
  O  O96  1  0.64503194  0.14484409  0.42255212  1
  O  O97  1  0.49595639  0.35348695  0.42133153  1
  O  O98  1  0.85852250  0.50051708  0.42140074  1
  O  O99  1  0.35938864  0.49411444  0.07739563  1
  O  O100  1  0.13608570  0.64640473  0.07891137  1
  O  O101  1  0.50648711  0.86437838  0.07752081  1
  O  O102  1  0.34881713  0.86020566  0.57647504  1
  O  O103  1  0.50152690  0.64462112  0.57716467  1
  O  O104  1  0.13150133  0.49653800  0.57583516  1
  O  O105  1  0.31206983  0.84066698  0.25564003  1
  O  O106  1  0.52496495  0.68282579  0.25575443  1
  O  O107  1  0.16326161  0.47086107  0.25633735  1
  O  O108  1  0.31241513  0.47701922  0.75539310  1
  O  O109  1  0.16525961  0.69076863  0.75457394  1
  O  O110  1  0.52296341  0.83283519  0.75588617  1
