# generated using pymatgen
data_Na3Si2Sn2PO12
_symmetry_space_group_name_H-M   'P 1'
_cell_length_a   9.04693687
_cell_length_b   9.04693656
_cell_length_c   22.52331072
_cell_angle_alpha   90.05619297
_cell_angle_beta   89.94380702
_cell_angle_gamma   120.09294332
_symmetry_Int_Tables_number   1
_chemical_formula_structural   Na3Si2Sn2PO12
_chemical_formula_sum   'Na18 Si12 Sn12 P6 O72'
_cell_volume   1594.99079837
_cell_formula_units_Z   6
loop_
 _symmetry_equiv_pos_site_id
 _symmetry_equiv_pos_as_xyz
  1  'x, y, z'
loop_
 _atom_site_type_symbol
 _atom_site_label
 _atom_site_symmetry_multiplicity
 _atom_site_fract_x
 _atom_site_fract_y
 _atom_site_fract_z
 _atom_site_occupancy
  Na  Na0  1  0.99692495  0.99197690  0.50028861  1
  Na  Na1  1  0.00802310  0.00307505  0.00028861  1
  Na  Na2  1  0.66359195  0.32530990  0.83362161  1
  Na  Na3  1  0.67469010  0.33640805  0.33362161  1
  Na  Na4  1  0.33025795  0.65864390  0.16695561  1
  Na  Na5  1  0.34135610  0.66974205  0.66695561  1
  Na  Na6  1  0.63948930  0.00151524  0.25131505  1
  Na  Na7  1  0.99830479  0.63088513  0.25177611  1
  Na  Na8  1  0.99848476  0.36051070  0.75131505  1
  Na  Na9  1  0.36911487  0.00169521  0.75177611  1
  Na  Na10  1  0.30615630  0.33484824  0.58464805  1
  Na  Na11  1  0.66497179  0.96421813  0.58510911  1
  Na  Na12  1  0.66515176  0.69384370  0.08464805  1
  Na  Na13  1  0.03578187  0.33502821  0.08510911  1
  Na  Na14  1  0.97282230  0.66818224  0.91798205  1
  Na  Na15  1  0.33163779  0.29755213  0.91844311  1
  Na  Na16  1  0.33181776  0.02717770  0.41798205  1
  Na  Na17  1  0.70244787  0.66836221  0.41844311  1
  Si  Si18  1  0.70531252  0.70564974  0.24995312  1
  Si  Si19  1  0.00132226  0.29340263  0.24841344  1
  Si  Si20  1  0.29435026  0.29468748  0.74995312  1
  Si  Si21  1  0.70659737  0.99867774  0.74841344  1
  Si  Si22  1  0.37197952  0.03898274  0.58328612  1
  Si  Si23  1  0.66798926  0.62673563  0.58174644  1
  Si  Si24  1  0.96101726  0.62802048  0.08328612  1
  Si  Si25  1  0.37326437  0.33201074  0.08174644  1
  Si  Si26  1  0.03864552  0.37231674  0.91662012  1
  Si  Si27  1  0.33465526  0.96006963  0.91508044  1
  Si  Si28  1  0.62768326  0.96135448  0.41662012  1
  Si  Si29  1  0.03993037  0.66534474  0.41508044  1
  Sn  Sn30  1  0.99566005  0.00112138  0.35197376  1
  Sn  Sn31  1  0.99887862  0.00433995  0.85197376  1
  Sn  Sn32  1  0.99758380  0.99404627  0.64807248  1
  Sn  Sn33  1  0.00595373  0.00241620  0.14807248  1
  Sn  Sn34  1  0.66232705  0.33445438  0.68530676  1
  Sn  Sn35  1  0.66554562  0.33767295  0.18530676  1
  Sn  Sn36  1  0.66425080  0.32737927  0.98140548  1
  Sn  Sn37  1  0.67262073  0.33574920  0.48140548  1
  Sn  Sn38  1  0.32899305  0.66778838  0.01864076  1
  Sn  Sn39  1  0.33221162  0.67100695  0.51864076  1
  Sn  Sn40  1  0.33091680  0.66071327  0.31473948  1
  Sn  Sn41  1  0.33928673  0.66908320  0.81473948  1
  P  P42  1  0.29378649  0.00242528  0.25122525  1
  P  P43  1  0.99757472  0.70621351  0.75122525  1
  P  P44  1  0.96045349  0.33575828  0.58455825  1
  P  P45  1  0.66424172  0.03954651  0.08455825  1
  P  P46  1  0.62711949  0.66909228  0.91789225  1
  P  P47  1  0.33090772  0.37288051  0.41789225  1
  O  O48  1  0.21884410  0.03337537  0.30836983  1
  O  O49  1  0.82794018  0.78537374  0.30862541  1
  O  O50  1  0.96081713  0.16834521  0.30535493  1
  O  O51  1  0.21462626  0.17205982  0.80862541  1
  O  O52  1  0.96662463  0.78115590  0.80836983  1
  O  O53  1  0.83165479  0.03918287  0.80535493  1
  O  O54  1  0.78558488  0.96701312  0.68770710  1
  O  O55  1  0.17269891  0.21178400  0.69092969  1
  O  O56  1  0.03610995  0.82457922  0.69714141  1
  O  O57  1  0.78821600  0.82730109  0.19092969  1
  O  O58  1  0.03298688  0.21441512  0.18770710  1
  O  O59  1  0.17542078  0.96389005  0.19714141  1
  O  O60  1  0.88551110  0.36670837  0.64170283  1
  O  O61  1  0.49460718  0.11870674  0.64195841  1
  O  O62  1  0.62748413  0.50167821  0.63868793  1
  O  O63  1  0.88129326  0.50539282  0.14195841  1
  O  O64  1  0.63329163  0.11448890  0.14170283  1
  O  O65  1  0.49832179  0.37251587  0.13868793  1
  O  O66  1  0.45225188  0.30034612  0.02104010  1
  O  O67  1  0.83936591  0.54511700  0.02426269  1
  O  O68  1  0.70277695  0.15791222  0.03047441  1
  O  O69  1  0.45488300  0.16063409  0.52426269  1
  O  O70  1  0.69965388  0.54774812  0.52104010  1
  O  O71  1  0.84208778  0.29722305  0.53047441  1
  O  O72  1  0.55217710  0.70004237  0.97503683  1
  O  O73  1  0.16127318  0.45204074  0.97529241  1
  O  O74  1  0.29415013  0.83501221  0.97202193  1
  O  O75  1  0.54795926  0.83872682  0.47529241  1
  O  O76  1  0.29995763  0.44782290  0.47503683  1
  O  O77  1  0.16498779  0.70584987  0.47202193  1
  O  O78  1  0.11891788  0.63368012  0.35437410  1
  O  O79  1  0.50603191  0.87845100  0.35759669  1
  O  O80  1  0.36944295  0.49124622  0.36380841  1
  O  O81  1  0.12154900  0.49396809  0.85759669  1
  O  O82  1  0.36631988  0.88108212  0.85437410  1
  O  O83  1  0.50875378  0.63055705  0.86380841  1
  O  O84  1  0.02955165  0.84349310  0.41114617  1
  O  O85  1  0.81398833  0.97312472  0.41243547  1
  O  O86  1  0.17622745  0.19083510  0.41090858  1
  O  O87  1  0.02687528  0.18601167  0.91243547  1
  O  O88  1  0.15650690  0.97044835  0.91114617  1
  O  O89  1  0.80916490  0.82377255  0.91090858  1
  O  O90  1  0.97698546  0.17239193  0.58845057  1
  O  O91  1  0.18770512  0.03293960  0.58903782  1
  O  O92  1  0.83130352  0.82186316  0.58687521  1
  O  O93  1  0.96706040  0.81229488  0.08903782  1
  O  O94  1  0.82760807  0.02301454  0.08845057  1
  O  O95  1  0.17813684  0.16869648  0.08687521  1
  O  O96  1  0.69621865  0.17682610  0.74447917  1
  O  O97  1  0.48065533  0.30645772  0.74576847  1
  O  O98  1  0.84289445  0.52416810  0.74424158  1
  O  O99  1  0.69354228  0.51934467  0.24576847  1
  O  O100  1  0.82317390  0.30378135  0.24447917  1
  O  O101  1  0.47583190  0.15710555  0.24424158  1
  O  O102  1  0.64365246  0.50572493  0.92178357  1
  O  O103  1  0.85437212  0.36627260  0.92237082  1
  O  O104  1  0.49797052  0.15519616  0.92020821  1
  O  O105  1  0.63372740  0.14562788  0.42237082  1
  O  O106  1  0.49427507  0.35634754  0.42178357  1
  O  O107  1  0.84480384  0.50202948  0.42020821  1
  O  O108  1  0.36288465  0.51016010  0.07781317  1
  O  O109  1  0.14732133  0.63979172  0.07910247  1
  O  O110  1  0.50956045  0.85750210  0.07757558  1
  O  O111  1  0.36020828  0.85267867  0.57910247  1
  O  O112  1  0.48983990  0.63711535  0.57781317  1
  O  O113  1  0.14249790  0.49043955  0.57757558  1
  O  O114  1  0.31031846  0.83905893  0.25511757  1
  O  O115  1  0.52103812  0.69960660  0.25570482  1
  O  O116  1  0.16463652  0.48853016  0.25354221  1
  O  O117  1  0.30039340  0.47896188  0.75570482  1
  O  O118  1  0.16094107  0.68968154  0.75511757  1
  O  O119  1  0.51146984  0.83536348  0.75354221  1
