# generated using pymatgen
data_Na2Ta3InSi4(SO12)2
_symmetry_space_group_name_H-M   'P 1'
_cell_length_a   8.86606844
_cell_length_b   8.90966215
_cell_length_c   22.96714072
_cell_angle_alpha   90.01226494
_cell_angle_beta   90.51925823
_cell_angle_gamma   119.83726965
_symmetry_Int_Tables_number   1
_chemical_formula_structural   Na2Ta3InSi4(SO12)2
_chemical_formula_sum   'Na6 Ta9 In3 Si12 S6 O72'
_cell_volume   1573.67635333
_cell_formula_units_Z   3
loop_
 _symmetry_equiv_pos_site_id
 _symmetry_equiv_pos_as_xyz
  1  'x, y, z'
loop_
 _atom_site_type_symbol
 _atom_site_label
 _atom_site_symmetry_multiplicity
 _atom_site_fract_x
 _atom_site_fract_y
 _atom_site_fract_z
 _atom_site_occupancy
  Na  Na0  1  0.97701550  0.97151208  0.49853267  1
  Na  Na1  1  0.00231259  0.99067323  0.99775452  1
  Na  Na2  1  0.65079283  0.31441214  0.83092718  1
  Na  Na3  1  0.67180382  0.31597378  0.32329568  1
  Na  Na4  1  0.31307820  0.64573827  0.15972982  1
  Na  Na5  1  0.35939684  0.66240195  0.66694041  1
  Ta  Ta6  1  0.00147835  0.00357776  0.35238985  1
  Ta  Ta7  1  0.00229025  0.01379253  0.85893419  1
  Ta  Ta8  1  0.98537159  0.99547941  0.64762554  1
  Ta  Ta9  1  0.02125753  0.01287272  0.14135778  1
  Ta  Ta10  1  0.66264796  0.34381698  0.97626649  1
  Ta  Ta11  1  0.67701883  0.34233745  0.47723046  1
  Ta  Ta12  1  0.32531684  0.66134234  0.01777040  1
  Ta  Ta13  1  0.32076761  0.67636978  0.31020153  1
  Ta  Ta14  1  0.33906458  0.66421487  0.81273765  1
  In  In15  1  0.64975746  0.33101778  0.69310726  1
  In  In16  1  0.67527348  0.33845274  0.18704630  1
  In  In17  1  0.35310154  0.68282206  0.51631691  1
  Si  Si18  1  0.29269099  0.00840644  0.24964776  1
  Si  Si19  1  0.00499887  0.29048675  0.24903393  1
  Si  Si20  1  0.28071078  0.28936393  0.75162038  1
  Si  Si21  1  0.70626045  0.99902059  0.75205888  1
  Si  Si22  1  0.66340591  0.62180995  0.58548599  1
  Si  Si23  1  0.95656438  0.62199730  0.08515777  1
  Si  Si24  1  0.38807093  0.34474822  0.08458307  1
  Si  Si25  1  0.62248577  0.67264311  0.91746974  1
  Si  Si26  1  0.04176614  0.38509237  0.91459021  1
  Si  Si27  1  0.33687996  0.95275289  0.91514047  1
  Si  Si28  1  0.62697060  0.95903504  0.41652083  1
  Si  Si29  1  0.04706128  0.67228465  0.41845707  1
  S  S30  1  0.70974435  0.71971211  0.25128140  1
  S  S31  1  0.00806457  0.72379650  0.75138246  1
  S  S32  1  0.95455370  0.32849438  0.58363660  1
  S  S33  1  0.37071806  0.04468193  0.58315235  1
  S  S34  1  0.66610540  0.03842061  0.08232802  1
  S  S35  1  0.33411818  0.37262828  0.41606269  1
  O  O36  1  0.18091766  0.00551828  0.30614354  1
  O  O37  1  0.81318285  0.81201351  0.30508474  1
  O  O38  1  0.99343557  0.17413425  0.30603791  1
  O  O39  1  0.17682948  0.17091613  0.80741159  1
  O  O40  1  0.99283808  0.81022926  0.80326963  1
  O  O41  1  0.82237011  0.00398077  0.80787270  1
  O  O42  1  0.79996958  0.96908873  0.69202834  1
  O  O43  1  0.16618651  0.18373404  0.69162836  1
  O  O44  1  0.01960344  0.82478220  0.69633578  1
  O  O45  1  0.78859599  0.81951278  0.19834452  1
  O  O46  1  0.01620851  0.18588116  0.19150524  1
  O  O47  1  0.17389030  0.97906894  0.19061958  1
  O  O48  1  0.87275834  0.34546662  0.63581270  1
  O  O49  1  0.47353046  0.11827499  0.63644465  1
  O  O50  1  0.65533692  0.51894715  0.64302985  1
  O  O51  1  0.89817805  0.51279958  0.14402342  1
  O  O52  1  0.63323577  0.10338828  0.13674038  1
  O  O53  1  0.48944342  0.37353068  0.14461788  1
  O  O54  1  0.47529631  0.30766184  0.02746779  1
  O  O55  1  0.83141090  0.51870863  0.02833110  1
  O  O56  1  0.69313241  0.14862028  0.03103200  1
  O  O57  1  0.46301076  0.14895271  0.53032780  1
  O  O58  1  0.68204817  0.51698660  0.52669681  1
  O  O59  1  0.84266991  0.30392614  0.52935020  1
  O  O60  1  0.53119471  0.69985530  0.97374324  1
  O  O61  1  0.16314329  0.47220390  0.97229807  1
  O  O62  1  0.30683567  0.83330350  0.97189277  1
  O  O63  1  0.57696850  0.84892256  0.47498691  1
  O  O64  1  0.29716328  0.43603013  0.46982907  1
  O  O65  1  0.15374708  0.70026600  0.47705778  1
  O  O66  1  0.13685261  0.63703128  0.36067015  1
  O  O67  1  0.49637685  0.85408382  0.36077735  1
  O  O68  1  0.36313340  0.48158069  0.36504969  1
  O  O69  1  0.13372703  0.50262466  0.85728003  1
  O  O70  1  0.36267062  0.85936780  0.85752147  1
  O  O71  1  0.50137957  0.63699732  0.85832655  1
  O  O72  1  0.01136889  0.83217095  0.40647457  1
  O  O73  1  0.82584299  0.00358853  0.40256201  1
  O  O74  1  0.18622124  0.19248804  0.40753884  1
  O  O75  1  0.02722957  0.19397602  0.91007677  1
  O  O76  1  0.16458508  0.97281672  0.90616024  1
  O  O77  1  0.81599820  0.83677093  0.90946075  1
  O  O78  1  0.96350089  0.16230964  0.58600689  1
  O  O79  1  0.19987210  0.04230067  0.58594103  1
  O  O80  1  0.84825677  0.81570620  0.58883167  1
  O  O81  1  0.96157632  0.81149287  0.09147490  1
  O  O82  1  0.82467093  0.01936058  0.08799242  1
  O  O83  1  0.18753567  0.16773522  0.08852019  1
  O  O84  1  0.70899948  0.17985970  0.74742581  1
  O  O85  1  0.47228699  0.31241489  0.75504584  1
  O  O86  1  0.85638429  0.54995828  0.74797717  1
  O  O87  1  0.69761676  0.55002664  0.25287588  1
  O  O88  1  0.83973395  0.31724090  0.25017000  1
  O  O89  1  0.47924898  0.17682681  0.24980253  1
  O  O90  1  0.63562204  0.49608791  0.92409948  1
  O  O91  1  0.84972412  0.35808985  0.92468938  1
  O  O92  1  0.50751833  0.14219059  0.92592751  1
  O  O93  1  0.63357408  0.14732653  0.42632245  1
  O  O94  1  0.49182246  0.35080497  0.42331970  1
  O  O95  1  0.85062765  0.49480966  0.42536332  1
  O  O96  1  0.35494174  0.50733632  0.07350342  1
  O  O97  1  0.15759880  0.66703631  0.07194793  1
  O  O98  1  0.51592177  0.86091532  0.07389873  1
  O  O99  1  0.33628271  0.86586595  0.57905002  1
  O  O100  1  0.49550155  0.64722661  0.58124458  1
  O  O101  1  0.12804472  0.47447950  0.57584722  1
  O  O102  1  0.30017107  0.82470011  0.25613687  1
  O  O103  1  0.53487357  0.70322228  0.25794917  1
  O  O104  1  0.19042630  0.47511696  0.25927991  1
  O  O105  1  0.28299191  0.47482336  0.75437852  1
  O  O106  1  0.17211327  0.71812379  0.75191415  1
  O  O107  1  0.51512650  0.82422699  0.75542627  1
