# generated using pymatgen
data_Na8Hf3MgSi4(PO12)2
_symmetry_space_group_name_H-M   'P 1'
_cell_length_a   9.20014395
_cell_length_b   9.19439825
_cell_length_c   22.35461313
_cell_angle_alpha   89.96301942
_cell_angle_beta   90.07902296
_cell_angle_gamma   120.08495949
_symmetry_Int_Tables_number   1
_chemical_formula_structural   Na8Hf3MgSi4(PO12)2
_chemical_formula_sum   'Na24 Hf9 Mg3 Si12 P6 O72'
_cell_volume   1636.22442092
_cell_formula_units_Z   3
loop_
 _symmetry_equiv_pos_site_id
 _symmetry_equiv_pos_as_xyz
  1  'x, y, z'
loop_
 _atom_site_type_symbol
 _atom_site_label
 _atom_site_symmetry_multiplicity
 _atom_site_fract_x
 _atom_site_fract_y
 _atom_site_fract_z
 _atom_site_occupancy
  Na  Na0  1  0.63863442  0.01805606  0.23948801  1
  Na  Na1  1  0.38058328  0.36043280  0.24086728  1
  Na  Na2  1  0.98104088  0.62157632  0.24098313  1
  Na  Na3  1  0.63798401  0.62098602  0.74445972  1
  Na  Na4  1  0.97761721  0.36561076  0.74935918  1
  Na  Na5  1  0.38491592  0.01324444  0.74248108  1
  Na  Na6  1  0.31626132  0.33502120  0.58622236  1
  Na  Na7  1  0.02927855  0.69867146  0.58467520  1
  Na  Na8  1  0.66008830  0.97152006  0.59158054  1
  Na  Na9  1  0.31231823  0.97312157  0.08308411  1
  Na  Na10  1  0.66092836  0.68770478  0.08305948  1
  Na  Na11  1  0.02687546  0.33899509  0.08289305  1
  Na  Na12  1  0.96658891  0.66434241  0.91747652  1
  Na  Na13  1  0.69864597  0.03519782  0.91753527  1
  Na  Na14  1  0.33481038  0.30163409  0.91926889  1
  Na  Na15  1  0.97196080  0.29184956  0.41199356  1
  Na  Na16  1  0.31166883  0.03202197  0.41495074  1
  Na  Na17  1  0.71476389  0.67805307  0.41146443  1
  Na  Na18  1  0.00853619  0.99749512  0.49376245  1
  Na  Na19  1  0.00087788  0.00114365  0.99880375  1
  Na  Na20  1  0.67270291  0.33374126  0.82771952  1
  Na  Na21  1  0.66797960  0.33808058  0.32760300  1
  Na  Na22  1  0.33431705  0.66747089  0.15975858  1
  Na  Na23  1  0.34092137  0.67747210  0.66895101  1
  Hf  Hf24  1  0.99460566  0.99568740  0.85216631  1
  Hf  Hf25  1  0.99863892  0.99366616  0.64738754  1
  Hf  Hf26  1  0.00056257  0.99981286  0.14797706  1
  Hf  Hf27  1  0.66747922  0.33375087  0.98273934  1
  Hf  Hf28  1  0.66402266  0.33816519  0.48145720  1
  Hf  Hf29  1  0.33318132  0.66709385  0.01803331  1
  Hf  Hf30  1  0.33164190  0.66677310  0.51823423  1
  Hf  Hf31  1  0.33037559  0.66214413  0.31532387  1
  Hf  Hf32  1  0.33470982  0.67029947  0.81414943  1
  Mg  Mg33  1  0.00374183  0.99978460  0.35169162  1
  Mg  Mg34  1  0.66465892  0.33189327  0.68466056  1
  Mg  Mg35  1  0.66649102  0.33311136  0.17861969  1
  Si  Si36  1  -0.00011413  0.69989291  0.74980051  1
  Si  Si37  1  0.70262951  0.00093940  0.74922408  1
  Si  Si38  1  0.37327961  0.03885340  0.58520304  1
  Si  Si39  1  0.66490538  0.62860431  0.58578627  1
  Si  Si40  1  0.96308912  0.62810198  0.08686092  1
  Si  Si41  1  0.66560023  0.03740534  0.08676348  1
  Si  Si42  1  0.37231393  0.33487333  0.08658617  1
  Si  Si43  1  0.62779281  0.66483006  0.91622131  1
  Si  Si44  1  0.03791253  0.37125435  0.91589507  1
  Si  Si45  1  0.33459196  0.96456507  0.91646919  1
  Si  Si46  1  0.33216464  0.36827460  0.41657789  1
  Si  Si47  1  0.03375017  0.66432035  0.41617179  1
  P  P48  1  0.29636364  0.00028956  0.25343614  1
  P  P49  1  0.70578791  0.70799191  0.25377556  1
  P  P50  1  0.00008275  0.29311135  0.25375239  1
  P  P51  1  0.29147356  0.29341008  0.75001272  1
  P  P52  1  0.96010206  0.33474499  0.58428509  1
  P  P53  1  0.62638029  0.96079904  0.41608019  1
  O  O54  1  0.21005347  0.01870171  0.30868501  1
  O  O55  1  0.81031220  0.79522150  0.30900272  1
  O  O56  1  0.98151956  0.18818901  0.30895765  1
  O  O57  1  0.19907935  0.18424781  0.80563857  1
  O  O58  1  0.98197707  0.79926892  0.80816378  1
  O  O59  1  0.82058281  0.02253271  0.80789506  1
  O  O60  1  0.79789436  0.97674765  0.69038191  1
  O  O61  1  0.18118090  0.20712234  0.69343164  1
  O  O62  1  0.03129049  0.82319552  0.69093432  1
  O  O63  1  0.79393316  0.81725579  0.19679774  1
  O  O64  1  0.02381853  0.20675442  0.19693740  1
  O  O65  1  0.18464733  0.97507299  0.19666243  1
  O  O66  1  0.88497242  0.36648675  0.63929854  1
  O  O67  1  0.48889198  0.11540458  0.64339247  1
  O  O68  1  0.62833204  0.51268987  0.64363930  1
  O  O69  1  0.88610786  0.51481362  0.14579566  1
  O  O70  1  0.62898927  0.11423998  0.14554867  1
  O  O71  1  0.48571691  0.37153416  0.14554330  1
  O  O72  1  0.45810394  0.29977674  0.02737415  1
  O  O73  1  0.84239741  0.54253644  0.02751228  1
  O  O74  1  0.70046367  0.15840441  0.02757899  1
  O  O75  1  0.46448254  0.15570166  0.52515838  1
  O  O76  1  0.69884867  0.54099205  0.52600689  1
  O  O77  1  0.84954457  0.30676571  0.52738628  1
  O  O78  1  0.54041412  0.69648519  0.97466938  1
  O  O79  1  0.15572866  0.45972709  0.97475355  1
  O  O80  1  0.30183241  0.84496163  0.97498989  1
  O  O81  1  0.53655894  0.85003697  0.47174218  1
  O  O82  1  0.31293476  0.46608519  0.47477738  1
  O  O83  1  0.15361580  0.69089792  0.47443760  1
  O  O84  1  0.13156267  0.63919405  0.35820821  1
  O  O85  1  0.51157088  0.87385601  0.36055941  1
  O  O86  1  0.36661353  0.49391836  0.35850749  1
  O  O87  1  0.12734990  0.49013873  0.85732263  1
  O  O88  1  0.36445531  0.87305445  0.85836796  1
  O  O89  1  0.50888061  0.63484396  0.85768356  1
  O  O90  1  0.00922346  0.82611431  0.41295880  1
  O  O91  1  0.79875123  0.97719916  0.41151859  1
  O  O92  1  0.16445587  0.18578582  0.41315938  1
  O  O93  1  0.02126500  0.18532187  0.91226817  1
  O  O94  1  0.16881866  0.98614957  0.91174316  1
  O  O95  1  0.81502719  0.83392941  0.91265176  1
  O  O96  1  0.98168109  0.17694081  0.58801782  1
  O  O97  1  0.18772915  0.02837392  0.58669509  1
  O  O98  1  0.83512673  0.81845577  0.58708743  1
  O  O99  1  0.98095438  0.81668943  0.09145104  1
  O  O100  1  0.83606432  0.01939352  0.09157907  1
  O  O101  1  0.18344914  0.16423911  0.09133574  1
  O  O102  1  0.68224940  0.16511587  0.74833846  1
  O  O103  1  0.46368184  0.30951687  0.74764445  1
  O  O104  1  0.83164037  0.51815240  0.74753955  1
  O  O105  1  0.68234804  0.53009522  0.24933522  1
  O  O106  1  0.84681103  0.31772934  0.24888544  1
  O  O107  1  0.47360181  0.15592978  0.24845508  1
  O  O108  1  0.64642548  0.49773550  0.92137748  1
  O  O109  1  0.85240616  0.35380821  0.92112960  1
  O  O110  1  0.50388084  0.14906130  0.92125077  1
  O  O111  1  0.64007916  0.13566739  0.42132774  1
  O  O112  1  0.50411409  0.35356587  0.41995218  1
  O  O113  1  0.85287990  0.48600827  0.41942882  1
  O  O114  1  0.34604803  0.49828969  0.07847596  1
  O  O115  1  0.15260658  0.65432906  0.07878381  1
  O  O116  1  0.50203550  0.84759678  0.07872158  1
  O  O117  1  0.34175085  0.84571205  0.57771836  1
  O  O118  1  0.50112440  0.65553445  0.57727837  1
  O  O119  1  0.14005071  0.49137803  0.57600905  1
  O  O120  1  0.31117815  0.83606841  0.25480110  1
  O  O121  1  0.52820915  0.69656807  0.25418276  1
  O  O122  1  0.16696067  0.47198267  0.25467892  1
  O  O123  1  0.30293942  0.46801606  0.75330968  1
  O  O124  1  0.17138981  0.68520116  0.75185061  1
  O  O125  1  0.51986910  0.82360158  0.75153376  1
