# generated using pymatgen
data_BaBiSe3
_symmetry_space_group_name_H-M   'P 1'
_cell_length_a   4.47920984
_cell_length_b   16.37637289
_cell_length_c   17.09756824
_cell_angle_alpha   90.00000000
_cell_angle_beta   90.00000000
_cell_angle_gamma   90.00000000
_symmetry_Int_Tables_number   1
_chemical_formula_structural   BaBiSe3
_chemical_formula_sum   'Ba8 Bi8 Se24'
_cell_volume   1254.16152373
_cell_formula_units_Z   8
loop_
 _symmetry_equiv_pos_site_id
 _symmetry_equiv_pos_as_xyz
  1  'x, y, z'
loop_
 _atom_site_type_symbol
 _atom_site_label
 _atom_site_symmetry_multiplicity
 _atom_site_fract_x
 _atom_site_fract_y
 _atom_site_fract_z
 _atom_site_occupancy
  Ba  Ba0  1  0.21523697  0.60784927  0.40969281  1
  Ba  Ba1  1  0.71523697  0.89215073  0.59030719  1
  Ba  Ba2  1  0.78476303  0.10784927  0.09030719  1
  Ba  Ba3  1  0.28476303  0.39215073  0.90969281  1
  Ba  Ba4  1  0.24098563  0.46398556  0.16919221  1
  Ba  Ba5  1  0.74098563  0.03601444  0.83080779  1
  Ba  Ba6  1  0.75901437  0.96398556  0.33080779  1
  Ba  Ba7  1  0.25901437  0.53601444  0.66919221  1
  Bi  Bi8  1  0.75952866  0.37189530  0.46930825  1
  Bi  Bi9  1  0.25952866  0.12810470  0.53069175  1
  Bi  Bi10  1  0.24047134  0.87189530  0.03069175  1
  Bi  Bi11  1  0.74047134  0.62810470  0.96930825  1
  Bi  Bi12  1  0.73792414  0.71666096  0.20277527  1
  Bi  Bi13  1  0.23792414  0.78333904  0.79722473  1
  Bi  Bi14  1  0.26207586  0.21666096  0.29722473  1
  Bi  Bi15  1  0.76207586  0.28333904  0.70277527  1
  Se  Se16  1  0.85053300  0.70850435  0.68614801  1
  Se  Se17  1  0.35053300  0.79149565  0.31385199  1
  Se  Se18  1  0.14946700  0.20850435  0.81385199  1
  Se  Se19  1  0.64946700  0.29149565  0.18614801  1
  Se  Se20  1  0.73519451  0.52530603  0.52794152  1
  Se  Se21  1  0.23519451  0.97469397  0.47205848  1
  Se  Se22  1  0.26480549  0.02530603  0.97205848  1
  Se  Se23  1  0.76480549  0.47469397  0.02794152  1
  Se  Se24  1  0.76902203  0.43276314  0.77152477  1
  Se  Se25  1  0.26902203  0.06723686  0.22847523  1
  Se  Se26  1  0.23097797  0.93276314  0.72847523  1
  Se  Se27  1  0.73097797  0.56723686  0.27152477  1
  Se  Se28  1  0.27518818  0.60026666  0.86759748  1
  Se  Se29  1  0.77518818  0.89973334  0.13240252  1
  Se  Se30  1  0.72481182  0.10026666  0.63240252  1
  Se  Se31  1  0.22481182  0.39973334  0.36759748  1
  Se  Se32  1  0.30377223  0.67831589  0.09462451  1
  Se  Se33  1  0.80377223  0.82168411  0.90537549  1
  Se  Se34  1  0.69622777  0.17831589  0.40537549  1
  Se  Se35  1  0.19622777  0.32168411  0.59462451  1
  Se  Se36  1  0.15824208  0.73457520  0.56945733  1
  Se  Se37  1  0.65824208  0.76542480  0.43054267  1
  Se  Se38  1  0.84175792  0.23457520  0.93054267  1
  Se  Se39  1  0.34175792  0.26542480  0.06945733  1
