# generated using pymatgen
data_Pt3I8
_symmetry_space_group_name_H-M   'P 1'
_cell_length_a   10.91345009
_cell_length_b   12.05622499
_cell_length_c   12.05622499
_cell_angle_alpha   90.00000000
_cell_angle_beta   90.00000000
_cell_angle_gamma   90.00000000
_symmetry_Int_Tables_number   1
_chemical_formula_structural   Pt3I8
_chemical_formula_sum   'Pt12 I32'
_cell_volume   1586.29792003
_cell_formula_units_Z   4
loop_
 _symmetry_equiv_pos_site_id
 _symmetry_equiv_pos_as_xyz
  1  'x, y, z'
loop_
 _atom_site_type_symbol
 _atom_site_label
 _atom_site_symmetry_multiplicity
 _atom_site_fract_x
 _atom_site_fract_y
 _atom_site_fract_z
 _atom_site_occupancy
  Pt  Pt0  1  0.51610267  0.13130384  0.61680548  1
  Pt  Pt1  1  0.01610267  0.86869616  0.38319452  1
  Pt  Pt2  1  0.26610267  0.11680548  0.36869616  1
  Pt  Pt3  1  0.76610267  0.88319452  0.63130384  1
  Pt  Pt4  1  0.48389733  0.61680548  0.13130384  1
  Pt  Pt5  1  0.73389733  0.36869616  0.11680548  1
  Pt  Pt6  1  0.23389733  0.63130384  0.88319452  1
  Pt  Pt7  1  0.98389733  0.38319452  0.86869616  1
  Pt  Pt8  1  0.50000000  0.12376770  0.12376770  1
  Pt  Pt9  1  0.75000000  0.37623230  0.62376770  1
  Pt  Pt10  1  0.25000000  0.62376770  0.37623230  1
  Pt  Pt11  1  -0.00000000  0.87623230  0.87623230  1
  I  I12  1  0.50336823  0.12736154  0.34887522  1
  I  I13  1  0.00336823  0.87263846  0.65112478  1
  I  I14  1  0.25336823  0.84887522  0.37263846  1
  I  I15  1  0.75336823  0.15112478  0.62736154  1
  I  I16  1  0.49663177  0.34887522  0.12736154  1
  I  I17  1  0.74663177  0.37263846  0.84887522  1
  I  I18  1  0.24663177  0.62736154  0.15112478  1
  I  I19  1  -0.00336823  0.65112478  0.87263846  1
  I  I20  1  0.47189959  0.12403299  0.90044624  1
  I  I21  1  0.97189959  0.87596701  0.09955376  1
  I  I22  1  0.22189959  0.40044624  0.37596701  1
  I  I23  1  0.72189959  0.59955376  0.62403299  1
  I  I24  1  0.97266197  0.37761423  0.08767807  1
  I  I25  1  0.22266197  0.41232193  0.87761423  1
  I  I26  1  0.72266197  0.58767807  0.12238577  1
  I  I27  1  0.47266197  0.62238577  0.91232193  1
  I  I28  1  0.77733803  0.87761423  0.41232193  1
  I  I29  1  0.27733803  0.12238577  0.58767807  1
  I  I30  1  0.02733803  0.08767807  0.37761423  1
  I  I31  1  0.52733803  0.91232193  0.62238577  1
  I  I32  1  0.99172016  0.38851562  0.65130341  1
  I  I33  1  0.24172016  0.84869659  0.88851562  1
  I  I34  1  0.74172016  0.15130341  0.11148438  1
  I  I35  1  0.49172016  0.61148438  0.34869659  1
  I  I36  1  0.75827984  0.88851562  0.84869659  1
  I  I37  1  0.25827984  0.11148438  0.15130341  1
  I  I38  1  0.00827984  0.65130341  0.38851562  1
  I  I39  1  0.50827984  0.34869659  0.61148438  1
  I  I40  1  0.02810041  0.09955376  0.87596701  1
  I  I41  1  0.27810041  0.62403299  0.59955376  1
  I  I42  1  0.77810041  0.37596701  0.40044624  1
  I  I43  1  0.52810041  0.90044624  0.12403299  1
