# generated using pymatgen
data_Na2MgTa(PO4)3
_symmetry_space_group_name_H-M   'P 1'
_cell_length_a   8.84846353
_cell_length_b   8.80031978
_cell_length_c   22.31458907
_cell_angle_alpha   89.99999999
_cell_angle_beta   90.21648745
_cell_angle_gamma   119.82018070
_symmetry_Int_Tables_number   1
_chemical_formula_structural   Na2MgTa(PO4)3
_chemical_formula_sum   'Na12 Mg6 Ta6 P18 O72'
_cell_volume   1507.52946620
_cell_formula_units_Z   6
loop_
 _symmetry_equiv_pos_site_id
 _symmetry_equiv_pos_as_xyz
  1  'x, y, z'
loop_
 _atom_site_type_symbol
 _atom_site_label
 _atom_site_symmetry_multiplicity
 _atom_site_fract_x
 _atom_site_fract_y
 _atom_site_fract_z
 _atom_site_occupancy
  Na  Na0  1  0.98878599  0.63330020  0.24666939  1
  Na  Na1  1  0.98878599  0.35548579  0.74666939  1
  Na  Na2  1  0.65545299  0.96663320  0.58000239  1
  Na  Na3  1  0.65545299  0.68881879  0.08000239  1
  Na  Na4  1  0.32211899  0.29996720  0.91333639  1
  Na  Na5  1  0.32211899  0.02215279  0.41333639  1
  Na  Na6  1  0.99697511  0.00078204  0.49159583  1
  Na  Na7  1  0.99697511  0.99619307  0.99159583  1
  Na  Na8  1  0.66364211  0.33411504  0.82492883  1
  Na  Na9  1  0.66364211  0.32952607  0.32492883  1
  Na  Na10  1  0.33030811  0.66744904  0.15826283  1
  Na  Na11  1  0.33030811  0.66286007  0.65826283  1
  Mg  Mg12  1  0.99449037  0.00045240  0.35262139  1
  Mg  Mg13  1  0.99449037  0.99403797  0.85262139  1
  Mg  Mg14  1  0.66115737  0.33378540  0.68595439  1
  Mg  Mg15  1  0.66115737  0.32737097  0.18595439  1
  Mg  Mg16  1  0.32782337  0.66711940  0.01928839  1
  Mg  Mg17  1  0.32782337  0.66070497  0.51928839  1
  Ta  Ta18  1  0.00450237  0.99739196  0.64648924  1
  Ta  Ta19  1  0.00450237  0.00711041  0.14648924  1
  Ta  Ta20  1  0.67116937  0.33072496  0.97982224  1
  Ta  Ta21  1  0.67116937  0.34044341  0.47982224  1
  Ta  Ta22  1  0.33783537  0.66405896  0.31315624  1
  Ta  Ta23  1  0.33783537  0.67377741  0.81315624  1
  P  P24  1  0.29511598  0.00540088  0.25388783  1
  P  P25  1  0.71119332  0.71057611  0.25077809  1
  P  P26  1  0.99722277  0.28986034  0.25294662  1
  P  P27  1  0.29511598  0.28971510  0.75388783  1
  P  P28  1  0.99722277  0.70736243  0.75294662  1
  P  P29  1  0.71119332  0.00061721  0.75077809  1
  P  P30  1  0.96178298  0.33873388  0.58722083  1
  P  P31  1  0.37786032  0.04390911  0.58411109  1
  P  P32  1  0.66388977  0.62319334  0.58627962  1
  P  P33  1  0.96178298  0.62304810  0.08722083  1
  P  P34  1  0.66388977  0.04069543  0.08627962  1
  P  P35  1  0.37786032  0.33395021  0.08411109  1
  P  P36  1  0.62844898  0.67206788  0.92055483  1
  P  P37  1  0.04452632  0.37724311  0.91744509  1
  P  P38  1  0.33055577  0.95652734  0.91961362  1
  P  P39  1  0.62844898  0.95638210  0.42055483  1
  P  P40  1  0.33055577  0.37402943  0.41961362  1
  P  P41  1  0.04452632  0.66728421  0.41744509  1
  O  O42  1  0.21004468  0.01962152  0.31032399  1
  O  O43  1  0.82713093  0.79814933  0.30352735  1
  O  O44  1  0.97891978  0.18290298  0.30694643  1
  O  O45  1  0.21004468  0.19042316  0.81032399  1
  O  O46  1  0.97891978  0.79601681  0.80694643  1
  O  O47  1  0.82713093  0.02898160  0.80352735  1
  O  O48  1  0.79546007  0.96862094  0.69191129  1
  O  O49  1  0.16624436  0.19602037  0.69783815  1
  O  O50  1  0.02640458  0.82574945  0.69487349  1
  O  O51  1  0.79546007  0.82683913  0.19191129  1
  O  O52  1  0.02640458  0.20065513  0.19487349  1
  O  O53  1  0.16624436  0.97022399  0.19783815  1
  O  O54  1  0.87671168  0.35295452  0.64365699  1
  O  O55  1  0.49379793  0.13148233  0.63686035  1
  O  O56  1  0.64558678  0.51623598  0.64027943  1
  O  O57  1  0.87671168  0.52375616  0.14365699  1
  O  O58  1  0.64558678  0.12934981  0.14027943  1
  O  O59  1  0.49379793  0.36231460  0.13686035  1
  O  O60  1  0.46212707  0.30195394  0.02524429  1
  O  O61  1  0.83291136  0.52935337  0.03117115  1
  O  O62  1  0.69307158  0.15908245  0.02820649  1
  O  O63  1  0.46212707  0.16017213  0.52524429  1
  O  O64  1  0.69307158  0.53398813  0.52820649  1
  O  O65  1  0.83291136  0.30355699  0.53117115  1
  O  O66  1  0.54337768  0.68628852  0.97699099  1
  O  O67  1  0.16046393  0.46481633  0.97019435  1
  O  O68  1  0.31225278  0.84956998  0.97361343  1
  O  O69  1  0.54337768  0.85709016  0.47699099  1
  O  O70  1  0.31225278  0.46268381  0.47361343  1
  O  O71  1  0.16046393  0.69564860  0.47019435  1
  O  O72  1  0.12879307  0.63528794  0.35857829  1
  O  O73  1  0.49957736  0.86268737  0.36450515  1
  O  O74  1  0.35973758  0.49241645  0.36154049  1
  O  O75  1  0.12879307  0.49350613  0.85857829  1
  O  O76  1  0.35973758  0.86732213  0.86154049  1
  O  O77  1  0.49957736  0.63689099  0.86450515  1
  O  O78  1  0.01854584  0.82351470  0.40888628  1
  O  O79  1  0.80793850  0.98425172  0.41075702  1
  O  O80  1  0.18276834  0.18828071  0.41090838  1
  O  O81  1  0.01854584  0.19503114  0.90888628  1
  O  O82  1  0.18276834  0.99448763  0.91090838  1
  O  O83  1  0.80793850  0.82368678  0.91075702  1
  O  O84  1  0.96547444  0.15836248  0.58936861  1
  O  O85  1  0.19392354  0.03265089  0.59035694  1
  O  O86  1  0.83885902  0.81006587  0.58931367  1
  O  O87  1  0.96547444  0.80711196  0.08936861  1
  O  O88  1  0.83885902  0.02879315  0.08931367  1
  O  O89  1  0.19392354  0.16127265  0.09035694  1
  O  O90  1  0.68521284  0.15684770  0.74221928  1
  O  O91  1  0.47460550  0.31758472  0.74409002  1
  O  O92  1  0.84943534  0.52161371  0.74424138  1
  O  O93  1  0.68521284  0.52836414  0.24221928  1
  O  O94  1  0.84943534  0.32782063  0.24424138  1
  O  O95  1  0.47460550  0.15701978  0.24409002  1
  O  O96  1  0.63214144  0.49169548  0.92270161  1
  O  O97  1  0.86059054  0.36598389  0.92368994  1
  O  O98  1  0.50552602  0.14339887  0.92264667  1
  O  O99  1  0.63214144  0.14044496  0.42270161  1
  O  O100  1  0.50552602  0.36212615  0.42264667  1
  O  O101  1  0.86059054  0.49460565  0.42368994  1
  O  O102  1  0.35187884  0.49018170  0.07555328  1
  O  O103  1  0.14127150  0.65091872  0.07742402  1
  O  O104  1  0.51610134  0.85494771  0.07757538  1
  O  O105  1  0.35187884  0.86169814  0.57555328  1
  O  O106  1  0.51610134  0.66115463  0.57757538  1
  O  O107  1  0.14127150  0.49035378  0.57742402  1
  O  O108  1  0.29880744  0.82502948  0.25603561  1
  O  O109  1  0.52725654  0.69931789  0.25702394  1
  O  O110  1  0.17219202  0.47673287  0.25598067  1
  O  O111  1  0.29880744  0.47377896  0.75603561  1
  O  O112  1  0.17219202  0.69546015  0.75598067  1
  O  O113  1  0.52725654  0.82793965  0.75702394  1
