# generated using pymatgen
data_Ba2NdMgSbO6
_symmetry_space_group_name_H-M   'P 1'
_cell_length_a   7.08861242
_cell_length_b   6.74048965
_cell_length_c   6.47056363
_cell_angle_alpha   58.96011841
_cell_angle_beta   57.02963776
_cell_angle_gamma   53.83074060
_symmetry_Int_Tables_number   1
_chemical_formula_structural   Ba2NdMgSbO6
_chemical_formula_sum   'Ba2 Nd1 Mg1 Sb1 O6'
_cell_volume   200.57268947
_cell_formula_units_Z   1
loop_
 _symmetry_equiv_pos_site_id
 _symmetry_equiv_pos_as_xyz
  1  'x, y, z'
loop_
 _atom_site_type_symbol
 _atom_site_label
 _atom_site_symmetry_multiplicity
 _atom_site_fract_x
 _atom_site_fract_y
 _atom_site_fract_z
 _atom_site_occupancy
  Ba  Ba0  1  0.69539158  0.69788181  0.73151049  1
  Ba  Ba1  1  0.30460842  0.30211819  0.26848951  1
  Nd  Nd2  1  0.00000000  -0.00000000  -0.00000000  1
  Mg  Mg3  1  0.00000000  -0.00000000  0.50000000  1
  Sb  Sb4  1  0.50000000  0.50000000  0.50000000  1
  O  O5  1  0.72710778  0.22276302  0.77144895  1
  O  O6  1  0.26482006  0.85189763  0.63502984  1
  O  O7  1  0.85136514  0.66059050  0.27269967  1
  O  O8  1  0.27289222  0.77723698  0.22855105  1
  O  O9  1  0.14863486  0.33940950  0.72730033  1
  O  O10  1  0.73517994  0.14810237  0.36497016  1
