# generated using pymatgen
data_Mg14Ge5O24
_symmetry_space_group_name_H-M   'P 1'
_cell_length_a   5.93744648
_cell_length_b   10.21802955
_cell_length_c   14.51186418
_cell_angle_alpha   90.00000000
_cell_angle_beta   90.00000000
_cell_angle_gamma   90.00000000
_symmetry_Int_Tables_number   1
_chemical_formula_structural   Mg14Ge5O24
_chemical_formula_sum   'Mg28 Ge10 O48'
_cell_volume   880.42033995
_cell_formula_units_Z   2
loop_
 _symmetry_equiv_pos_site_id
 _symmetry_equiv_pos_as_xyz
  1  'x, y, z'
loop_
 _atom_site_type_symbol
 _atom_site_label
 _atom_site_symmetry_multiplicity
 _atom_site_fract_x
 _atom_site_fract_y
 _atom_site_fract_z
 _atom_site_occupancy
  Mg  Mg0  1  0.50000000  0.50000000  0.00000000  1
  Mg  Mg1  1  0.50000000  0.00000000  0.50000000  1
  Mg  Mg2  1  0.50000000  0.00000000  0.00000000  1
  Mg  Mg3  1  0.50000000  0.50000000  0.50000000  1
  Mg  Mg4  1  0.00000000  0.82216075  0.82482082  1
  Mg  Mg5  1  0.00000000  0.17783925  0.17517918  1
  Mg  Mg6  1  0.00000000  0.32216075  0.67517918  1
  Mg  Mg7  1  0.00000000  0.67783925  0.32482082  1
  Mg  Mg8  1  0.50000000  0.85332267  0.67408706  1
  Mg  Mg9  1  0.50000000  0.14667733  0.32591294  1
  Mg  Mg10  1  0.50000000  0.35332267  0.82591294  1
  Mg  Mg11  1  0.50000000  0.64667733  0.17408706  1
  Mg  Mg12  1  0.75732937  0.74876435  0.00444302  1
  Mg  Mg13  1  0.75732937  0.25123565  0.99555698  1
  Mg  Mg14  1  0.24267063  0.24876435  0.49555698  1
  Mg  Mg15  1  0.24267063  0.75123565  0.50444302  1
  Mg  Mg16  1  0.24267063  0.25123565  0.99555698  1
  Mg  Mg17  1  0.24267063  0.74876435  0.00444302  1
  Mg  Mg18  1  0.75732937  0.75123565  0.50444302  1
  Mg  Mg19  1  0.75732937  0.24876435  0.49555698  1
  Mg  Mg20  1  0.75425524  0.58092040  0.66827776  1
  Mg  Mg21  1  0.75425524  0.41907960  0.33172224  1
  Mg  Mg22  1  0.24574476  0.08092040  0.83172224  1
  Mg  Mg23  1  0.24574476  0.91907960  0.16827776  1
  Mg  Mg24  1  0.24574476  0.41907960  0.33172224  1
  Mg  Mg25  1  0.24574476  0.58092040  0.66827776  1
  Mg  Mg26  1  0.75425524  0.91907960  0.16827776  1
  Mg  Mg27  1  0.75425524  0.08092040  0.83172224  1
  Ge  Ge28  1  0.00000000  0.00000000  0.00000000  1
  Ge  Ge29  1  0.00000000  0.50000000  0.50000000  1
  Ge  Ge30  1  0.00000000  0.49861187  0.87437891  1
  Ge  Ge31  1  0.00000000  0.50138813  0.12562109  1
  Ge  Ge32  1  0.00000000  0.99861187  0.62562109  1
  Ge  Ge33  1  0.00000000  0.00138813  0.37437891  1
  Ge  Ge34  1  0.50000000  0.67453796  0.81353081  1
  Ge  Ge35  1  0.50000000  0.32546204  0.18646919  1
  Ge  Ge36  1  0.50000000  0.17453796  0.68646919  1
  Ge  Ge37  1  0.50000000  0.82546204  0.31353081  1
  O  O38  1  0.00000000  0.66306492  0.91640016  1
  O  O39  1  0.00000000  0.33693508  0.08359984  1
  O  O40  1  0.00000000  0.16306492  0.58359984  1
  O  O41  1  0.00000000  0.83693508  0.41640016  1
  O  O42  1  0.00000000  0.65163936  0.57837429  1
  O  O43  1  0.00000000  0.34836064  0.42162571  1
  O  O44  1  0.00000000  0.15163936  0.92162571  1
  O  O45  1  0.00000000  0.84836064  0.07837429  1
  O  O46  1  0.00000000  0.99678445  0.74837663  1
  O  O47  1  0.00000000  0.00321555  0.25162337  1
  O  O48  1  0.00000000  0.49678445  0.75162337  1
  O  O49  1  0.00000000  0.50321555  0.24837663  1
  O  O50  1  0.50000000  0.67019044  0.93238474  1
  O  O51  1  0.50000000  0.32980956  0.06761526  1
  O  O52  1  0.50000000  0.17019044  0.56761526  1
  O  O53  1  0.50000000  0.82980956  0.43238474  1
  O  O54  1  0.50000000  0.66822735  0.58602794  1
  O  O55  1  0.50000000  0.33177265  0.41397206  1
  O  O56  1  0.50000000  0.16822735  0.91397206  1
  O  O57  1  0.50000000  0.83177265  0.08602794  1
  O  O58  1  0.50000000  0.02151382  0.74422764  1
  O  O59  1  0.50000000  0.97848618  0.25577236  1
  O  O60  1  0.50000000  0.52151382  0.75577236  1
  O  O61  1  0.50000000  0.47848618  0.24422764  1
  O  O62  1  0.77527615  0.92215088  0.92424623  1
  O  O63  1  0.77527615  0.07784912  0.07575377  1
  O  O64  1  0.22472385  0.42215088  0.57575377  1
  O  O65  1  0.22472385  0.57784912  0.42424623  1
  O  O66  1  0.22472385  0.07784912  0.07575377  1
  O  O67  1  0.22472385  0.92215088  0.92424623  1
  O  O68  1  0.77527615  0.57784912  0.42424623  1
  O  O69  1  0.77527615  0.42215088  0.57575377  1
  O  O70  1  0.75129857  0.91879736  0.58566930  1
  O  O71  1  0.75129857  0.08120264  0.41433070  1
  O  O72  1  0.24870143  0.41879736  0.91433070  1
  O  O73  1  0.24870143  0.58120264  0.08566930  1
  O  O74  1  0.24870143  0.08120264  0.41433070  1
  O  O75  1  0.24870143  0.91879736  0.58566930  1
  O  O76  1  0.75129857  0.58120264  0.08566930  1
  O  O77  1  0.75129857  0.41879736  0.91433070  1
  O  O78  1  0.72864913  0.74873400  0.75646193  1
  O  O79  1  0.72864913  0.25126600  0.24353807  1
  O  O80  1  0.27135087  0.24873400  0.74353807  1
  O  O81  1  0.27135087  0.75126600  0.25646193  1
  O  O82  1  0.27135087  0.25126600  0.24353807  1
  O  O83  1  0.27135087  0.74873400  0.75646193  1
  O  O84  1  0.72864913  0.75126600  0.25646193  1
  O  O85  1  0.72864913  0.24873400  0.74353807  1
