# generated using pymatgen
data_Na2TaGa3Si2(SO6)4
_symmetry_space_group_name_H-M   'P 1'
_cell_length_a   8.65527136
_cell_length_b   8.63435903
_cell_length_c   22.45915195
_cell_angle_alpha   90.13165113
_cell_angle_beta   89.25008900
_cell_angle_gamma   119.96262708
_symmetry_Int_Tables_number   1
_chemical_formula_structural   Na2TaGa3Si2(SO6)4
_chemical_formula_sum   'Na6 Ta3 Ga9 Si6 S12 O72'
_cell_volume   1453.97121028
_cell_formula_units_Z   3
loop_
 _symmetry_equiv_pos_site_id
 _symmetry_equiv_pos_as_xyz
  1  'x, y, z'
loop_
 _atom_site_type_symbol
 _atom_site_label
 _atom_site_symmetry_multiplicity
 _atom_site_fract_x
 _atom_site_fract_y
 _atom_site_fract_z
 _atom_site_occupancy
  Na  Na0  1  0.00094921  0.99487099  0.49820345  1
  Na  Na1  1  0.99986178  0.98711664  0.99858125  1
  Na  Na2  1  0.65245354  0.32933559  0.83226729  1
  Na  Na3  1  0.67857006  0.33662379  0.33184029  1
  Na  Na4  1  0.32289873  0.66021360  0.15965463  1
  Na  Na5  1  0.33062556  0.65854019  0.66638050  1
  Ta  Ta6  1  0.66654870  0.34615290  0.97854818  1
  Ta  Ta7  1  0.31406734  0.65398103  0.31069153  1
  Ta  Ta8  1  0.34291696  0.66482672  0.81455195  1
  Ga  Ga9  1  0.99511993  0.99436991  0.35042814  1
  Ga  Ga10  1  0.01769576  0.99844465  0.85656003  1
  Ga  Ga11  1  0.00754370  0.01008521  0.65241024  1
  Ga  Ga12  1  0.00059885  0.00134303  0.14444624  1
  Ga  Ga13  1  0.65426406  0.33247660  0.68703815  1
  Ga  Ga14  1  0.69612765  0.33880997  0.18421232  1
  Ga  Ga15  1  0.67882256  0.34227767  0.48054295  1
  Ga  Ga16  1  0.33349564  0.68358031  0.01798767  1
  Ga  Ga17  1  0.32343194  0.67199312  0.51561154  1
  Si  Si18  1  0.98492298  0.26576202  0.24898252  1
  Si  Si19  1  0.28587541  0.28155060  0.74878660  1
  Si  Si20  1  0.96973725  0.63444226  0.08521819  1
  Si  Si21  1  0.62907568  0.68256846  0.91992114  1
  Si  Si22  1  0.33098850  0.95660939  0.91804026  1
  Si  Si23  1  0.03467694  0.67226623  0.41985849  1
  S  S24  1  0.29316454  0.00779951  0.24926214  1
  S  S25  1  0.71168143  0.70778972  0.25010991  1
  S  S26  1  0.99610310  0.70773738  0.74794946  1
  S  S27  1  0.71558225  0.00489756  0.74864088  1
  S  S28  1  0.95420222  0.33106718  0.58395795  1
  S  S29  1  0.37908152  0.04435436  0.58227013  1
  S  S30  1  0.66643199  0.62758568  0.58311294  1
  S  S31  1  0.66676974  0.04333253  0.08462157  1
  S  S32  1  0.37814246  0.33497024  0.08651451  1
  S  S33  1  0.04599813  0.37495962  0.91806057  1
  S  S34  1  0.62195706  0.95593955  0.41835138  1
  S  S35  1  0.33388586  0.37613801  0.41895357  1
  O  O36  1  0.21489265  0.03034037  0.30469784  1
  O  O37  1  0.81800836  0.78206727  0.30430278  1
  O  O38  1  0.96840436  0.16305191  0.31092920  1
  O  O39  1  0.19381224  0.16461044  0.80730171  1
  O  O40  1  0.96066963  0.78120400  0.80166331  1
  O  O41  1  0.81673172  0.02861068  0.80208290  1
  O  O42  1  0.78562357  0.96359289  0.69362516  1
  O  O43  1  0.17075054  0.20972965  0.68824029  1
  O  O44  1  0.02836030  0.81696934  0.69310147  1
  O  O45  1  0.78519182  0.81850428  0.19679031  1
  O  O46  1  0.03566064  0.19232911  0.19047787  1
  O  O47  1  0.18106735  0.96158002  0.19691166  1
  O  O48  1  0.87221212  0.36231975  0.63779223  1
  O  O49  1  0.48837855  0.12377161  0.63591909  1
  O  O50  1  0.63476211  0.51560545  0.63683936  1
  O  O51  1  0.87639426  0.51019975  0.14269139  1
  O  O52  1  0.63104998  0.12009215  0.13875671  1
  O  O53  1  0.48669522  0.35702944  0.13894556  1
  O  O54  1  0.46240095  0.30485377  0.03047689  1
  O  O55  1  0.83665084  0.53185496  0.02687753  1
  O  O56  1  0.69171709  0.15477353  0.03066995  1
  O  O57  1  0.46133590  0.15688979  0.52806034  1
  O  O58  1  0.69849886  0.54758851  0.52895144  1
  O  O59  1  0.84577494  0.30242369  0.52991025  1
  O  O60  1  0.52947920  0.69478507  0.97807722  1
  O  O61  1  0.15248030  0.45321573  0.97079592  1
  O  O62  1  0.29417060  0.83596220  0.97522248  1
  O  O63  1  0.54360462  0.84348461  0.47266881  1
  O  O64  1  0.30652338  0.46025428  0.47255697  1
  O  O65  1  0.16217226  0.70656894  0.47594797  1
  O  O66  1  0.13554682  0.63790833  0.36067208  1
  O  O67  1  0.51233007  0.87144152  0.36453501  1
  O  O68  1  0.36662017  0.49171924  0.36420563  1
  O  O69  1  0.12442901  0.48994776  0.86280660  1
  O  O70  1  0.36227530  0.86365688  0.85722414  1
  O  O71  1  0.50019350  0.63123056  0.85939658  1
  O  O72  1  0.02056113  0.84939658  0.40690435  1
  O  O73  1  0.80052603  0.97668921  0.41224724  1
  O  O74  1  0.17359743  0.20177844  0.41171185  1
  O  O75  1  0.01991249  0.19809460  0.90922252  1
  O  O76  1  0.16264837  0.98361215  0.91203148  1
  O  O77  1  0.81841251  0.85161754  0.90522408  1
  O  O78  1  0.96922655  0.16704381  0.58887778  1
  O  O79  1  0.19733548  0.02168470  0.58803315  1
  O  O80  1  0.82874299  0.80736765  0.59024444  1
  O  O81  1  0.97884370  0.82761938  0.09131992  1
  O  O82  1  0.83147851  0.03326242  0.08856048  1
  O  O83  1  0.20166694  0.17122733  0.08818071  1
  O  O84  1  0.69523125  0.16407198  0.74051794  1
  O  O85  1  0.48837632  0.31162574  0.74251985  1
  O  O86  1  0.84037191  0.52510143  0.74048883  1
  O  O87  1  0.67918071  0.52429498  0.24420876  1
  O  O88  1  0.81942634  0.30342377  0.24597560  1
  O  O89  1  0.47133697  0.16449812  0.24208350  1
  O  O90  1  0.64464687  0.49857596  0.92354724  1
  O  O91  1  0.86704754  0.36210290  0.92271472  1
  O  O92  1  0.51675424  0.15022898  0.92493757  1
  O  O93  1  0.63190513  0.13203945  0.42455345  1
  O  O94  1  0.49505689  0.35929022  0.42371275  1
  O  O95  1  0.84307297  0.48788359  0.42394329  1
  O  O96  1  0.36341713  0.49465939  0.07834398  1
  O  O97  1  0.15924157  0.64074706  0.07674166  1
  O  O98  1  0.50977881  0.86410204  0.07987115  1
  O  O99  1  0.36454221  0.86438913  0.57716886  1
  O  O100  1  0.50411140  0.64470849  0.57585576  1
  O  O101  1  0.13643166  0.49206250  0.57768621  1
  O  O102  1  0.31830113  0.84353010  0.25813071  1
  O  O103  1  0.53144887  0.69508655  0.25980862  1
  O  O104  1  0.17145052  0.47466710  0.25824331  1
  O  O105  1  0.30725432  0.48468073  0.75583356  1
  O  O106  1  0.15952107  0.69197027  0.75405420  1
  O  O107  1  0.53000376  0.84188604  0.75380731  1
