# generated using pymatgen
data_Na2Y4Zr4Si3(S3O16)3
_symmetry_space_group_name_H-M   'P 1'
_cell_length_a   18.24095442
_cell_length_b   9.10975900
_cell_length_c   23.96189032
_cell_angle_alpha   89.97771462
_cell_angle_beta   89.96083345
_cell_angle_gamma   119.99730381
_symmetry_Int_Tables_number   1
_chemical_formula_structural   Na2Y4Zr4Si3(S3O16)3
_chemical_formula_sum   'Na6 Y12 Zr12 Si9 S27 O144'
_cell_volume   3448.40047542
_cell_formula_units_Z   3
loop_
 _symmetry_equiv_pos_site_id
 _symmetry_equiv_pos_as_xyz
  1  'x, y, z'
loop_
 _atom_site_type_symbol
 _atom_site_label
 _atom_site_symmetry_multiplicity
 _atom_site_fract_x
 _atom_site_fract_y
 _atom_site_fract_z
 _atom_site_occupancy
  Na  Na0  1  0.99206367  0.02115379  0.50061999  1
  Na  Na1  1  0.49369459  0.96691152  0.00776753  1
  Na  Na2  1  0.32003375  0.30932868  0.84360295  1
  Na  Na3  1  0.82174073  0.32755109  0.82774171  1
  Na  Na4  1  0.32595016  0.31792750  0.32517200  1
  Na  Na5  1  0.80845818  0.31582735  0.33586751  1
  Y  Y6  1  0.00568501  0.00232111  0.35031151  1
  Y  Y7  1  0.50670639  0.00991267  0.85195684  1
  Y  Y8  1  0.99909384  0.00731450  0.64664295  1
  Y  Y9  1  0.50312070  0.98943460  0.14928072  1
  Y  Y10  1  0.32751252  0.33109740  0.98263316  1
  Y  Y11  1  0.83940642  0.34410252  0.98274183  1
  Y  Y12  1  0.33916735  0.33207142  0.48035599  1
  Y  Y13  1  0.82905560  0.32475229  0.48061193  1
  Y  Y14  1  0.16373116  0.67334474  0.30521113  1
  Y  Y15  1  0.67009143  0.66633078  0.30824535  1
  Y  Y16  1  0.17046883  0.67705882  0.81113206  1
  Y  Y17  1  0.66317276  0.65430383  0.80578561  1
  Zr  Zr18  1  0.51173013  0.01581100  0.35496345  1
  Zr  Zr19  1  0.00389119  0.99643194  0.85811083  1
  Zr  Zr20  1  0.50693300  0.01790724  0.64588424  1
  Zr  Zr21  1  0.00615846  0.99519042  0.14652652  1
  Zr  Zr22  1  0.33644811  0.33396065  0.68106333  1
  Zr  Zr23  1  0.83657714  0.33617468  0.68226866  1
  Zr  Zr24  1  0.33803519  0.34022560  0.18347250  1
  Zr  Zr25  1  0.83114017  0.32909013  0.18455855  1
  Zr  Zr26  1  0.16101937  0.67784128  0.02214519  1
  Zr  Zr27  1  0.66392848  0.66905379  0.02533168  1
  Zr  Zr28  1  0.16546846  0.66232328  0.52299433  1
  Zr  Zr29  1  0.66069886  0.64641765  0.51865405  1
  Si  Si30  1  0.15204600  0.01868834  0.24904347  1
  Si  Si31  1  0.65246617  0.01565548  0.25103546  1
  Si  Si32  1  0.65233605  0.28630463  0.74913828  1
  Si  Si33  1  0.48091461  0.33551246  0.58295251  1
  Si  Si34  1  0.98046245  0.33353217  0.58063973  1
  Si  Si35  1  0.47840337  0.63032144  0.07945592  1
  Si  Si36  1  0.97812486  0.62322589  0.08473367  1
  Si  Si37  1  0.17007694  0.96122879  0.91425292  1
  Si  Si38  1  0.66926312  0.37690942  0.41369391  1
  S  S39  1  0.35755855  0.70080191  0.25279252  1
  S  S40  1  0.85890327  0.70688261  0.24622581  1
  S  S41  1  0.99316342  0.28206912  0.24757452  1
  S  S42  1  0.49216357  0.28155513  0.25067738  1
  S  S43  1  0.14881497  0.28214404  0.75255712  1
  S  S44  1  0.99407361  0.70475934  0.75145625  1
  S  S45  1  0.49045692  0.70118686  0.74770666  1
  S  S46  1  0.35728025  0.00978382  0.74625897  1
  S  S47  1  0.85908808  0.01562453  0.75293405  1
  S  S48  1  0.18891006  0.03943569  0.58247048  1
  S  S49  1  0.68740956  0.03618898  0.58547098  1
  S  S50  1  0.33263706  0.62449585  0.58509288  1
  S  S51  1  0.83123228  0.62426207  0.58276140  1
  S  S52  1  0.33175373  0.03910544  0.08290810  1
  S  S53  1  0.83309923  0.03990096  0.08497905  1
  S  S54  1  0.18675753  0.33927639  0.08531224  1
  S  S55  1  0.68777779  0.33801683  0.08118378  1
  S  S56  1  0.31217670  0.67081727  0.91775792  1
  S  S57  1  0.81159109  0.66918065  0.91440537  1
  S  S58  1  0.02228700  0.37257254  0.91455061  1
  S  S59  1  0.52425151  0.37945920  0.91927465  1
  S  S60  1  0.66615006  0.95192512  0.91859463  1
  S  S61  1  0.31052539  0.95016157  0.41533812  1
  S  S62  1  0.81347893  0.95226458  0.41902790  1
  S  S63  1  0.16497725  0.37845052  0.41924666  1
  S  S64  1  0.02500876  0.67118800  0.41945492  1
  S  S65  1  0.52244795  0.67155532  0.41544837  1
  O  O66  1  0.11246401  0.05289162  0.30555622  1
  O  O67  1  0.60205682  0.04202945  0.30594174  1
  O  O68  1  0.41148726  0.78587067  0.30183647  1
  O  O69  1  0.90887552  0.77947232  0.29805195  1
  O  O70  1  0.47844903  0.17073086  0.30027762  1
  O  O71  1  0.97763647  0.17858945  0.29887627  1
  O  O72  1  0.10433268  0.17132159  0.80200894  1
  O  O73  1  0.61176947  0.17094343  0.80520787  1
  O  O74  1  0.47451977  0.77264624  0.79884439  1
  O  O75  1  0.98288509  0.79298058  0.80102973  1
  O  O76  1  0.40749256  0.04175946  0.79794219  1
  O  O77  1  0.91383140  0.03839499  0.80189742  1
  O  O78  1  0.40191962  0.99203659  0.69761734  1
  O  O79  1  0.89561278  0.98735776  0.70188610  1
  O  O80  1  0.09909740  0.20540667  0.70163734  1
  O  O81  1  0.59075496  0.17993637  0.69596865  1
  O  O82  1  0.00566532  0.80458836  0.70089513  1
  O  O83  1  0.49901567  0.80429484  0.69829962  1
  O  O84  1  0.39160337  0.80049014  0.20142408  1
  O  O85  1  0.90370985  0.81695804  0.19783655  1
  O  O86  1  0.00135545  0.19493643  0.19828758  1
  O  O87  1  0.50004598  0.20343445  0.19931967  1
  O  O88  1  0.09079975  0.00193198  0.19594512  1
  O  O89  1  0.59855431  0.99530010  0.19563437  1
  O  O90  1  0.42985835  0.36254396  0.63734618  1
  O  O91  1  0.93359855  0.35702268  0.63728979  1
  O  O92  1  0.24169949  0.12474613  0.63310109  1
  O  O93  1  0.74397257  0.12545099  0.63456786  1
  O  O94  1  0.31248838  0.50471859  0.63401902  1
  O  O95  1  0.81904245  0.51633161  0.63335475  1
  O  O96  1  0.43102592  0.51369106  0.13564145  1
  O  O97  1  0.92718800  0.49403651  0.13663779  1
  O  O98  1  0.31911309  0.12318238  0.13267989  1
  O  O99  1  0.81219327  0.11620816  0.13316794  1
  O  O100  1  0.24370001  0.36575216  0.13360962  1
  O  O101  1  0.73917067  0.35840295  0.13157110  1
  O  O102  1  0.21745277  0.29081366  0.03563171  1
  O  O103  1  0.72490252  0.30347218  0.03136801  1
  O  O104  1  0.42433489  0.53761564  0.02487570  1
  O  O105  1  0.92375809  0.54718489  0.02831441  1
  O  O106  1  0.34221558  0.13918009  0.03230085  1
  O  O107  1  0.84960255  0.14502513  0.03458866  1
  O  O108  1  0.22411778  0.14866910  0.53308892  1
  O  O109  1  0.71825788  0.14652525  0.53637393  1
  O  O110  1  0.34945059  0.55198943  0.53543034  1
  O  O111  1  0.84473845  0.54750624  0.53309449  1
  O  O112  1  0.42110976  0.29908714  0.53005684  1
  O  O113  1  0.92258250  0.30471659  0.52726360  1
  O  O114  1  0.26559242  0.67649704  0.96773692  1
  O  O115  1  0.77418602  0.69156316  0.96593948  1
  O  O116  1  0.07234104  0.44975932  0.96576918  1
  O  O117  1  0.57785197  0.47255208  0.96870254  1
  O  O118  1  0.15920162  0.84488559  0.97065364  1
  O  O119  1  0.66393479  0.85191104  0.96902765  1
  O  O120  1  0.26930565  0.85274769  0.46739855  1
  O  O121  1  0.76644897  0.85489162  0.46984145  1
  O  O122  1  0.16249809  0.47431092  0.47000877  1
  O  O123  1  0.65991595  0.47467850  0.47130988  1
  O  O124  1  0.07867989  0.68491530  0.46931298  1
  O  O125  1  0.57253824  0.69116582  0.46738480  1
  O  O126  1  0.06519786  0.65659652  0.36819343  1
  O  O127  1  0.56173703  0.64491481  0.36650209  1
  O  O128  1  0.25623324  0.86653507  0.36673417  1
  O  O129  1  0.76764248  0.87152888  0.36776141  1
  O  O130  1  0.17053944  0.47199469  0.36840202  1
  O  O131  1  0.68085293  0.49038980  0.36029841  1
  O  O132  1  0.06238392  0.47680752  0.86490421  1
  O  O133  1  0.56472251  0.47439421  0.86770977  1
  O  O134  1  0.17925243  0.86961503  0.85958376  1
  O  O135  1  0.67172056  0.86944593  0.86753943  1
  O  O136  1  0.26523116  0.65708341  0.86578444  1
  O  O137  1  0.75892113  0.64790165  0.86523911  1
  O  O138  1  0.01943051  0.82901972  0.41899319  1
  O  O139  1  0.51438132  0.82551147  0.40975610  1
  O  O140  1  0.39393275  0.96322089  0.40874062  1
  O  O141  1  0.89851775  0.96455928  0.41938786  1
  O  O142  1  0.08552720  0.21020683  0.42064507  1
  O  O143  1  0.57877475  0.19331770  0.40790134  1
  O  O144  1  0.01494535  0.20181317  0.90658262  1
  O  O145  1  0.51819042  0.20971795  0.91810424  1
  O  O146  1  0.08100535  0.97000428  0.90485820  1
  O  O147  1  0.58650230  0.96084853  0.91941714  1
  O  O148  1  0.39678023  0.82872957  0.91624463  1
  O  O149  1  0.89701019  0.82503574  0.90601908  1
  O  O150  1  0.49224538  0.17409453  0.59848038  1
  O  O151  1  0.99841561  0.17610926  0.58774569  1
  O  O152  1  0.10182490  0.00522843  0.59137390  1
  O  O153  1  0.60017198  0.00324852  0.59769049  1
  O  O154  1  0.40609229  0.78998774  0.59867212  1
  O  O155  1  0.90736204  0.79367187  0.59078000  1
  O  O156  1  0.49377704  0.82087182  0.08323607  1
  O  O157  1  0.99228482  0.81135192  0.09810495  1
  O  O158  1  0.40693289  0.02138774  0.08960264  1
  O  O159  1  0.90635406  0.02027460  0.09743559  1
  O  O160  1  0.09969640  0.19843838  0.09698446  1
  O  O161  1  0.59977164  0.20056185  0.08710594  1
  O  O162  1  0.34509273  0.16089574  0.73810091  1
  O  O163  1  0.85374236  0.17438081  0.74681152  1
  O  O164  1  0.23350973  0.29458896  0.74780816  1
  O  O165  1  0.74654499  0.30795828  0.73777091  1
  O  O166  1  0.41331174  0.52640276  0.74010557  1
  O  O167  1  0.91471912  0.53564096  0.74720365  1
  O  O168  1  0.35260929  0.53087383  0.24630306  1
  O  O169  1  0.85087524  0.53652664  0.23855141  1
  O  O170  1  0.41352361  0.29771378  0.24654518  1
  O  O171  1  0.91790900  0.30500047  0.24025749  1
  O  O172  1  0.24574374  0.18556571  0.23684998  1
  O  O173  1  0.74617621  0.19331474  0.24477625  1
  O  O174  1  0.32262807  0.51938681  0.91926446  1
  O  O175  1  0.82352223  0.51875806  0.91761115  1
  O  O176  1  0.43927208  0.35991577  0.92318288  1
  O  O177  1  0.93489204  0.34498167  0.91931299  1
  O  O178  1  0.24872051  0.15178353  0.91757304  1
  O  O179  1  0.74114337  0.12442029  0.92245865  1
  O  O180  1  0.31986675  0.12333094  0.41932266  1
  O  O181  1  0.82425569  0.12490838  0.42107831  1
  O  O182  1  0.24005167  0.35712085  0.42402149  1
  O  O183  1  0.74814312  0.34359493  0.41925244  1
  O  O184  1  0.43516383  0.52223199  0.42133635  1
  O  O185  1  0.94042941  0.52061032  0.42424155  1
  O  O186  1  0.18338482  0.49559915  0.07517292  1
  O  O187  1  0.68825968  0.50166787  0.07244831  1
  O  O188  1  0.07118733  0.63793104  0.07355566  1
  O  O189  1  0.57355905  0.64324850  0.07172807  1
  O  O190  1  0.25501356  0.86727432  0.07680756  1
  O  O191  1  0.75750786  0.86855443  0.07497492  1
  O  O192  1  0.18843702  0.87722938  0.57495525  1
  O  O193  1  0.68399924  0.87325188  0.57703259  1
  O  O194  1  0.25689358  0.64316869  0.57650214  1
  O  O195  1  0.75594715  0.64444807  0.57661036  1
  O  O196  1  0.07469315  0.50947559  0.57118786  1
  O  O197  1  0.57220422  0.50633404  0.57341903  1
  O  O198  1  0.15928309  0.85011681  0.25411732  1
  O  O199  1  0.66655645  0.85975286  0.26279135  1
  O  O200  1  0.27076396  0.66841618  0.26152159  1
  O  O201  1  0.77496644  0.68879001  0.24921492  1
  O  O202  1  0.06977100  0.44859030  0.25377714  1
  O  O203  1  0.56550427  0.45040549  0.25782692  1
  O  O204  1  0.15906767  0.45082820  0.76033180  1
  O  O205  1  0.65953084  0.46937971  0.75445407  1
  O  O206  1  0.06674932  0.67966960  0.75920107  1
  O  O207  1  0.56563760  0.68306720  0.75367987  1
  O  O208  1  0.27348713  0.85701677  0.74990070  1
  O  O209  1  0.77346613  0.87112218  0.76112258  1
