# generated using pymatgen
data_MgMnZn2WO6
_symmetry_space_group_name_H-M   'P 1'
_cell_length_a   5.42679604
_cell_length_b   5.29609102
_cell_length_c   9.05308060
_cell_angle_alpha   107.76893780
_cell_angle_beta   133.59048649
_cell_angle_gamma   103.88869837
_symmetry_Int_Tables_number   1
_chemical_formula_structural   MgMnZn2WO6
_chemical_formula_sum   'Mg1 Mn1 Zn2 W1 O6'
_cell_volume   135.90476024
_cell_formula_units_Z   1
loop_
 _symmetry_equiv_pos_site_id
 _symmetry_equiv_pos_as_xyz
  1  'x, y, z'
loop_
 _atom_site_type_symbol
 _atom_site_label
 _atom_site_symmetry_multiplicity
 _atom_site_fract_x
 _atom_site_fract_y
 _atom_site_fract_z
 _atom_site_occupancy
  Mg  Mg0  1  0.62017613  0.94636767  0.58667846  1
  Mn  Mn1  1  0.09643931  0.25099257  0.43590113  1
  Zn  Zn2  1  0.65141386  0.30036134  0.95994702  1
  Zn  Zn3  1  0.13809722  0.61823106  0.77319278  1
  W  W4  1  0.07036951  0.96721197  0.06389187  1
  O  O5  1  0.75860000  0.75214896  0.10088325  1
  O  O6  1  0.20816443  0.04791448  0.91109369  1
  O  O7  1  0.23753209  0.42155690  0.29147559  1
  O  O8  1  0.43930435  0.81413440  0.71134112  1
  O  O9  1  0.69090764  0.12296559  0.43243274  1
  O  O10  1  0.75590046  0.42764607  0.79254336  1
