# generated using pymatgen
data_Ba2NdMgNb(CuO4)2
_symmetry_space_group_name_H-M   'P 1'
_cell_length_a   4.41592918
_cell_length_b   4.41592918
_cell_length_c   11.78067854
_cell_angle_alpha   90.00000000
_cell_angle_beta   90.00000000
_cell_angle_gamma   85.96888773
_symmetry_Int_Tables_number   1
_chemical_formula_structural   Ba2NdMgNb(CuO4)2
_chemical_formula_sum   'Ba2 Nd1 Mg1 Nb1 Cu2 O8'
_cell_volume   229.15996123
_cell_formula_units_Z   1
loop_
 _symmetry_equiv_pos_site_id
 _symmetry_equiv_pos_as_xyz
  1  'x, y, z'
loop_
 _atom_site_type_symbol
 _atom_site_label
 _atom_site_symmetry_multiplicity
 _atom_site_fract_x
 _atom_site_fract_y
 _atom_site_fract_z
 _atom_site_occupancy
  Ba  Ba0  1  0.41299165  0.41299165  0.80566697  1
  Ba  Ba1  1  0.41299165  0.41299165  0.19433303  1
  Nd  Nd2  1  0.63875920  0.63875920  0.50000000  1
  Mg  Mg3  1  0.19664970  0.19664970  0.50000000  1
  Nb  Nb4  1  0.92687757  0.92687757  0.00000000  1
  Cu  Cu5  1  0.91483324  0.91483324  0.31429685  1
  Cu  Cu6  1  0.91483324  0.91483324  0.68570315  1
  O  O7  1  0.53983866  0.08284395  0.61447974  1
  O  O8  1  0.08284395  0.53983866  0.61447974  1
  O  O9  1  0.53983866  0.08284395  0.38552026  1
  O  O10  1  0.08284395  0.53983866  0.38552026  1
  O  O11  1  0.98154685  0.49985379  0.00000000  1
  O  O12  1  0.49985379  0.98154685  0.00000000  1
  O  O13  1  0.01098244  0.01098244  0.15918255  1
  O  O14  1  0.01098244  0.01098244  0.84081745  1
