# generated using pymatgen
data_Na5CaTi3SiP5O24
_symmetry_space_group_name_H-M   'P 1'
_cell_length_a   8.97079255
_cell_length_b   8.92121170
_cell_length_c   22.13900161
_cell_angle_alpha   89.83742240
_cell_angle_beta   90.25412152
_cell_angle_gamma   119.94581716
_symmetry_Int_Tables_number   1
_chemical_formula_structural   Na5CaTi3SiP5O24
_chemical_formula_sum   'Na15 Ca3 Ti9 Si3 P15 O72'
_cell_volume   1535.23830146
_cell_formula_units_Z   3
loop_
 _symmetry_equiv_pos_site_id
 _symmetry_equiv_pos_as_xyz
  1  'x, y, z'
loop_
 _atom_site_type_symbol
 _atom_site_label
 _atom_site_symmetry_multiplicity
 _atom_site_fract_x
 _atom_site_fract_y
 _atom_site_fract_z
 _atom_site_occupancy
  Na  Na0  1  0.64956421  0.01443993  0.24357215  1
  Na  Na1  1  0.36499255  0.35133602  0.24219436  1
  Na  Na2  1  0.98747793  0.64118401  0.24301932  1
  Na  Na3  1  0.62646603  0.62191914  0.74596595  1
  Na  Na4  1  0.99290053  0.37308889  0.74695899  1
  Na  Na5  1  0.38609570  0.00930227  0.74547408  1
  Na  Na6  1  0.66020082  0.97726052  0.58489579  1
  Na  Na7  1  0.33174484  0.29646468  0.92495412  1
  Na  Na8  1  0.32633372  0.03381853  0.41188823  1
  Na  Na9  1  0.99499151  0.99994272  0.49854349  1
  Na  Na10  1  0.98464426  0.98595195  0.00232629  1
  Na  Na11  1  0.67776184  0.33154584  0.84060482  1
  Na  Na12  1  0.68629684  0.35050620  0.33282881  1
  Na  Na13  1  0.33356977  0.66880389  0.15625437  1
  Na  Na14  1  0.31550111  0.65630419  0.66084661  1
  Ca  Ca15  1  0.99039129  0.99866845  0.35894888  1
  Ca  Ca16  1  0.66957451  0.33558033  0.67967295  1
  Ca  Ca17  1  0.66769924  0.33436134  0.16830884  1
  Ti  Ti18  1  0.99106069  0.99398192  0.86016890  1
  Ti  Ti19  1  0.01087711  0.00130901  0.64278869  1
  Ti  Ti20  1  0.99828821  0.00298455  0.14421479  1
  Ti  Ti21  1  0.68231287  0.34189676  0.98498884  1
  Ti  Ti22  1  0.66352362  0.33775787  0.48541994  1
  Ti  Ti23  1  0.33654878  0.66307904  0.01475158  1
  Ti  Ti24  1  0.32714955  0.66197761  0.51921191  1
  Ti  Ti25  1  0.33300983  0.66356067  0.31419483  1
  Ti  Ti26  1  0.32948111  0.66252039  0.81839593  1
  Si  Si27  1  0.36430925  0.02899729  0.58445441  1
  Si  Si28  1  0.62449897  0.66119666  0.91669488  1
  Si  Si29  1  0.03654509  0.37634348  0.91568780  1
  P  P30  1  0.29069697  0.99329330  0.25244337  1
  P  P31  1  0.70151686  0.70870204  0.24912521  1
  P  P32  1  0.00734486  0.29991708  0.24888293  1
  P  P33  1  0.27764435  0.28830391  0.75288111  1
  P  P34  1  0.01144427  0.72474626  0.75208290  1
  P  P35  1  0.71189042  0.99062929  0.75131716  1
  P  P36  1  0.97027137  0.33371024  0.58490962  1
  P  P37  1  0.66747303  0.63806571  0.58488233  1
  P  P38  1  0.97980191  0.64476432  0.08336858  1
  P  P39  1  0.66467553  0.02493558  0.08373391  1
  P  P40  1  0.35576991  0.33172582  0.08218234  1
  P  P41  1  0.33718758  0.95853167  0.91559898  1
  P  P42  1  0.61261210  0.96171482  0.42032615  1
  P  P43  1  0.35587572  0.39051161  0.41886375  1
  P  P44  1  0.03755812  0.64435095  0.41786892  1
  O  O45  1  0.22366664  0.01909307  0.31227236  1
  O  O46  1  0.80665951  0.77856698  0.30613367  1
  O  O47  1  0.97719464  0.19543416  0.30581342  1
  O  O48  1  0.18793856  0.18872511  0.81043511  1
  O  O49  1  0.00607771  0.82407272  0.80764074  1
  O  O50  1  0.82324505  0.99614639  0.80601835  1
  O  O51  1  0.79497849  0.97645851  0.69181995  1
  O  O52  1  0.16751204  0.18988390  0.69597032  1
  O  O53  1  0.01843873  0.82864844  0.69387430  1
  O  O54  1  0.79928989  0.83036113  0.19380428  1
  O  O55  1  0.02559244  0.19947703  0.19314083  1
  O  O56  1  0.16513910  0.97405549  0.19899041  1
  O  O57  1  0.92189280  0.37363841  0.64627828  1
  O  O58  1  0.47494009  0.08229536  0.64559960  1
  O  O59  1  0.63479490  0.54928351  0.64595210  1
  O  O60  1  0.92733364  0.55649744  0.14436757  1
  O  O61  1  0.63576499  0.07704100  0.14576245  1
  O  O62  1  0.44311348  0.36159151  0.14326890  1
  O  O63  1  0.45993932  0.31061748  0.02975988  1
  O  O64  1  0.83978086  0.52708178  0.03393618  1
  O  O65  1  0.68495234  0.16390679  0.03499389  1
  O  O66  1  0.47725173  0.16813889  0.52878008  1
  O  O67  1  0.68911166  0.52894031  0.53382724  1
  O  O68  1  0.83280921  0.30936081  0.53586204  1
  O  O69  1  0.52540904  0.69097089  0.97159424  1
  O  O70  1  0.17551081  0.47701529  0.96811617  1
  O  O71  1  0.30987780  0.83973326  0.96861374  1
  O  O72  1  0.50571331  0.85933043  0.47549140  1
  O  O73  1  0.35512882  0.49835827  0.47197583  1
  O  O74  1  0.15019907  0.64418386  0.47060693  1
  O  O75  1  0.13010314  0.63629777  0.35783710  1
  O  O76  1  0.50457832  0.86303133  0.36153042  1
  O  O77  1  0.35812968  0.48667569  0.35829380  1
  O  O78  1  0.12536046  0.49484463  0.85308730  1
  O  O79  1  0.35763943  0.87011863  0.85620526  1
  O  O80  1  0.49669354  0.63061843  0.85623328  1
  O  O81  1  0.03582508  0.81403949  0.42152424  1
  O  O82  1  0.78881334  0.97967324  0.42413805  1
  O  O83  1  0.20284909  0.20714174  0.42199991  1
  O  O84  1  0.02244821  0.18532426  0.90948568  1
  O  O85  1  0.17720144  0.98446049  0.90992670  1
  O  O86  1  0.81775841  0.82914437  0.90944471  1
  O  O87  1  0.96474230  0.15556390  0.58684508  1
  O  O88  1  0.17894699  0.02507525  0.58975862  1
  O  O89  1  0.83471459  0.81876133  0.58587650  1
  O  O90  1  0.98197112  0.82030781  0.08543244  1
  O  O91  1  0.83526953  0.01706098  0.08472242  1
  O  O92  1  0.17487743  0.16245637  0.08570694  1
  O  O93  1  0.69769822  0.15554030  0.75456270  1
  O  O94  1  0.45869503  0.31005725  0.75086991  1
  O  O95  1  0.85051727  0.54426156  0.75234689  1
  O  O96  1  0.66534302  0.52349679  0.24038471  1
  O  O97  1  0.85914230  0.33658516  0.24137589  1
  O  O98  1  0.47378359  0.14382056  0.24326148  1
  O  O99  1  0.63485655  0.48455496  0.92522885  1
  O  O100  1  0.84702254  0.35389340  0.92737156  1
  O  O101  1  0.49582941  0.14039714  0.92131773  1
  O  O102  1  0.62049790  0.14067700  0.42037886  1
  O  O103  1  0.52460209  0.37900230  0.42149600  1
  O  O104  1  0.85817290  0.48267148  0.42243751  1
  O  O105  1  0.32871098  0.48848306  0.07087069  1
  O  O106  1  0.15634971  0.67112435  0.06699167  1
  O  O107  1  0.51017904  0.84710882  0.06896494  1
  O  O108  1  0.32566605  0.83184731  0.57122515  1
  O  O109  1  0.51702872  0.67302723  0.57300857  1
  O  O110  1  0.15530497  0.47571717  0.57083048  1
  O  O111  1  0.29432188  0.81707015  0.25423302  1
  O  O112  1  0.52419502  0.70754414  0.25407337  1
  O  O113  1  0.18453466  0.47681850  0.25241905  1
  O  O114  1  0.29130896  0.47137389  0.75142270  1
  O  O115  1  0.17835907  0.71076436  0.75144991  1
  O  O116  1  0.52845957  0.82603939  0.75469883  1
