# generated using pymatgen
data_Na8TiZn3(PO4)6
_symmetry_space_group_name_H-M   'P 1'
_cell_length_a   9.02399876
_cell_length_b   9.02399845
_cell_length_c   21.90389096
_cell_angle_alpha   90.00000000
_cell_angle_beta   90.00000000
_cell_angle_gamma   120.00000114
_symmetry_Int_Tables_number   1
_chemical_formula_structural   Na8TiZn3(PO4)6
_chemical_formula_sum   'Na24 Ti3 Zn9 P18 O72'
_cell_volume   1544.72058657
_cell_formula_units_Z   3
loop_
 _symmetry_equiv_pos_site_id
 _symmetry_equiv_pos_as_xyz
  1  'x, y, z'
loop_
 _atom_site_type_symbol
 _atom_site_label
 _atom_site_symmetry_multiplicity
 _atom_site_fract_x
 _atom_site_fract_y
 _atom_site_fract_z
 _atom_site_occupancy
  Na  Na0  1  0.63209196  0.99932819  0.25226425  1
  Na  Na1  1  0.36723623  0.36790804  0.25226425  1
  Na  Na2  1  0.00067181  0.63276377  0.25226425  1
  Na  Na3  1  0.64509723  0.63304825  0.74267817  1
  Na  Na4  1  0.98795101  0.35490277  0.74267817  1
  Na  Na5  1  0.36695175  0.01204899  0.74267817  1
  Na  Na6  1  0.29353852  0.33583087  0.58060723  1
  Na  Na7  1  0.04229335  0.70646148  0.58060723  1
  Na  Na8  1  0.66416913  0.95770665  0.58060723  1
  Na  Na9  1  0.29205532  0.95868884  0.09088118  1
  Na  Na10  1  0.66663451  0.70794468  0.09088118  1
  Na  Na11  1  0.04131116  0.33336549  0.09088118  1
  Na  Na12  1  0.97057706  0.67847532  0.91363944  1
  Na  Na13  1  0.70789726  0.02942294  0.91363944  1
  Na  Na14  1  0.32152468  0.29210274  0.91363944  1
  Na  Na15  1  0.97870440  0.29935038  0.40875104  1
  Na  Na16  1  0.32064498  0.02129560  0.40875104  1
  Na  Na17  1  0.70064962  0.67935502  0.40875104  1
  Na  Na18  1  0.00000000  0.00000000  0.49692949  1
  Na  Na19  1  0.00000000  0.00000000  0.00348505  1
  Na  Na20  1  0.66666700  0.33333300  0.82807307  1
  Na  Na21  1  0.66666700  0.33333300  0.32590397  1
  Na  Na22  1  0.33333300  0.66666700  0.17275517  1
  Na  Na23  1  0.33333300  0.66666700  0.65718312  1
  Ti  Ti24  1  0.66666700  0.33333300  0.98306317  1
  Ti  Ti25  1  0.66666700  0.33333300  0.48280468  1
  Ti  Ti26  1  0.33333300  0.66666700  0.81595933  1
  Zn  Zn27  1  0.00000000  0.00000000  0.34294048  1
  Zn  Zn28  1  0.00000000  0.00000000  0.84481961  1
  Zn  Zn29  1  0.00000000  0.00000000  0.65102686  1
  Zn  Zn30  1  0.00000000  0.00000000  0.15951987  1
  Zn  Zn31  1  0.66666700  0.33333300  0.67809312  1
  Zn  Zn32  1  0.66666700  0.33333300  0.18292462  1
  Zn  Zn33  1  0.33333300  0.66666700  0.01580527  1
  Zn  Zn34  1  0.33333300  0.66666700  0.51075839  1
  Zn  Zn35  1  0.33333300  0.66666700  0.31988277  1
  P  P36  1  0.29933482  0.99841377  0.24950643  1
  P  P37  1  0.69907895  0.70066518  0.24950643  1
  P  P38  1  0.00158623  0.30092105  0.24950643  1
  P  P39  1  0.29705693  0.30208088  0.75211930  1
  P  P40  1  0.00502395  0.70294307  0.75211930  1
  P  P41  1  0.69791912  0.99497605  0.75211930  1
  P  P42  1  0.96110209  0.33392551  0.58491324  1
  P  P43  1  0.37282442  0.03889791  0.58491324  1
  P  P44  1  0.66607449  0.62717558  0.58491324  1
  P  P45  1  0.96017236  0.62459670  0.08282173  1
  P  P46  1  0.66442534  0.03982764  0.08282173  1
  P  P47  1  0.37540330  0.33557466  0.08282173  1
  P  P48  1  0.62668469  0.66461480  0.91787145  1
  P  P49  1  0.03792911  0.37331531  0.91787145  1
  P  P50  1  0.33538520  0.96207089  0.91787145  1
  P  P51  1  0.63198397  0.96911300  0.41923710  1
  P  P52  1  0.33712803  0.36801603  0.41923710  1
  P  P53  1  0.03088700  0.66287197  0.41923710  1
  O  O54  1  0.21438276  0.02336529  0.30689030  1
  O  O55  1  0.80898253  0.78561724  0.30689030  1
  O  O56  1  0.97663471  0.19101747  0.30689030  1
  O  O57  1  0.21764210  0.19427886  0.80986761  1
  O  O58  1  0.97663676  0.78235790  0.80986761  1
  O  O59  1  0.80572114  0.02336324  0.80986761  1
  O  O60  1  0.77269417  0.95701424  0.69480459  1
  O  O61  1  0.18432008  0.22730583  0.69480459  1
  O  O62  1  0.04298576  0.81567992  0.69480459  1
  O  O63  1  0.77963605  0.80748712  0.19049240  1
  O  O64  1  0.02785108  0.22036395  0.19049240  1
  O  O65  1  0.19251288  0.97214892  0.19049240  1
  O  O66  1  0.88479080  0.35844705  0.64428814  1
  O  O67  1  0.47365725  0.11520920  0.64428814  1
  O  O68  1  0.64155295  0.52634275  0.64428814  1
  O  O69  1  0.87868461  0.51961092  0.14015584  1
  O  O70  1  0.64092731  0.12131539  0.14015584  1
  O  O71  1  0.48038908  0.35907269  0.14015584  1
  O  O72  1  0.47966816  0.32148532  0.02475709  1
  O  O73  1  0.84181816  0.52033184  0.02475709  1
  O  O74  1  0.67851468  0.15818184  0.02475709  1
  O  O75  1  0.47706924  0.15694459  0.52971148  1
  O  O76  1  0.67987634  0.52293076  0.52971148  1
  O  O77  1  0.84305541  0.32012366  0.52971148  1
  O  O78  1  0.54859282  0.69239937  0.97514078  1
  O  O79  1  0.14380555  0.45140718  0.97514078  1
  O  O80  1  0.30760063  0.85619445  0.97514078  1
  O  O81  1  0.55299674  0.86056640  0.47697476  1
  O  O82  1  0.30756865  0.44700326  0.47697476  1
  O  O83  1  0.13943360  0.69243135  0.47697476  1
  O  O84  1  0.10547517  0.62406550  0.36223472  1
  O  O85  1  0.51858933  0.89452483  0.36223472  1
  O  O86  1  0.37593450  0.48141067  0.36223472  1
  O  O87  1  0.13414990  0.49232871  0.86138009  1
  O  O88  1  0.35817782  0.86585010  0.86138009  1
  O  O89  1  0.50767129  0.64182218  0.86138009  1
  O  O90  1  0.00419819  0.81851597  0.41396564  1
  O  O91  1  0.81431778  0.99580181  0.41396564  1
  O  O92  1  0.18148403  0.18568222  0.41396564  1
  O  O93  1  0.01160281  0.19201076  0.91077378  1
  O  O94  1  0.18040795  0.98839719  0.91077378  1
  O  O95  1  0.80798924  0.81959205  0.91077378  1
  O  O96  1  0.96859759  0.16605130  0.58358559  1
  O  O97  1  0.19745372  0.03140241  0.58358559  1
  O  O98  1  0.83394870  0.80254628  0.58358559  1
  O  O99  1  0.96744630  0.79837444  0.07952007  1
  O  O100  1  0.83092814  0.03255370  0.07952007  1
  O  O101  1  0.20162556  0.16907186  0.07952007  1
  O  O102  1  0.67118361  0.15076286  0.74761251  1
  O  O103  1  0.47958026  0.32881639  0.74761251  1
  O  O104  1  0.84923714  0.52041974  0.74761251  1
  O  O105  1  0.68166316  0.52069198  0.24728826  1
  O  O106  1  0.83902983  0.31833684  0.24728826  1
  O  O107  1  0.47930802  0.16097017  0.24728826  1
  O  O108  1  0.63630860  0.49503956  0.91862737  1
  O  O109  1  0.85873196  0.36369140  0.91862737  1
  O  O110  1  0.50496044  0.14126804  0.91862737  1
  O  O111  1  0.65063126  0.15325984  0.42660146  1
  O  O112  1  0.50262958  0.34936874  0.42660146  1
  O  O113  1  0.84674016  0.49737042  0.42660146  1
  O  O114  1  0.35614131  0.49511191  0.07701856  1
  O  O115  1  0.13896959  0.64385869  0.07701856  1
  O  O116  1  0.50488809  0.86103041  0.07701856  1
  O  O117  1  0.35206696  0.85908352  0.57930068  1
  O  O118  1  0.50701556  0.64793304  0.57930068  1
  O  O119  1  0.14091648  0.49298444  0.57930068  1
  O  O120  1  0.31614795  0.83565888  0.25350763  1
  O  O121  1  0.51950993  0.68385205  0.25350763  1
  O  O122  1  0.16434112  0.48049007  0.25350763  1
  O  O123  1  0.31485862  0.48587716  0.75956742  1
  O  O124  1  0.17101754  0.68514138  0.75956742  1
  O  O125  1  0.51412284  0.82898246  0.75956742  1
