# generated using pymatgen
data_MgZn2Mo3O8
_symmetry_space_group_name_H-M   'P 1'
_cell_length_a   5.48731441
_cell_length_b   6.22252731
_cell_length_c   7.20569638
_cell_angle_alpha   115.57772155
_cell_angle_beta   119.65934548
_cell_angle_gamma   90.00018413
_symmetry_Int_Tables_number   1
_chemical_formula_structural   MgZn2Mo3O8
_chemical_formula_sum   'Mg1 Zn2 Mo3 O8'
_cell_volume   185.54850763
_cell_formula_units_Z   1
loop_
 _symmetry_equiv_pos_site_id
 _symmetry_equiv_pos_as_xyz
  1  'x, y, z'
loop_
 _atom_site_type_symbol
 _atom_site_label
 _atom_site_symmetry_multiplicity
 _atom_site_fract_x
 _atom_site_fract_y
 _atom_site_fract_z
 _atom_site_occupancy
  Mg  Mg0  1  0.49999700  0.50000000  0.00000100  1
  Zn  Zn1  1  0.80118100  0.72196500  0.44390700  1
  Zn  Zn2  1  0.19883300  0.27803500  0.55609400  1
  Mo  Mo3  1  0.50000000  0.00000000  0.00000100  1
  Mo  Mo4  1  0.99999500  0.74073000  0.99998500  1
  Mo  Mo5  1  0.99999900  0.25926800  0.00001300  1
  O  O6  1  0.05381200  0.39431500  0.78859500  1
  O  O7  1  0.94618700  0.60568400  0.21140400  1
  O  O8  1  0.03604400  0.89644700  0.79284900  1
  O  O9  1  0.96395400  0.10355300  0.20715100  1
  O  O10  1  0.48037200  0.35207300  0.20442100  1
  O  O11  1  0.48038800  0.85228900  0.20441800  1
  O  O12  1  0.51961000  0.14771100  0.79558200  1
  O  O13  1  0.51962600  0.64792500  0.79557900  1
