# generated using pymatgen
data_Na42Ca16Nb8Si21(S5O48)3
_symmetry_space_group_name_H-M   'P 1'
_cell_length_a   18.84332704
_cell_length_b   9.44712989
_cell_length_c   22.86032038
_cell_angle_alpha   89.89659198
_cell_angle_beta   90.50819966
_cell_angle_gamma   120.06443870
_symmetry_Int_Tables_number   1
_chemical_formula_structural   Na42Ca16Nb8Si21(S5O48)3
_chemical_formula_sum   'Na42 Ca16 Nb8 Si21 S15 O144'
_cell_volume   3521.83454000
_cell_formula_units_Z   1
loop_
 _symmetry_equiv_pos_site_id
 _symmetry_equiv_pos_as_xyz
  1  'x, y, z'
loop_
 _atom_site_type_symbol
 _atom_site_label
 _atom_site_symmetry_multiplicity
 _atom_site_fract_x
 _atom_site_fract_y
 _atom_site_fract_z
 _atom_site_occupancy
  Na  Na0  1  0.32804661  0.04065397  0.24227834  1
  Na  Na1  1  0.82801143  0.01534901  0.24587459  1
  Na  Na2  1  0.98317931  0.63473959  0.25247768  1
  Na  Na3  1  0.32733115  0.63778551  0.74152819  1
  Na  Na4  1  0.82970004  0.61901901  0.73780613  1
  Na  Na5  1  0.48326178  0.33526135  0.74994173  1
  Na  Na6  1  0.16559454  0.35574253  0.58531887  1
  Na  Na7  1  0.66485456  0.35056828  0.59550879  1
  Na  Na8  1  0.00919654  0.65002475  0.58910683  1
  Na  Na9  1  0.50423256  0.68046918  0.56509727  1
  Na  Na10  1  0.31734006  0.96325256  0.57879972  1
  Na  Na11  1  0.83431435  0.97547281  0.56808265  1
  Na  Na12  1  0.16352105  0.97776935  0.09340037  1
  Na  Na13  1  0.66316618  0.95731323  0.09035638  1
  Na  Na14  1  0.33054080  0.68250658  0.06624766  1
  Na  Na15  1  0.83255560  0.70271813  0.07126653  1
  Na  Na16  1  0.00496941  0.32338268  0.06470552  1
  Na  Na17  1  0.49561935  0.35709592  0.08829474  1
  Na  Na18  1  0.47045320  0.66841840  0.91227303  1
  Na  Na19  1  0.97051951  0.65521364  0.90054583  1
  Na  Na20  1  0.35123815  0.01577924  0.91588771  1
  Na  Na21  1  0.86112744  0.04040835  0.92280497  1
  Na  Na22  1  0.16567455  0.31964294  0.91544361  1
  Na  Na23  1  0.67270779  0.29979380  0.90157717  1
  Na  Na24  1  0.46792596  0.28446323  0.40302850  1
  Na  Na25  1  0.97152007  0.27246265  0.41555151  1
  Na  Na26  1  0.17269206  0.04919619  0.41618337  1
  Na  Na27  1  0.66533941  0.00724990  0.42068610  1
  Na  Na28  1  0.35938130  0.67890487  0.42848883  1
  Na  Na29  1  0.85221296  0.68858327  0.42063634  1
  Na  Na30  1  0.98887979  0.01051986  0.49799880  1
  Na  Na31  1  0.48540459  0.96799634  0.49376972  1
  Na  Na32  1  0.98979407  0.00699404  0.99039973  1
  Na  Na33  1  0.48157806  0.95744800  0.99561995  1
  Na  Na34  1  0.33223675  0.33145862  0.82481721  1
  Na  Na35  1  0.84318727  0.35604453  0.82585797  1
  Na  Na36  1  0.34081729  0.32754721  0.33005538  1
  Na  Na37  1  0.83224513  0.33133506  0.32939724  1
  Na  Na38  1  0.17560467  0.67063017  0.16264817  1
  Na  Na39  1  0.66244224  0.66740938  0.16650817  1
  Na  Na40  1  0.16382811  0.67728627  0.65799313  1
  Na  Na41  1  0.67635763  0.68032685  0.66025348  1
  Ca  Ca42  1  0.99618569  0.99824538  0.34543286  1
  Ca  Ca43  1  0.49922067  0.99801322  0.34911804  1
  Ca  Ca44  1  0.99831085  0.99996912  0.84744415  1
  Ca  Ca45  1  0.49606218  0.99259375  0.84523552  1
  Ca  Ca46  1  0.32936509  0.32401981  0.68054683  1
  Ca  Ca47  1  0.83734910  0.33555427  0.68406075  1
  Ca  Ca48  1  0.33642907  0.33808233  0.18485472  1
  Ca  Ca49  1  0.83225148  0.33252254  0.18270718  1
  Ca  Ca50  1  0.34075328  0.35175035  0.98642363  1
  Ca  Ca51  1  0.84053141  0.33257517  0.97811631  1
  Ca  Ca52  1  0.33202260  0.33614681  0.48352295  1
  Ca  Ca53  1  0.84099216  0.33156219  0.48952107  1
  Ca  Ca54  1  0.16805089  0.66559071  0.01242684  1
  Ca  Ca55  1  0.67028359  0.67437848  0.01847423  1
  Ca  Ca56  1  0.16955018  0.66642693  0.52005766  1
  Ca  Ca57  1  0.66850508  0.67066115  0.51331384  1
  Nb  Nb58  1  0.00251818  0.98534506  0.64606189  1
  Nb  Nb59  1  0.49498706  0.98562890  0.66266423  1
  Nb  Nb60  1  0.99588638  0.00710451  0.16247733  1
  Nb  Nb61  1  0.49726535  0.00776189  0.15004960  1
  Nb  Nb62  1  0.16673338  0.67891898  0.31032588  1
  Nb  Nb63  1  0.66550389  0.66761007  0.31475428  1
  Nb  Nb64  1  0.16518800  0.66060393  0.81269858  1
  Nb  Nb65  1  0.66860799  0.65734717  0.80931002  1
  Si  Si66  1  0.14926182  0.00220617  0.25508972  1
  Si  Si67  1  0.84249405  0.69505072  0.25724322  1
  Si  Si68  1  0.00376991  0.31317069  0.25690163  1
  Si  Si69  1  0.50677893  0.30986268  0.25571125  1
  Si  Si70  1  0.64970672  0.29583211  0.75502062  1
  Si  Si71  1  0.00490433  0.70432867  0.75616720  1
  Si  Si72  1  0.50264268  0.69450768  0.75772320  1
  Si  Si73  1  0.34322563  0.99225856  0.75899950  1
  Si  Si74  1  0.98504960  0.32110586  0.58356815  1
  Si  Si75  1  0.17918410  0.02870303  0.57654552  1
  Si  Si76  1  0.34246577  0.65437848  0.58842158  1
  Si  Si77  1  0.83044559  0.63621551  0.58424632  1
  Si  Si78  1  0.48675845  0.64954353  0.08316858  1
  Si  Si79  1  0.33090690  0.02475039  0.08409434  1
  Si  Si80  1  0.83975979  0.02775233  0.08780525  1
  Si  Si81  1  0.31557708  0.66218565  0.91585176  1
  Si  Si82  1  0.81451325  0.66394231  0.91855083  1
  Si  Si83  1  0.01820135  0.37176490  0.91669977  1
  Si  Si84  1  0.31594080  0.96504921  0.41719139  1
  Si  Si85  1  0.81659458  0.96995982  0.41579199  1
  Si  Si86  1  0.51622561  0.66180127  0.41729758  1
  S  S87  1  0.64845429  0.98921014  0.25200363  1
  S  S88  1  0.34712057  0.71177490  0.24918214  1
  S  S89  1  0.14835119  0.30801095  0.75255393  1
  S  S90  1  0.84438390  0.98388458  0.75143616  1
  S  S91  1  0.48758706  0.32135172  0.58662667  1
  S  S92  1  0.67423853  0.02921626  0.58507858  1
  S  S93  1  0.98592625  0.65250887  0.08606230  1
  S  S94  1  0.17447150  0.31917624  0.08518389  1
  S  S95  1  0.67383383  0.31714543  0.08262575  1
  S  S96  1  0.52164922  0.37915842  0.91411553  1
  S  S97  1  0.17056418  0.96406556  0.91494524  1
  S  S98  1  0.66728472  0.95720309  0.91491962  1
  S  S99  1  0.16755165  0.38165020  0.41273460  1
  S  S100  1  0.67102800  0.37786557  0.41420791  1
  S  S101  1  0.02069332  0.66127454  0.41226370  1
  O  O102  1  0.10680298  0.99705252  0.31533383  1
  O  O103  1  0.61129564  0.00130115  0.30630126  1
  O  O104  1  0.38941827  0.77666884  0.30482638  1
  O  O105  1  0.89369075  0.75878392  0.31698625  1
  O  O106  1  0.49753866  0.20811304  0.31329791  1
  O  O107  1  0.98344940  0.20422055  0.31400530  1
  O  O108  1  0.11203232  0.22232457  0.80732634  1
  O  O109  1  0.60618657  0.21609403  0.81461110  1
  O  O110  1  0.48515315  0.76337045  0.81585051  1
  O  O111  1  0.99574504  0.78458214  0.81472092  1
  O  O112  1  0.39244258  0.02019314  0.81911022  1
  O  O113  1  0.88627555  0.00177237  0.80759197  1
  O  O114  1  0.40631393  0.96982533  0.70558788  1
  O  O115  1  0.88884344  0.96103497  0.70205464  1
  O  O116  1  0.09843827  0.21681563  0.70056143  1
  O  O117  1  0.58546222  0.19790104  0.69738020  1
  O  O118  1  0.01163132  0.83313600  0.70003908  1
  O  O119  1  0.51258061  0.83016363  0.70244118  1
  O  O120  1  0.39713516  0.82694468  0.19989707  1
  O  O121  1  0.90697144  0.84601908  0.20459360  1
  O  O122  1  0.01282482  0.19688382  0.20088723  1
  O  O123  1  0.51387753  0.18986141  0.19817072  1
  O  O124  1  0.08460876  0.97350764  0.19716511  1
  O  O125  1  0.59803817  0.98231054  0.19933388  1
  O  O126  1  0.44925381  0.34474684  0.63879997  1
  O  O127  1  0.93663743  0.37079662  0.62705810  1
  O  O128  1  0.24877861  0.12075672  0.62558588  1
  O  O129  1  0.72996007  0.11536100  0.63402766  1
  O  O130  1  0.33509346  0.55025046  0.64617032  1
  O  O131  1  0.81105912  0.51459148  0.63882838  1
  O  O132  1  0.43435257  0.51117812  0.12932047  1
  O  O133  1  0.94541053  0.55232883  0.13792219  1
  O  O134  1  0.31605028  0.11040768  0.13961078  1
  O  O135  1  0.82709230  0.11433990  0.14455873  1
  O  O136  1  0.22883099  0.34210396  0.13462883  1
  O  O137  1  0.72857391  0.34587121  0.13245598  1
  O  O138  1  0.21003476  0.30154113  0.02922793  1
  O  O139  1  0.70736353  0.29078342  0.02799667  1
  O  O140  1  0.43706102  0.61246558  0.02028742  1
  O  O141  1  0.93633226  0.57482622  0.03235982  1
  O  O142  1  0.35879393  0.13521082  0.02521766  1
  O  O143  1  0.86049680  0.13801452  0.02790297  1
  O  O144  1  0.20260587  0.13375876  0.51602557  1
  O  O145  1  0.70921702  0.11672007  0.52859848  1
  O  O146  1  0.36528317  0.58847100  0.52866318  1
  O  O147  1  0.85367438  0.57685532  0.52346691  1
  O  O148  1  0.43850965  0.30060225  0.53283267  1
  O  O149  1  0.93503111  0.25984722  0.52036288  1
  O  O150  1  0.27333832  0.66895135  0.97626100  1
  O  O151  1  0.77426415  0.67414476  0.97879695  1
  O  O152  1  0.05972622  0.44972031  0.97911086  1
  O  O153  1  0.56469273  0.46495784  0.96790297  1
  O  O154  1  0.15987926  0.87764262  0.97124134  1
  O  O155  1  0.66010939  0.87433540  0.97127674  1
  O  O156  1  0.27339380  0.86435026  0.47502326  1
  O  O157  1  0.77263648  0.87636934  0.47511632  1
  O  O158  1  0.16017778  0.45001837  0.46831787  1
  O  O159  1  0.66035790  0.44521615  0.46933141  1
  O  O160  1  0.06421489  0.65732178  0.46477967  1
  O  O161  1  0.56140553  0.67131044  0.47828191  1
  O  O162  1  0.06841960  0.65825226  0.35774218  1
  O  O163  1  0.58232250  0.66077724  0.36241893  1
  O  O164  1  0.25095847  0.83591145  0.35842814  1
  O  O165  1  0.75413524  0.84272174  0.35910022  1
  O  O166  1  0.16551829  0.48678077  0.36245873  1
  O  O167  1  0.67310032  0.48617417  0.36345229  1
  O  O168  1  0.08290470  0.50225205  0.86337039  1
  O  O169  1  0.56966511  0.48030020  0.86092239  1
  O  O170  1  0.17355273  0.86120815  0.86547361  1
  O  O171  1  0.66777238  0.85267298  0.86525821  1
  O  O172  1  0.25338785  0.66307050  0.86028312  1
  O  O173  1  0.74922660  0.66342462  0.86179593  1
  O  O174  1  0.01392523  0.81024303  0.41217337  1
  O  O175  1  0.51253448  0.83057390  0.41212633  1
  O  O176  1  0.40700652  0.98542564  0.41324677  1
  O  O177  1  0.90716027  0.98519763  0.41592052  1
  O  O178  1  0.09770662  0.21255757  0.40776223  1
  O  O179  1  0.60189065  0.20941720  0.40748500  1
  O  O180  1  0.01242716  0.19346498  0.91242153  1
  O  O181  1  0.51473819  0.21635285  0.91338125  1
  O  O182  1  0.10121627  0.99487439  0.90835066  1
  O  O183  1  0.59681796  0.98601389  0.91057163  1
  O  O184  1  0.40629738  0.82712637  0.91572747  1
  O  O185  1  0.90543651  0.82721738  0.91422560  1
  O  O186  1  0.49424432  0.16831058  0.59275895  1
  O  O187  1  0.98757397  0.15126786  0.60694415  1
  O  O188  1  0.08977582  0.02646889  0.59716268  1
  O  O189  1  0.59320527  0.02543834  0.59216089  1
  O  O190  1  0.42991453  0.84862760  0.59733378  1
  O  O191  1  0.91831283  0.82153810  0.59850590  1
  O  O192  1  0.49785421  0.83516294  0.10480765  1
  O  O193  1  0.99268100  0.81899766  0.09144572  1
  O  O194  1  0.41968466  0.00995688  0.09884853  1
  O  O195  1  0.92775580  0.01276972  0.09689561  1
  O  O196  1  0.09255993  0.16129262  0.09159555  1
  O  O197  1  0.59224129  0.15582883  0.09227242  1
  O  O198  1  0.33838463  0.15192631  0.74407294  1
  O  O199  1  0.82541622  0.11382794  0.74250411  1
  O  O200  1  0.23420385  0.34343173  0.74828028  1
  O  O201  1  0.74240555  0.34117564  0.74892529  1
  O  O202  1  0.43095700  0.51099244  0.74483237  1
  O  O203  1  0.92474946  0.52745429  0.74680667  1
  O  O204  1  0.32889665  0.54593710  0.23837067  1
  O  O205  1  0.83476983  0.52551959  0.23821086  1
  O  O206  1  0.42595941  0.32147513  0.24485254  1
  O  O207  1  0.93133068  0.35188522  0.24352817  1
  O  O208  1  0.24182824  0.14442932  0.24728895  1
  O  O209  1  0.73361006  0.12790382  0.24720039  1
  O  O210  1  0.31639067  0.48962207  0.90832060  1
  O  O211  1  0.81412458  0.49154155  0.90960183  1
  O  O212  1  0.43953549  0.36629822  0.90997891  1
  O  O213  1  0.92963700  0.36265950  0.90696318  1
  O  O214  1  0.24993043  0.12252503  0.91438460  1
  O  O215  1  0.74591312  0.11701723  0.91274608  1
  O  O216  1  0.31545164  0.13556685  0.40762741  1
  O  O217  1  0.81620184  0.14248032  0.40693144  1
  O  O218  1  0.24731995  0.38538933  0.40884113  1
  O  O219  1  0.75025552  0.37987323  0.41274261  1
  O  O220  1  0.42858764  0.49466368  0.40805828  1
  O  O221  1  0.93842877  0.51027817  0.40718851  1
  O  O222  1  0.15835760  0.45880346  0.08337259  1
  O  O223  1  0.65329593  0.44913862  0.07879346  1
  O  O224  1  0.07061588  0.67706932  0.08261882  1
  O  O225  1  0.57977532  0.67752154  0.08229354  1
  O  O226  1  0.25772949  0.83446552  0.08343979  1
  O  O227  1  0.76222674  0.84055936  0.08590491  1
  O  O228  1  0.14931023  0.83478576  0.57703521  1
  O  O229  1  0.65749665  0.85689979  0.58344669  1
  O  O230  1  0.26429521  0.68234715  0.58531661  1
  O  O231  1  0.75688081  0.68077917  0.58325440  1
  O  O232  1  0.08076793  0.46611964  0.58074986  1
  O  O233  1  0.57295729  0.46525178  0.58233355  1
  O  O234  1  0.15166210  0.81759163  0.25590927  1
  O  O235  1  0.65263856  0.83233004  0.25129820  1
  O  O236  1  0.26674528  0.71760310  0.24795578  1
  O  O237  1  0.75785771  0.70822691  0.25413546  1
  O  O238  1  0.09347375  0.49043047  0.25772847  1
  O  O239  1  0.59325966  0.49184384  0.25693815  1
  O  O240  1  0.15222750  0.47487911  0.75280556  1
  O  O241  1  0.65202436  0.48699136  0.75713693  1
  O  O242  1  0.09136709  0.69376642  0.75993541  1
  O  O243  1  0.59283408  0.69620148  0.76064212  1
  O  O244  1  0.25720396  0.81124604  0.75558831  1
  O  O245  1  0.76103241  0.81743952  0.75271165  1
