# generated using pymatgen
data_Na10Mg3Ge5(PO4)12
_symmetry_space_group_name_H-M   'P 1'
_cell_length_a   17.27525329
_cell_length_b   8.64547528
_cell_length_c   21.72484482
_cell_angle_alpha   89.96700783
_cell_angle_beta   89.98055700
_cell_angle_gamma   120.05493148
_symmetry_Int_Tables_number   1
_chemical_formula_structural   Na10Mg3Ge5(PO4)12
_chemical_formula_sum   'Na30 Mg9 Ge15 P36 O144'
_cell_volume   2808.40518492
_cell_formula_units_Z   3
loop_
 _symmetry_equiv_pos_site_id
 _symmetry_equiv_pos_as_xyz
  1  'x, y, z'
loop_
 _atom_site_type_symbol
 _atom_site_label
 _atom_site_symmetry_multiplicity
 _atom_site_fract_x
 _atom_site_fract_y
 _atom_site_fract_z
 _atom_site_occupancy
  Na  Na0  1  0.31918126  0.00684810  0.25031732  1
  Na  Na1  1  0.68506133  0.36096954  0.25009161  1
  Na  Na2  1  0.31677415  0.62678705  0.75026333  1
  Na  Na3  1  0.81679852  0.62678314  0.75014863  1
  Na  Na4  1  0.15246021  0.34015658  0.58100498  1
  Na  Na5  1  0.65272939  0.34098457  0.58067460  1
  Na  Na6  1  0.01732004  0.69441318  0.58122125  1
  Na  Na7  1  0.51744768  0.69400322  0.58152202  1
  Na  Na8  1  0.32924087  0.96477781  0.58123851  1
  Na  Na9  1  0.82994687  0.96618379  0.58126689  1
  Na  Na10  1  0.15253219  0.96481447  0.08094521  1
  Na  Na11  1  0.65300071  0.96533689  0.08155127  1
  Na  Na12  1  0.32965094  0.69388699  0.08169651  1
  Na  Na13  1  0.82994597  0.69496109  0.08105013  1
  Na  Na14  1  0.01708930  0.34075113  0.08136783  1
  Na  Na15  1  0.51744538  0.34068986  0.08164832  1
  Na  Na16  1  0.66391677  0.02831948  0.41353509  1
  Na  Na17  1  0.34979639  0.67264217  0.41313541  1
  Na  Na18  1  0.00014293  0.99889229  0.49506865  1
  Na  Na19  1  0.49961141  0.01076389  0.49401810  1
  Na  Na20  1  0.00013064  0.00015428  0.99578955  1
  Na  Na21  1  0.50015702  0.99987816  0.99602084  1
  Na  Na22  1  0.33374831  0.32419238  0.83248398  1
  Na  Na23  1  0.83374128  0.32427086  0.83246613  1
  Na  Na24  1  0.33405080  0.33582422  0.32924023  1
  Na  Na25  1  0.84166689  0.33937949  0.32963732  1
  Na  Na26  1  0.16260384  0.65643447  0.16732163  1
  Na  Na27  1  0.66613873  0.67532571  0.16685245  1
  Na  Na28  1  0.16256404  0.66772880  0.66800329  1
  Na  Na29  1  0.66270250  0.66739866  0.66811764  1
  Mg  Mg30  1  0.49962976  0.00436035  0.35288869  1
  Mg  Mg31  1  0.33364440  0.32846491  0.69008933  1
  Mg  Mg32  1  0.83383980  0.32893306  0.69007139  1
  Mg  Mg33  1  0.33239180  0.33755048  0.18785611  1
  Mg  Mg34  1  0.83696161  0.33260300  0.18925078  1
  Mg  Mg35  1  0.16631914  0.66667264  0.01454960  1
  Mg  Mg36  1  0.66641634  0.66672224  0.01452696  1
  Mg  Mg37  1  0.16343014  0.66325216  0.51517421  1
  Mg  Mg38  1  0.66904494  0.66893019  0.51633344  1
  Ge  Ge39  1  0.00024376  0.99898615  0.35236749  1
  Ge  Ge40  1  0.00047599  0.00130317  0.85444589  1
  Ge  Ge41  1  0.50048721  0.00138438  0.85445861  1
  Ge  Ge42  1  0.00093898  0.00144979  0.65118379  1
  Ge  Ge43  1  0.50098416  0.00165216  0.65114183  1
  Ge  Ge44  1  0.00010751  0.00174018  0.15068660  1
  Ge  Ge45  1  0.50026940  0.99787430  0.15197620  1
  Ge  Ge46  1  0.33322797  0.33411534  0.97820645  1
  Ge  Ge47  1  0.83379750  0.33344799  0.97828447  1
  Ge  Ge48  1  0.33194484  0.32352501  0.47904179  1
  Ge  Ge49  1  0.83721856  0.34135853  0.47803795  1
  Ge  Ge50  1  0.16359384  0.66095863  0.31464637  1
  Ge  Ge51  1  0.66616738  0.66961192  0.31519686  1
  Ge  Ge52  1  0.16428037  0.66753280  0.81758427  1
  Ge  Ge53  1  0.66431218  0.66750150  0.81762778  1
  P  P54  1  0.14167501  0.99430124  0.25206401  1
  P  P55  1  0.64556375  0.99353101  0.25235672  1
  P  P56  1  0.35223115  0.70518283  0.25303898  1
  P  P57  1  0.85576305  0.71601957  0.25218552  1
  P  P58  1  0.00212504  0.28890216  0.25264037  1
  P  P59  1  0.50146085  0.29643770  0.25127545  1
  P  P60  1  0.14188657  0.28955517  0.75258644  1
  P  P61  1  0.64195044  0.28955680  0.75262981  1
  P  P62  1  0.00432573  0.71638175  0.75238275  1
  P  P63  1  0.50428951  0.71638527  0.75234865  1
  P  P64  1  0.35533940  0.99902212  0.75298018  1
  P  P65  1  0.85533767  0.99905481  0.75296959  1
  P  P66  1  0.47725740  0.33130156  0.58508153  1
  P  P67  1  0.97691858  0.33136285  0.58465440  1
  P  P68  1  0.18804072  0.04520518  0.58499231  1
  P  P69  1  0.68835984  0.04608222  0.58426902  1
  P  P70  1  0.33436186  0.62399725  0.58494106  1
  P  P71  1  0.83494551  0.62472025  0.58583955  1
  P  P72  1  0.47713606  0.62293075  0.08393611  1
  P  P73  1  0.97714883  0.62348668  0.08422633  1
  P  P74  1  0.33436465  0.04481919  0.08483656  1
  P  P75  1  0.83433241  0.04575167  0.08398589  1
  P  P76  1  0.18804283  0.33081854  0.08371777  1
  P  P77  1  0.68842117  0.33103795  0.08502868  1
  P  P78  1  0.31427925  0.66674873  0.91629830  1
  P  P79  1  0.81430044  0.66641428  0.91632095  1
  P  P80  1  0.01910952  0.37163807  0.91675620  1
  P  P81  1  0.51906650  0.37162785  0.91687015  1
  P  P82  1  0.16677177  0.96176642  0.91668788  1
  P  P83  1  0.66672845  0.96179207  0.91668820  1
  P  P84  1  0.31077510  0.96051625  0.41766507  1
  P  P85  1  0.81594041  0.96117858  0.41679877  1
  P  P86  1  0.16445664  0.36890672  0.41684788  1
  P  P87  1  0.66890223  0.37846279  0.41805648  1
  P  P88  1  0.02022102  0.66873819  0.41630451  1
  P  P89  1  0.51951521  0.65911414  0.41829010  1
  O  O90  1  0.09717993  0.02550176  0.30785806  1
  O  O91  1  0.60350515  0.02481566  0.30822001  1
  O  O92  1  0.40643365  0.79287673  0.30955549  1
  O  O93  1  0.91582724  0.80587104  0.30789338  1
  O  O94  1  0.48596597  0.17647108  0.30503809  1
  O  O95  1  0.98779341  0.16747371  0.30824209  1
  O  O96  1  0.09632869  0.16717956  0.80741443  1
  O  O97  1  0.59628802  0.16716690  0.80743710  1
  O  O98  1  0.48535470  0.80720167  0.80648450  1
  O  O99  1  0.98537653  0.80720995  0.80652007  1
  O  O100  1  0.41586752  0.02416687  0.80788039  1
  O  O101  1  0.91585347  0.02430975  0.80788867  1
  O  O102  1  0.39418660  0.95352578  0.69239652  1
  O  O103  1  0.89423316  0.95372309  0.69241467  1
  O  O104  1  0.08495804  0.21133864  0.69128833  1
  O  O105  1  0.58505491  0.21144867  0.69132496  1
  O  O106  1  0.02142870  0.83057988  0.69095976  1
  O  O107  1  0.52140696  0.83061458  0.69085478  1
  O  O108  1  0.39309094  0.83236184  0.19260554  1
  O  O109  1  0.89519930  0.83090506  0.19152984  1
  O  O110  1  0.02084578  0.21084377  0.19153332  1
  O  O111  1  0.52339368  0.21645718  0.19027742  1
  O  O112  1  0.08431517  0.95955713  0.19149374  1
  O  O113  1  0.58634225  0.95844601  0.19120980  1
  O  O114  1  0.43675888  0.36750811  0.64006732  1
  O  O115  1  0.93678504  0.36764433  0.63984343  1
  O  O116  1  0.24629440  0.12714100  0.64004534  1
  O  O117  1  0.74682742  0.12954942  0.63908085  1
  O  O118  1  0.31838294  0.51202351  0.64180583  1
  O  O119  1  0.81820351  0.51330066  0.64295578  1
  O  O120  1  0.43679266  0.50621610  0.13911759  1
  O  O121  1  0.93694185  0.50823042  0.13983180  1
  O  O122  1  0.31721238  0.12104238  0.14233121  1
  O  O123  1  0.81658836  0.12617182  0.13928177  1
  O  O124  1  0.24529180  0.36443474  0.13927155  1
  O  O125  1  0.74384161  0.36515461  0.14246154  1
  O  O126  1  0.22766136  0.28659481  0.02506207  1
  O  O127  1  0.72974746  0.28840374  0.02709413  1
  O  O128  1  0.41536976  0.54477783  0.02507311  1
  O  O129  1  0.91545686  0.54449060  0.02546989  1
  O  O130  1  0.35553864  0.17038506  0.02706453  1
  O  O131  1  0.85664635  0.16874541  0.02508908  1
  O  O132  1  0.22725860  0.16868486  0.52601063  1
  O  O133  1  0.72676448  0.16430715  0.52385951  1
  O  O134  1  0.35451609  0.54327493  0.52556348  1
  O  O135  1  0.85623713  0.54287170  0.52780339  1
  O  O136  1  0.41532942  0.28501519  0.52619052  1
  O  O137  1  0.91547710  0.28710024  0.52560738  1
  O  O138  1  0.27681378  0.70037574  0.97404276  1
  O  O139  1  0.77676494  0.70003739  0.97401576  1
  O  O140  1  0.07232399  0.44396024  0.97510316  1
  O  O141  1  0.57242074  0.44390442  0.97518097  1
  O  O142  1  0.14962463  0.85529869  0.97509627  1
  O  O143  1  0.64958654  0.85526471  0.97504911  1
  O  O144  1  0.27057088  0.84770513  0.47498092  1
  O  O145  1  0.77958846  0.85838926  0.47601972  1
  O  O146  1  0.14898368  0.44193664  0.47582726  1
  O  O147  1  0.65652789  0.45820681  0.47614433  1
  O  O148  1  0.07121063  0.70127645  0.47575350  1
  O  O149  1  0.57535590  0.69474349  0.47582634  1
  O  O150  1  0.06312891  0.63018353  0.35951746  1
  O  O151  1  0.56329377  0.62656801  0.36024298  1
  O  O152  1  0.25155290  0.87462219  0.35815408  1
  O  O153  1  0.75041253  0.87593678  0.36088652  1
  O  O154  1  0.18695206  0.49933385  0.36083649  1
  O  O155  1  0.68574355  0.49610638  0.35833998  1
  O  O156  1  0.06259747  0.49493163  0.85911557  1
  O  O157  1  0.56249062  0.49499910  0.85920180  1
  O  O158  1  0.18485089  0.87459438  0.85912845  1
  O  O159  1  0.68490705  0.87477192  0.85909986  1
  O  O160  1  0.25443647  0.63232280  0.85716323  1
  O  O161  1  0.75448709  0.63210873  0.85717271  1
  O  O162  1  0.00862520  0.83481493  0.40703569  1
  O  O163  1  0.50687654  0.82146713  0.41118518  1
  O  O164  1  0.40307457  0.98126353  0.41119757  1
  O  O165  1  0.90945378  0.98260017  0.40723706  1
  O  O166  1  0.08223058  0.18091325  0.40749226  1
  O  O167  1  0.59026201  0.18954390  0.41136477  1
  O  O168  1  0.00875272  0.18294128  0.90739459  1
  O  O169  1  0.50871643  0.18296570  0.90743257  1
  O  O170  1  0.08259533  0.98201434  0.90712727  1
  O  O171  1  0.58254206  0.98201600  0.90710253  1
  O  O172  1  0.40894753  0.83463446  0.90735198  1
  O  O173  1  0.90894899  0.83445733  0.90736422  1
  O  O174  1  0.48511215  0.15519567  0.59019769  1
  O  O175  1  0.98493573  0.15559373  0.58979911  1
  O  O176  1  0.09219596  0.02991594  0.58950472  1
  O  O177  1  0.59230737  0.02992307  0.58921385  1
  O  O178  1  0.42235655  0.81567896  0.58926599  1
  O  O179  1  0.92286818  0.81639759  0.58980273  1
  O  O180  1  0.48513243  0.81487698  0.08957714  1
  O  O181  1  0.98546658  0.81557138  0.08945896  1
  O  O182  1  0.42228939  0.02915365  0.08944073  1
  O  O183  1  0.92240754  0.02964361  0.08934788  1
  O  O184  1  0.09193491  0.15497494  0.08900384  1
  O  O185  1  0.59253244  0.15495439  0.08927718  1
  O  O186  1  0.34585769  0.16076186  0.74724291  1
  O  O187  1  0.84575087  0.16066176  0.74711080  1
  O  O188  1  0.23500848  0.31542588  0.74709249  1
  O  O189  1  0.73500632  0.31512546  0.74719212  1
  O  O190  1  0.42052753  0.53536365  0.74664602  1
  O  O191  1  0.92063144  0.53526589  0.74675478  1
  O  O192  1  0.34019688  0.52291764  0.24474798  1
  O  O193  1  0.84274348  0.52995482  0.24718548  1
  O  O194  1  0.41967430  0.31432043  0.24308667  1
  O  O195  1  0.92109558  0.30890023  0.24760778  1
  O  O196  1  0.23503091  0.15351885  0.24711049  1
  O  O197  1  0.73645659  0.15950521  0.24411002  1
  O  O198  1  0.32282011  0.49511383  0.92063969  1
  O  O199  1  0.82283394  0.49480575  0.92085386  1
  O  O200  1  0.42435834  0.35350648  0.92131496  1
  O  O201  1  0.92452433  0.35409199  0.92098241  1
  O  O202  1  0.25265284  0.15083424  0.92105143  1
  O  O203  1  0.75237525  0.15118894  0.92116770  1
  O  O204  1  0.31712856  0.14795067  0.42193449  1
  O  O205  1  0.82150361  0.14924554  0.42118700  1
  O  O206  1  0.25353575  0.36007252  0.42161533  1
  O  O207  1  0.75624750  0.35921703  0.42156337  1
  O  O208  1  0.42319718  0.48846510  0.42275690  1
  O  O209  1  0.92558850  0.49542716  0.42104359  1
  O  O210  1  0.17384256  0.49066527  0.07603981  1
  O  O211  1  0.67460884  0.49123194  0.07662156  1
  O  O212  1  0.07139145  0.65201367  0.07633396  1
  O  O213  1  0.57158414  0.65265749  0.07597107  1
  O  O214  1  0.25422098  0.85683269  0.07658625  1
  O  O215  1  0.75478865  0.85680624  0.07608656  1
  O  O216  1  0.17343246  0.85681356  0.57721471  1
  O  O217  1  0.67382945  0.85728636  0.57719493  1
  O  O218  1  0.25406567  0.65131651  0.57725650  1
  O  O219  1  0.75500404  0.65292609  0.57823467  1
  O  O220  1  0.07134830  0.49055522  0.57677062  1
  O  O221  1  0.57162663  0.49022868  0.57704778  1
  O  O222  1  0.14965506  0.82118253  0.25722745  1
  O  O223  1  0.65239078  0.81978321  0.25661160  1
  O  O224  1  0.25845761  0.70018917  0.25576747  1
  O  O225  1  0.76098607  0.69850332  0.25789566  1
  O  O226  1  0.08984134  0.47498735  0.25846269  1
  O  O227  1  0.59114661  0.48202225  0.25561928  1
  O  O228  1  0.15092641  0.47969919  0.75764764  1
  O  O229  1  0.65096983  0.47972036  0.75771777  1
  O  O230  1  0.09054590  0.70341334  0.75817485  1
  O  O231  1  0.59048652  0.70335188  0.75815075  1
  O  O232  1  0.26238587  0.82051856  0.75771434  1
  O  O233  1  0.76238617  0.82054730  0.75772857  1
