# generated using pymatgen
data_Na3YMg3(SO4)6
_symmetry_space_group_name_H-M   'P 1'
_cell_length_a   8.82751036
_cell_length_b   8.82669585
_cell_length_c   23.02117610
_cell_angle_alpha   89.95537921
_cell_angle_beta   90.06446349
_cell_angle_gamma   120.01040938
_symmetry_Int_Tables_number   1
_chemical_formula_structural   Na3YMg3(SO4)6
_chemical_formula_sum   'Na9 Y3 Mg9 S18 O72'
_cell_volume   1553.27618747
_cell_formula_units_Z   3
loop_
 _symmetry_equiv_pos_site_id
 _symmetry_equiv_pos_as_xyz
  1  'x, y, z'
loop_
 _atom_site_type_symbol
 _atom_site_label
 _atom_site_symmetry_multiplicity
 _atom_site_fract_x
 _atom_site_fract_y
 _atom_site_fract_z
 _atom_site_occupancy
  Na  Na0  1  0.63526435  0.99801927  0.24805854  1
  Na  Na1  1  0.36383365  0.36306429  0.24757996  1
  Na  Na2  1  0.02566611  0.69366196  0.58875841  1
  Na  Na3  1  0.99853470  0.01573358  0.49879706  1
  Na  Na4  1  0.99986264  0.99876403  0.99769145  1
  Na  Na5  1  0.66557192  0.33200433  0.82685373  1
  Na  Na6  1  0.68586305  0.35093160  0.33285778  1
  Na  Na7  1  0.31619353  0.66511188  0.15741869  1
  Na  Na8  1  0.35111269  0.66503467  0.66542152  1
  Y  Y9  1  0.66660080  0.33327005  0.98440318  1
  Y  Y10  1  0.66161755  0.32780780  0.48115339  1
  Y  Y11  1  0.33265017  0.66664724  0.81133285  1
  Mg  Mg12  1  0.99958666  0.99547079  0.35152529  1
  Mg  Mg13  1  0.00006788  0.00065239  0.84885284  1
  Mg  Mg14  1  0.99974880  0.00603848  0.65193211  1
  Mg  Mg15  1  0.00038269  0.99638099  0.15008450  1
  Mg  Mg16  1  0.66239763  0.32919850  0.68561540  1
  Mg  Mg17  1  0.67473443  0.34059473  0.17808049  1
  Mg  Mg18  1  0.33328098  0.66678249  0.01659281  1
  Mg  Mg19  1  0.34075843  0.66586428  0.51508497  1
  Mg  Mg20  1  0.32520660  0.66577692  0.31745311  1
  S  S21  1  0.29319359  0.99943890  0.25043876  1
  S  S22  1  0.70755020  0.70525945  0.25068665  1
  S  S23  1  0.99906721  0.29161385  0.25052683  1
  S  S24  1  0.29512514  0.28246698  0.74799106  1
  S  S25  1  0.98759638  0.70478619  0.74595680  1
  S  S26  1  0.71751730  0.01252860  0.74784333  1
  S  S27  1  0.96918266  0.33423963  0.58574393  1
  S  S28  1  0.36267323  0.02902234  0.58649325  1
  S  S29  1  0.66647972  0.63523673  0.58632707  1
  S  S30  1  0.97402189  0.64002930  0.08657852  1
  S  S31  1  0.66583668  0.02589769  0.08903236  1
  S  S32  1  0.36009231  0.33420066  0.08893595  1
  S  S33  1  0.63680462  0.67961595  0.91813360  1
  S  S34  1  0.04257414  0.36283925  0.91814539  1
  S  S35  1  0.32019037  0.95723126  0.91804246  1
  S  S36  1  0.62860931  0.95091937  0.41258752  1
  S  S37  1  0.32254091  0.37131736  0.41266775  1
  S  S38  1  0.04784225  0.67746631  0.41679170  1
  O  O39  1  0.21205343  0.02802346  0.30215248  1
  O  O40  1  0.81059349  0.78500159  0.30347347  1
  O  O41  1  0.96814570  0.18040127  0.30228783  1
  O  O42  1  0.21030859  0.18739004  0.80154688  1
  O  O43  1  0.97773176  0.79535266  0.79793709  1
  O  O44  1  0.81300667  0.02356757  0.80144849  1
  O  O45  1  0.80133344  0.99342916  0.69564463  1
  O  O46  1  0.19275218  0.19800491  0.69574608  1
  O  O47  1  0.00509496  0.80255340  0.69171383  1
  O  O48  1  0.78907259  0.81600324  0.19935533  1
  O  O49  1  0.03005809  0.21083736  0.19915561  1
  O  O50  1  0.18985846  0.97679456  0.19797991  1
  O  O51  1  0.87943762  0.36329295  0.63480086  1
  O  O52  1  0.47447794  0.11865297  0.63625636  1
  O  O53  1  0.64296101  0.52298619  0.63649345  1
  O  O54  1  0.88587654  0.52770515  0.13764646  1
  O  O55  1  0.64376561  0.11127954  0.14216159  1
  O  O56  1  0.46745426  0.35591669  0.14209243  1
  O  O57  1  0.44645145  0.30977835  0.03738303  1
  O  O58  1  0.86820077  0.56032724  0.03341791  1
  O  O59  1  0.69088565  0.13712601  0.03743756  1
  O  O60  1  0.43833832  0.13098048  0.53204907  1
  O  O61  1  0.69914079  0.55683594  0.53303621  1
  O  O62  1  0.86472886  0.30641072  0.53151959  1
  O  O63  1  0.54599915  0.69146122  0.97011190  1
  O  O64  1  0.14551988  0.45418706  0.97008248  1
  O  O65  1  0.30885283  0.85469334  0.97003318  1
  O  O66  1  0.53823393  0.85066673  0.46469649  1
  O  O67  1  0.31153496  0.46114711  0.46480884  1
  O  O68  1  0.13990968  0.68792200  0.47177186  1
  O  O69  1  0.13621846  0.65838568  0.36571654  1
  O  O70  1  0.53039938  0.87057592  0.35842478  1
  O  O71  1  0.34175702  0.47017050  0.35850390  1
  O  O72  1  0.12222135  0.46633991  0.86475859  1
  O  O73  1  0.34364844  0.87747110  0.86466978  1
  O  O74  1  0.53336522  0.65631354  0.86474465  1
  O  O75  1  0.02984283  0.83496280  0.41182143  1
  O  O76  1  0.80498403  0.97029265  0.41010867  1
  O  O77  1  0.16514431  0.19514101  0.40979079  1
  O  O78  1  0.02758901  0.18901205  0.91316156  1
  O  O79  1  0.16133913  0.97223348  0.91289874  1
  O  O80  1  0.81108991  0.83802018  0.91306360  1
  O  O81  1  0.99312275  0.18199757  0.59239468  1
  O  O82  1  0.18327167  0.00419679  0.59175303  1
  O  O83  1  0.82666450  0.81048221  0.59188452  1
  O  O84  1  0.99314674  0.81522938  0.09315828  1
  O  O85  1  0.82226002  0.00704080  0.09434527  1
  O  O86  1  0.18475048  0.17768405  0.09403254  1
  O  O87  1  0.69844346  0.16981708  0.74383837  1
  O  O88  1  0.47165835  0.30189697  0.74434035  1
  O  O89  1  0.83049349  0.52824241  0.74319379  1
  O  O90  1  0.68006981  0.52465039  0.24396861  1
  O  O91  1  0.83999214  0.30835762  0.24314413  1
  O  O92  1  0.47333783  0.16073966  0.24495005  1
  O  O93  1  0.65784284  0.52154757  0.92161595  1
  O  O94  1  0.86306439  0.34085654  0.92156591  1
  O  O95  1  0.47794574  0.13659942  0.92152049  1
  O  O96  1  0.64787822  0.13018319  0.41569907  1
  O  O97  1  0.48262796  0.35235397  0.41611036  1
  O  O98  1  0.86773494  0.51766736  0.41811409  1
  O  O99  1  0.34653983  0.49373981  0.08181437  1
  O  O100  1  0.14790481  0.65487294  0.07982887  1
  O  O101  1  0.50603731  0.85304231  0.08179439  1
  O  O102  1  0.34258655  0.85113417  0.57995680  1
  O  O103  1  0.51034852  0.65354670  0.57805497  1
  O  O104  1  0.14212768  0.49813961  0.57870157  1
  O  O105  1  0.32085230  0.84639082  0.25675289  1
  O  O106  1  0.52729302  0.68615129  0.25577797  1
  O  O107  1  0.15795327  0.46763619  0.25739433  1
  O  O108  1  0.31624491  0.46268697  0.74945594  1
  O  O109  1  0.14714192  0.68510541  0.74835349  1
  O  O110  1  0.53742069  0.85337596  0.74944302  1
