# generated using pymatgen
data_Na7CaHf3Si3(PO8)3
_symmetry_space_group_name_H-M   'P 1'
_cell_length_a   9.21733008
_cell_length_b   9.21006674
_cell_length_c   22.61938765
_cell_angle_alpha   90.04328490
_cell_angle_beta   90.09073421
_cell_angle_gamma   119.95054702
_symmetry_Int_Tables_number   1
_chemical_formula_structural   Na7CaHf3Si3(PO8)3
_chemical_formula_sum   'Na21 Ca3 Hf9 Si9 P9 O72'
_cell_volume   1663.77409855
_cell_formula_units_Z   3
loop_
 _symmetry_equiv_pos_site_id
 _symmetry_equiv_pos_as_xyz
  1  'x, y, z'
loop_
 _atom_site_type_symbol
 _atom_site_label
 _atom_site_symmetry_multiplicity
 _atom_site_fract_x
 _atom_site_fract_y
 _atom_site_fract_z
 _atom_site_occupancy
  Na  Na0  1  0.63926678  0.01219718  0.24454819  1
  Na  Na1  1  0.37450590  0.36222052  0.24508795  1
  Na  Na2  1  0.98845375  0.63055521  0.24910984  1
  Na  Na3  1  0.63838507  0.62248536  0.74861381  1
  Na  Na4  1  0.98663181  0.37207443  0.74380579  1
  Na  Na5  1  0.37231052  0.00675469  0.74467927  1
  Na  Na6  1  0.02573170  0.68399135  0.58456519  1
  Na  Na7  1  0.66808939  0.97885390  0.57777861  1
  Na  Na8  1  0.32044231  0.98112125  0.08332573  1
  Na  Na9  1  0.65595322  0.68423737  0.08360669  1
  Na  Na10  1  0.02419034  0.33440737  0.07822102  1
  Na  Na11  1  0.33328162  0.30465688  0.91863045  1
  Na  Na12  1  0.97026420  0.28806205  0.41669003  1
  Na  Na13  1  0.31777659  0.03023739  0.41547100  1
  Na  Na14  1  0.71296239  0.68191688  0.41541777  1
  Na  Na15  1  0.00920597  0.01306880  0.49365826  1
  Na  Na16  1  0.98281579  0.99409884  0.99659621  1
  Na  Na17  1  0.69195336  0.34984726  0.83485810  1
  Na  Na18  1  0.66457482  0.33309143  0.33399864  1
  Na  Na19  1  0.34185268  0.66885533  0.16453935  1
  Na  Na20  1  0.32071733  0.64663965  0.66297185  1
  Ca  Ca21  1  0.99901822  0.00042756  0.35273813  1
  Ca  Ca22  1  0.66895958  0.33735888  0.68231619  1
  Ca  Ca23  1  0.66416576  0.33142543  0.17666197  1
  Hf  Hf24  1  0.99098387  0.99109032  0.85644260  1
  Hf  Hf25  1  0.00621868  0.00361500  0.64635239  1
  Hf  Hf26  1  0.00010043  0.00317462  0.14792909  1
  Hf  Hf27  1  0.67087508  0.33096867  0.98022750  1
  Hf  Hf28  1  0.66840524  0.33168290  0.48205274  1
  Hf  Hf29  1  0.33656718  0.66494319  0.01338068  1
  Hf  Hf30  1  0.33083604  0.65949559  0.51765130  1
  Hf  Hf31  1  0.33385814  0.66627527  0.31751209  1
  Hf  Hf32  1  0.32753738  0.66296201  0.81669970  1
  Si  Si33  1  0.00768203  0.71186009  0.75043888  1
  Si  Si34  1  0.97107453  0.33405442  0.58583999  1
  Si  Si35  1  0.66390422  0.02905396  0.08495985  1
  Si  Si36  1  0.36432806  0.33481336  0.08274133  1
  Si  Si37  1  0.62902545  0.66219582  0.91563476  1
  Si  Si38  1  0.03286848  0.36900825  0.91575523  1
  Si  Si39  1  0.62129476  0.96377120  0.41923499  1
  Si  Si40  1  0.34305369  0.37713873  0.41609830  1
  Si  Si41  1  0.03637387  0.65894886  0.41834869  1
  P  P42  1  0.29647013  0.99325339  0.25061117  1
  P  P43  1  0.69747085  0.70290759  0.25049753  1
  P  P44  1  0.00674481  0.30464852  0.25039015  1
  P  P45  1  0.28372018  0.29092571  0.75373905  1
  P  P46  1  0.70802337  0.99171548  0.75073561  1
  P  P47  1  0.36565747  0.03259786  0.58414420  1
  P  P48  1  0.66751262  0.63639727  0.58516940  1
  P  P49  1  0.96816360  0.63507950  0.08282500  1
  P  P50  1  0.33575320  0.96282373  0.91621457  1
  O  O51  1  0.21625983  0.01119030  0.30668113  1
  O  O52  1  0.79457473  0.78128763  0.30703993  1
  O  O53  1  0.98394761  0.20546557  0.30648008  1
  O  O54  1  0.19604874  0.19002525  0.80955363  1
  O  O55  1  0.99699493  0.82292781  0.80472930  1
  O  O56  1  0.82239673  0.01368403  0.80413189  1
  O  O57  1  0.79502360  0.97269367  0.69403518  1
  O  O58  1  0.17079729  0.19922634  0.69888072  1
  O  O59  1  0.02788261  0.82288564  0.69014918  1
  O  O60  1  0.79665976  0.81613040  0.19554749  1
  O  O61  1  0.02072619  0.20372143  0.19548068  1
  O  O62  1  0.18293164  0.97736505  0.19521350  1
  O  O63  1  0.90387283  0.37315869  0.64580817  1
  O  O64  1  0.46387750  0.10089967  0.64131474  1
  O  O65  1  0.63802265  0.54308746  0.64300923  1
  O  O66  1  0.91329843  0.53636148  0.14088015  1
  O  O67  1  0.62095374  0.08509845  0.14651318  1
  O  O68  1  0.47166075  0.38578619  0.14281253  1
  O  O69  1  0.46123497  0.30117103  0.02765563  1
  O  O70  1  0.84017022  0.53912353  0.03258849  1
  O  O71  1  0.70176171  0.16921731  0.03306780  1
  O  O72  1  0.45843388  0.14707093  0.53023154  1
  O  O73  1  0.69121317  0.54110075  0.53201632  1
  O  O74  1  0.83990822  0.30560031  0.53024010  1
  O  O75  1  0.53581440  0.68490623  0.97357785  1
  O  O76  1  0.15165481  0.46422403  0.97278630  1
  O  O77  1  0.31205646  0.85524472  0.97143831  1
  O  O78  1  0.52626508  0.85169094  0.47679396  1
  O  O79  1  0.32266229  0.48124719  0.47003814  1
  O  O80  1  0.15349116  0.67967036  0.47517754  1
  O  O81  1  0.12708604  0.63235200  0.35841431  1
  O  O82  1  0.50510347  0.86976321  0.35947046  1
  O  O83  1  0.36752500  0.49012164  0.35540997  1
  O  O84  1  0.12848739  0.48738396  0.85758411  1
  O  O85  1  0.35632587  0.87419604  0.86079715  1
  O  O86  1  0.50843714  0.63792658  0.85803862  1
  O  O87  1  0.01396413  0.82098961  0.41785339  1
  O  O88  1  0.80626915  0.98778028  0.41832817  1
  O  O89  1  0.18064535  0.19359933  0.41692675  1
  O  O90  1  0.03095591  0.19010689  0.91168222  1
  O  O91  1  0.18285222  0.98990142  0.91082725  1
  O  O92  1  0.81482232  0.82780418  0.91199949  1
  O  O93  1  0.97372610  0.15605496  0.58834541  1
  O  O94  1  0.18652690  0.01185554  0.58685383  1
  O  O95  1  0.83534788  0.81078826  0.58747930  1
  O  O96  1  0.97842685  0.80988305  0.08874496  1
  O  O97  1  0.83369164  0.00979595  0.08875284  1
  O  O98  1  0.17944042  0.15975893  0.08906015  1
  O  O99  1  0.68268099  0.14387297  0.74922677  1
  O  O100  1  0.45741414  0.30807880  0.74984872  1
  O  O101  1  0.84125633  0.52886736  0.75342228  1
  O  O102  1  0.67461887  0.52629042  0.24573286  1
  O  O103  1  0.85697429  0.33309460  0.24427295  1
  O  O104  1  0.47299447  0.14679264  0.24631624  1
  O  O105  1  0.63341303  0.48709743  0.92260867  1
  O  O106  1  0.84819649  0.34912206  0.92223025  1
  O  O107  1  0.49311277  0.13930927  0.92208406  1
  O  O108  1  0.62734469  0.14582566  0.42243092  1
  O  O109  1  0.51749509  0.37131166  0.42297558  1
  O  O110  1  0.85349660  0.48509913  0.42341372  1
  O  O111  1  0.32723958  0.49112000  0.07263108  1
  O  O112  1  0.14687124  0.66722355  0.06993542  1
  O  O113  1  0.50035195  0.84287739  0.07250499  1
  O  O114  1  0.34225553  0.85371676  0.57665947  1
  O  O115  1  0.52367502  0.67571948  0.57623176  1
  O  O116  1  0.15628235  0.49991297  0.57700608  1
  O  O117  1  0.30241140  0.82490669  0.25037373  1
  O  O118  1  0.52403242  0.69789385  0.24990449  1
  O  O119  1  0.17597358  0.47679573  0.24970593  1
  O  O120  1  0.30005816  0.46949685  0.75459567  1
  O  O121  1  0.18308691  0.70181076  0.75391450  1
  O  O122  1  0.53448893  0.82648639  0.75534897  1
