# generated using pymatgen
data_Na2In8SiS11O48
_symmetry_space_group_name_H-M   'P 1'
_cell_length_a   17.82362611
_cell_length_b   8.90903718
_cell_length_c   23.42650809
_cell_angle_alpha   89.97134357
_cell_angle_beta   89.98654934
_cell_angle_gamma   120.07569574
_symmetry_Int_Tables_number   1
_chemical_formula_structural   Na2In8SiS11O48
_chemical_formula_sum   'Na6 In24 Si3 S33 O144'
_cell_volume   3219.09011262
_cell_formula_units_Z   3
loop_
 _symmetry_equiv_pos_site_id
 _symmetry_equiv_pos_as_xyz
  1  'x, y, z'
loop_
 _atom_site_type_symbol
 _atom_site_label
 _atom_site_symmetry_multiplicity
 _atom_site_fract_x
 _atom_site_fract_y
 _atom_site_fract_z
 _atom_site_occupancy
  Na  Na0  1  0.00150869  0.98867276  0.49913468  1
  Na  Na1  1  0.50159131  0.01415092  0.99412233  1
  Na  Na2  1  0.33912825  0.33369450  0.83620933  1
  Na  Na3  1  0.83944983  0.34840139  0.82826904  1
  Na  Na4  1  0.33111457  0.33027132  0.33446686  1
  Na  Na5  1  0.84199274  0.34686438  0.33821154  1
  In  In6  1  0.00163970  0.99095098  0.35303365  1
  In  In7  1  0.49941124  0.99979108  0.35399716  1
  In  In8  1  0.99896928  0.99025516  0.85030165  1
  In  In9  1  0.50084364  0.01247955  0.85220731  1
  In  In10  1  0.99928754  0.99370990  0.65366446  1
  In  In11  1  0.50109829  0.00000698  0.64731175  1
  In  In12  1  0.99983074  0.00112255  0.14597984  1
  In  In13  1  0.50011295  0.99965865  0.14948571  1
  In  In14  1  0.33239704  0.33427798  0.68453288  1
  In  In15  1  0.83929724  0.34493617  0.68642565  1
  In  In16  1  0.33211424  0.33313513  0.18170536  1
  In  In17  1  0.83499846  0.33224709  0.18272211  1
  In  In18  1  0.33812801  0.33446469  0.97898827  1
  In  In19  1  0.83398603  0.33493788  0.98153130  1
  In  In20  1  0.33302772  0.33292291  0.48486811  1
  In  In21  1  0.84038892  0.34381027  0.48263845  1
  In  In22  1  0.16507983  0.66452097  0.01722585  1
  In  In23  1  0.66392248  0.65852086  0.01580513  1
  In  In24  1  0.16183344  0.66832739  0.51967096  1
  In  In25  1  0.66665400  0.66799532  0.52159795  1
  In  In26  1  0.16109677  0.66454129  0.31644475  1
  In  In27  1  0.66747576  0.66634855  0.31429337  1
  In  In28  1  0.16141458  0.66823192  0.81027305  1
  In  In29  1  0.66329908  0.65805337  0.81480483  1
  Si  Si30  1  0.99848128  0.70521317  0.75051834  1
  Si  Si31  1  0.52011730  0.37275009  0.91655132  1
  Si  Si32  1  0.01867560  0.66511993  0.41686300  1
  S  S33  1  0.14830551  0.00331439  0.24868352  1
  S  S34  1  0.64697512  0.00123428  0.25099572  1
  S  S35  1  0.35243334  0.70599823  0.25119388  1
  S  S36  1  0.85252806  0.70473970  0.24923622  1
  S  S37  1  0.99954702  0.28894026  0.25021844  1
  S  S38  1  0.49939369  0.29333184  0.25054873  1
  S  S39  1  0.14885060  0.29536388  0.75057732  1
  S  S40  1  0.64626386  0.29100434  0.74887574  1
  S  S41  1  0.49956648  0.70963258  0.75037582  1
  S  S42  1  0.35445981  0.00179976  0.74895363  1
  S  S43  1  0.85024698  0.99704843  0.75155106  1
  S  S44  1  0.47957606  0.33264907  0.58348839  1
  S  S45  1  0.98079471  0.32619091  0.58387698  1
  S  S46  1  0.18629745  0.04129806  0.58323376  1
  S  S47  1  0.68882175  0.04577647  0.58300481  1
  S  S48  1  0.33283166  0.62802706  0.58286247  1
  S  S49  1  0.83292913  0.62942520  0.58241564  1
  S  S50  1  0.48052605  0.62943512  0.08413671  1
  S  S51  1  0.98061926  0.62731054  0.08335731  1
  S  S52  1  0.33285569  0.03669604  0.08368444  1
  S  S53  1  0.83193955  0.03756865  0.08285065  1
  S  S54  1  0.18752489  0.33425888  0.08217326  1
  S  S55  1  0.68685725  0.33300926  0.08403678  1
  S  S56  1  0.31076862  0.66634570  0.91595842  1
  S  S57  1  0.81474308  0.66842342  0.91737330  1
  S  S58  1  0.01955754  0.36921703  0.91665140  1
  S  S59  1  0.16606430  0.95905142  0.91735416  1
  S  S60  1  0.66808085  0.96254873  0.91682175  1
  S  S61  1  0.31457510  0.96257189  0.41628210  1
  S  S62  1  0.81138989  0.95841262  0.41658165  1
  S  S63  1  0.16910134  0.37509715  0.41664359  1
  S  S64  1  0.66580956  0.37372212  0.41622779  1
  S  S65  1  0.52003924  0.66479373  0.41619322  1
  O  O66  1  0.11103035  0.03729347  0.29989197  1
  O  O67  1  0.60736871  0.03143553  0.30204436  1
  O  O68  1  0.40847960  0.78443794  0.30196061  1
  O  O69  1  0.90544513  0.78167273  0.30060690  1
  O  O70  1  0.48417578  0.18458134  0.30174630  1
  O  O71  1  0.98441632  0.18056425  0.30171217  1
  O  O72  1  0.11035931  0.18917707  0.80218546  1
  O  O73  1  0.60834919  0.18344931  0.80032605  1
  O  O74  1  0.48433999  0.78760241  0.80167633  1
  O  O75  1  0.97859167  0.78123091  0.80808648  1
  O  O76  1  0.40812776  0.03430073  0.80022203  1
  O  O77  1  0.90564089  0.03403341  0.80254292  1
  O  O78  1  0.39406481  0.97784578  0.69673495  1
  O  O79  1  0.88803008  0.97220051  0.69892885  1
  O  O80  1  0.09776863  0.22298471  0.69819447  1
  O  O81  1  0.59208788  0.21276028  0.69731323  1
  O  O82  1  0.01664056  0.81720552  0.69214628  1
  O  O83  1  0.51054962  0.81144854  0.69782871  1
  O  O84  1  0.39158674  0.81095254  0.19899984  1
  O  O85  1  0.89177393  0.80957080  0.19734861  1
  O  O86  1  0.01035138  0.20823167  0.19789409  1
  O  O87  1  0.51304403  0.21552454  0.19851824  1
  O  O88  1  0.09517477  0.97740427  0.19713685  1
  O  O89  1  0.59437027  0.97323037  0.19890219  1
  O  O90  1  0.44041992  0.36416539  0.63437815  1
  O  O91  1  0.94045940  0.35421611  0.63428943  1
  O  O92  1  0.23984749  0.12340764  0.63441296  1
  O  O93  1  0.74257612  0.12340082  0.63443817  1
  O  O94  1  0.31744767  0.51874525  0.63403861  1
  O  O95  1  0.81797229  0.52268062  0.63362599  1
  O  O96  1  0.44141468  0.52453800  0.13662205  1
  O  O97  1  0.94245149  0.51994059  0.13531261  1
  O  O98  1  0.32000156  0.11347953  0.13639979  1
  O  O99  1  0.81668871  0.11390605  0.13508834  1
  O  O100  1  0.24017023  0.36602233  0.13495344  1
  O  O101  1  0.73839124  0.35485842  0.13627926  1
  O  O102  1  0.22838453  0.30408799  0.03205958  1
  O  O103  1  0.72518974  0.30042819  0.03274332  1
  O  O104  1  0.42472727  0.55213883  0.03378151  1
  O  O105  1  0.92552299  0.54920473  0.03251078  1
  O  O106  1  0.34836273  0.14618856  0.03318811  1
  O  O107  1  0.84869167  0.15022434  0.03235704  1
  O  O108  1  0.22582244  0.14760599  0.53077453  1
  O  O109  1  0.72749403  0.15136520  0.53092509  1
  O  O110  1  0.34979442  0.55178969  0.53134213  1
  O  O111  1  0.84644993  0.55160843  0.53069451  1
  O  O112  1  0.42665226  0.30224064  0.53134031  1
  O  O113  1  0.92733819  0.29380275  0.53183590  1
  O  O114  1  0.27369071  0.69545678  0.96897370  1
  O  O115  1  0.77604284  0.69262253  0.96984084  1
  O  O116  1  0.07047497  0.44554989  0.96962710  1
  O  O117  1  0.57492757  0.44737872  0.97548737  1
  O  O118  1  0.15341290  0.85473671  0.96997588  1
  O  O119  1  0.65680415  0.86385569  0.96988436  1
  O  O120  1  0.27705974  0.85836436  0.46799358  1
  O  O121  1  0.77187506  0.84907883  0.46782797  1
  O  O122  1  0.15826020  0.45347390  0.46891097  1
  O  O123  1  0.65187716  0.45408802  0.46734191  1
  O  O124  1  0.07738121  0.70247150  0.47364515  1
  O  O125  1  0.57286304  0.69157941  0.46761876  1
  O  O126  1  0.05646853  0.62892250  0.35832320  1
  O  O127  1  0.55827350  0.63466245  0.36416503  1
  O  O128  1  0.26317440  0.88779590  0.36380222  1
  O  O129  1  0.75926915  0.87955800  0.36412710  1
  O  O130  1  0.18533528  0.47958623  0.36427001  1
  O  O131  1  0.68076175  0.48078376  0.36394650  1
  O  O132  1  0.05912548  0.48009810  0.86665889  1
  O  O133  1  0.55973705  0.48869634  0.85940180  1
  O  O134  1  0.18354959  0.88215236  0.86712986  1
  O  O135  1  0.68402463  0.88886594  0.86524403  1
  O  O136  1  0.25782199  0.64275112  0.86477225  1
  O  O137  1  0.76176380  0.63706736  0.86575558  1
  O  O138  1  0.00941574  0.84050763  0.41409999  1
  O  O139  1  0.51161086  0.82006925  0.40881745  1
  O  O140  1  0.40176829  0.98220050  0.40929458  1
  O  O141  1  0.89861521  0.97950837  0.41051271  1
  O  O142  1  0.08955510  0.20354886  0.41059895  1
  O  O143  1  0.58666813  0.20248043  0.40868566  1
  O  O144  1  0.01000774  0.19642311  0.90906398  1
  O  O145  1  0.50955413  0.17809758  0.91446886  1
  O  O146  1  0.08913368  0.97717876  0.91164145  1
  O  O147  1  0.58882311  0.97563982  0.91117385  1
  O  O148  1  0.39893143  0.81846703  0.91087339  1
  O  O149  1  0.90048721  0.82411589  0.91233602  1
  O  O150  1  0.48846077  0.17805659  0.59095019  1
  O  O151  1  0.98935771  0.16803607  0.59038499  1
  O  O152  1  0.10031031  0.02772313  0.58703709  1
  O  O153  1  0.60145703  0.02502711  0.59014696  1
  O  O154  1  0.41089519  0.79988021  0.59080173  1
  O  O155  1  0.91005328  0.80562330  0.58684360  1
  O  O156  1  0.48791625  0.80461940  0.09050717  1
  O  O157  1  0.98868291  0.79937184  0.09139937  1
  O  O158  1  0.41244176  0.02054280  0.09010329  1
  O  O159  1  0.91039076  0.02306285  0.09099982  1
  O  O160  1  0.10140049  0.17826435  0.09039694  1
  O  O161  1  0.59883588  0.17356893  0.08982005  1
  O  O162  1  0.34549060  0.16028307  0.74303897  1
  O  O163  1  0.83829259  0.14999530  0.74481217  1
  O  O164  1  0.23653261  0.30910662  0.74473755  1
  O  O165  1  0.73177680  0.30284330  0.74241454  1
  O  O166  1  0.42030311  0.53300483  0.74441354  1
  O  O167  1  0.91084957  0.51141243  0.74794228  1
  O  O168  1  0.34446508  0.53088316  0.24465604  1
  O  O169  1  0.84290154  0.52801988  0.24313934  1
  O  O170  1  0.42054341  0.31107969  0.24415118  1
  O  O171  1  0.92022277  0.30716566  0.24454768  1
  O  O172  1  0.23668815  0.16358099  0.24299293  1
  O  O173  1  0.73450818  0.15852027  0.24450972  1
  O  O174  1  0.31637350  0.50619891  0.92223882  1
  O  O175  1  0.82254232  0.50775105  0.92320185  1
  O  O176  1  0.42341283  0.35490642  0.91896382  1
  O  O177  1  0.93188510  0.35335954  0.92325227  1
  O  O178  1  0.24414760  0.13447531  0.92371008  1
  O  O179  1  0.74649915  0.14051981  0.92257607  1
  O  O180  1  0.32425952  0.13987856  0.42198604  1
  O  O181  1  0.81667018  0.12849254  0.42246256  1
  O  O182  1  0.24744512  0.35298881  0.42183600  1
  O  O183  1  0.74205231  0.35199690  0.42221866  1
  O  O184  1  0.43200216  0.50755080  0.42213088  1
  O  O185  1  0.92157597  0.49036342  0.41925929  1
  O  O186  1  0.17847706  0.48922401  0.07484475  1
  O  O187  1  0.67986413  0.48904852  0.07873358  1
  O  O188  1  0.06663562  0.64427999  0.07582616  1
  O  O189  1  0.56689903  0.65053235  0.07820799  1
  O  O190  1  0.25568248  0.86376853  0.07673564  1
  O  O191  1  0.75464236  0.86576261  0.07458808  1
  O  O192  1  0.18154761  0.87239862  0.57794764  1
  O  O193  1  0.67873520  0.87081724  0.57550906  1
  O  O194  1  0.25522292  0.64375767  0.57388176  1
  O  O195  1  0.75378578  0.64396710  0.57570147  1
  O  O196  1  0.06719027  0.48037191  0.57737876  1
  O  O197  1  0.56566246  0.48890902  0.57572331  1
  O  O198  1  0.15897754  0.85107423  0.25486614  1
  O  O199  1  0.65518090  0.84547539  0.25822780  1
  O  O200  1  0.26668140  0.68881789  0.25921282  1
  O  O201  1  0.76579072  0.68665114  0.25618578  1
  O  O202  1  0.07791526  0.46014452  0.25525775  1
  O  O203  1  0.57706792  0.46573356  0.25764986  1
  O  O204  1  0.16161177  0.46995275  0.75792479  1
  O  O205  1  0.65629185  0.46412557  0.75480267  1
  O  O206  1  0.08449133  0.68843870  0.75527550  1
  O  O207  1  0.57766588  0.69526830  0.75553641  1
  O  O208  1  0.26971488  0.84646788  0.75618471  1
  O  O209  1  0.76473139  0.83855048  0.75964099  1
