# generated using pymatgen
data_Na6Mg3GeP4(SO12)2
_symmetry_space_group_name_H-M   'P 1'
_cell_length_a   8.85497177
_cell_length_b   8.84657099
_cell_length_c   21.92359066
_cell_angle_alpha   90.49219515
_cell_angle_beta   89.61000132
_cell_angle_gamma   120.06627810
_symmetry_Int_Tables_number   1
_chemical_formula_structural   Na6Mg3GeP4(SO12)2
_chemical_formula_sum   'Na18 Mg9 Ge3 P12 S6 O72'
_cell_volume   1486.26478002
_cell_formula_units_Z   3
loop_
 _symmetry_equiv_pos_site_id
 _symmetry_equiv_pos_as_xyz
  1  'x, y, z'
loop_
 _atom_site_type_symbol
 _atom_site_label
 _atom_site_symmetry_multiplicity
 _atom_site_fract_x
 _atom_site_fract_y
 _atom_site_fract_z
 _atom_site_occupancy
  Na  Na0  1  0.36401459  0.36380215  0.25302031  1
  Na  Na1  1  0.63980671  0.63832099  0.74739071  1
  Na  Na2  1  0.99579457  0.35260369  0.75016202  1
  Na  Na3  1  0.29643422  0.33913461  0.58364616  1
  Na  Na4  1  0.03018015  0.69561527  0.58060528  1
  Na  Na5  1  0.67059084  0.96163851  0.58186532  1
  Na  Na6  1  0.29207449  0.96222308  0.08020144  1
  Na  Na7  1  0.66496787  0.69503446  0.08200448  1
  Na  Na8  1  0.04151476  0.33971018  0.08255407  1
  Na  Na9  1  0.32419709  0.29666057  0.91308225  1
  Na  Na10  1  0.97908649  0.30631680  0.41432996  1
  Na  Na11  1  0.69394081  0.67421803  0.41446403  1
  Na  Na12  1  0.00502578  0.00033892  0.49497939  1
  Na  Na13  1  0.99473788  0.98903166  0.99285494  1
  Na  Na14  1  0.65917119  0.31424385  0.83177359  1
  Na  Na15  1  0.66500879  0.32060962  0.33245956  1
  Na  Na16  1  0.32598080  0.67049012  0.17021143  1
  Na  Na17  1  0.33730241  0.66991825  0.66774454  1
  Mg  Mg18  1  0.00433478  0.99783313  0.35307506  1
  Mg  Mg19  1  0.99706890  0.00197197  0.85255657  1
  Mg  Mg20  1  0.99155931  0.00428204  0.65246110  1
  Mg  Mg21  1  0.00348896  0.99572692  0.14967719  1
  Mg  Mg22  1  0.66034966  0.32777015  0.68653449  1
  Mg  Mg23  1  0.67293357  0.33843999  0.18524310  1
  Mg  Mg24  1  0.33087073  0.66557958  0.01534464  1
  Mg  Mg25  1  0.33261136  0.66438394  0.51330515  1
  Mg  Mg26  1  0.33430146  0.67539258  0.32125508  1
  Ge  Ge27  1  0.67032124  0.34412959  0.97651699  1
  Ge  Ge28  1  0.67246260  0.33750165  0.47917374  1
  Ge  Ge29  1  0.34287319  0.67162227  0.82204825  1
  P  P30  1  0.29659580  0.29992754  0.75311492  1
  P  P31  1  0.69633587  0.99462065  0.75219710  1
  P  P32  1  0.95669033  0.33500703  0.58356047  1
  P  P33  1  0.66678214  0.62278478  0.58376823  1
  P  P34  1  0.95446653  0.61960427  0.08225335  1
  P  P35  1  0.37857127  0.33425745  0.08312697  1
  P  P36  1  0.62938374  0.66781710  0.91957029  1
  P  P37  1  0.03617837  0.37711165  0.91825518  1
  P  P38  1  0.33860507  0.96104602  0.91974971  1
  P  P39  1  0.62680119  0.96758217  0.41956978  1
  P  P40  1  0.33844257  0.36741748  0.41813301  1
  P  P41  1  0.03710650  0.66635572  0.41965610  1
  S  S42  1  0.29595850  0.99770789  0.24879974  1
  S  S43  1  0.70322505  0.70566625  0.24974607  1
  S  S44  1  0.99864929  0.29492268  0.24987307  1
  S  S45  1  0.00845726  0.71022108  0.75053656  1
  S  S46  1  0.37684869  0.04404284  0.58272413  1
  S  S47  1  0.66702238  0.04610195  0.08282654  1
  O  O48  1  0.20792761  0.02603704  0.30094879  1
  O  O49  1  0.80767933  0.79212307  0.30445667  1
  O  O50  1  0.98066041  0.19034506  0.30454264  1
  O  O51  1  0.21044146  0.19111134  0.80922924  1
  O  O52  1  0.98049893  0.79498496  0.80333034  1
  O  O53  1  0.81853244  0.02349637  0.80475721  1
  O  O54  1  0.76126341  0.94914061  0.69231770  1
  O  O55  1  0.18509923  0.22626379  0.69456049  1
  O  O56  1  0.03245910  0.80872508  0.69344765  1
  O  O57  1  0.78616278  0.80690323  0.19355935  1
  O  O58  1  0.02398376  0.21137265  0.19379648  1
  O  O59  1  0.19707268  0.97646177  0.19121358  1
  O  O60  1  0.87139669  0.36126683  0.64016282  1
  O  O61  1  0.48585640  0.12439979  0.63667093  1
  O  O62  1  0.63685332  0.50968231  0.63966563  1
  O  O63  1  0.87206401  0.50142447  0.13648428  1
  O  O64  1  0.63722604  0.12516126  0.13685859  1
  O  O65  1  0.48893314  0.36046703  0.13949572  1
  O  O66  1  0.46531346  0.29865954  0.02412020  1
  O  O67  1  0.83101170  0.53370900  0.02397334  1
  O  O68  1  0.70174404  0.15786262  0.02717056  1
  O  O69  1  0.45640683  0.15692436  0.52731053  1
  O  O70  1  0.69691844  0.53280647  0.52495424  1
  O  O71  1  0.83547286  0.30095600  0.52539841  1
  O  O72  1  0.54563928  0.68843451  0.97656490  1
  O  O73  1  0.14662743  0.45790990  0.97468902  1
  O  O74  1  0.31719780  0.86086400  0.97758146  1
  O  O75  1  0.55174892  0.85989850  0.47777706  1
  O  O76  1  0.30793681  0.44994883  0.47532009  1
  O  O77  1  0.13740694  0.69098399  0.47872103  1
  O  O78  1  0.11603337  0.62260814  0.36504254  1
  O  O79  1  0.51461889  0.88539489  0.36364709  1
  O  O80  1  0.37950414  0.48369875  0.36116456  1
  O  O81  1  0.12494656  0.49661621  0.85937346  1
  O  O82  1  0.37177821  0.87151685  0.86205679  1
  O  O83  1  0.50413391  0.62491899  0.86154829  1
  O  O84  1  -0.00011378  0.81654841  0.41141794  1
  O  O85  1  0.81383793  0.99516912  0.41195434  1
  O  O86  1  0.17602954  0.18729376  0.41021188  1
  O  O87  1  0.01868810  0.19770129  0.90970616  1
  O  O88  1  0.18439659  0.99043690  0.91035368  1
  O  O89  1  0.81059227  0.82138879  0.90951262  1
  O  O90  1  0.97555320  0.16978474  0.58562813  1
  O  O91  1  0.20081059  0.02514313  0.58832162  1
  O  O92  1  0.83577913  0.80383486  0.58623984  1
  O  O93  1  0.96837635  0.80167087  0.08630428  1
  O  O94  1  0.82445999  0.02608070  0.08806951  1
  O  O95  1  0.19358470  0.16940429  0.08557917  1
  O  O96  1  0.67977130  0.15838069  0.74519923  1
  O  O97  1  0.48489076  0.33653947  0.74665703  1
  O  O98  1  0.85110018  0.53106069  0.74590131  1
  O  O99  1  0.68179773  0.52678900  0.24632153  1
  O  O100  1  0.84256346  0.31293542  0.24512410  1
  O  O101  1  0.47146289  0.15986285  0.24450164  1
  O  O102  1  0.63356314  0.48825312  0.92137054  1
  O  O103  1  0.84984998  0.36052497  0.92244461  1
  O  O104  1  0.50948426  0.15269639  0.92256305  1
  O  O105  1  0.65084012  0.15895809  0.42592161  1
  O  O106  1  0.51147583  0.35542902  0.42592830  1
  O  O107  1  0.84562747  0.49069490  0.42431014  1
  O  O108  1  0.35994306  0.49814930  0.07711456  1
  O  O109  1  0.14013727  0.64658088  0.07566979  1
  O  O110  1  0.51126044  0.86877548  0.07674330  1
  O  O111  1  0.35739663  0.86816000  0.57627749  1
  O  O112  1  0.50588241  0.64586267  0.57719085  1
  O  O113  1  0.13923328  0.49892402  0.57713686  1
  O  O114  1  0.31402422  0.84136520  0.25482714  1
  O  O115  1  0.52452087  0.68285461  0.25360806  1
  O  O116  1  0.16155709  0.46951935  0.25420431  1
  O  O117  1  0.30918151  0.49092528  0.75995024  1
  O  O118  1  0.16551069  0.68693658  0.75642864  1
  O  O119  1  0.50925580  0.82024682  0.76139176  1
