# generated using pymatgen
data_Na3ScTa3Si3(PO8)3
_symmetry_space_group_name_H-M   'P 1'
_cell_length_a   8.87315243
_cell_length_b   8.89509695
_cell_length_c   22.84951522
_cell_angle_alpha   89.94890470
_cell_angle_beta   89.99295297
_cell_angle_gamma   119.90169192
_symmetry_Int_Tables_number   1
_chemical_formula_structural   Na3ScTa3Si3(PO8)3
_chemical_formula_sum   'Na9 Sc3 Ta9 Si9 P9 O72'
_cell_volume   1563.38288124
_cell_formula_units_Z   3
loop_
 _symmetry_equiv_pos_site_id
 _symmetry_equiv_pos_as_xyz
  1  'x, y, z'
loop_
 _atom_site_type_symbol
 _atom_site_label
 _atom_site_symmetry_multiplicity
 _atom_site_fract_x
 _atom_site_fract_y
 _atom_site_fract_z
 _atom_site_occupancy
  Na  Na0  1  0.63957862  0.00285407  0.24906141  1
  Na  Na1  1  0.37099253  0.36248951  0.24798660  1
  Na  Na2  1  0.70753561  0.67549516  0.41452414  1
  Na  Na3  1  0.00719917  0.00714836  0.49445069  1
  Na  Na4  1  0.00149187  0.00125873  0.99967755  1
  Na  Na5  1  0.66716696  0.33302537  0.83047981  1
  Na  Na6  1  0.67541401  0.33782350  0.33231218  1
  Na  Na7  1  0.32801994  0.66434062  0.16419338  1
  Na  Na8  1  0.33535852  0.66594070  0.66548517  1
  Sc  Sc9  1  0.00103219  0.99907597  0.35619792  1
  Sc  Sc10  1  0.66439958  0.33672864  0.68622836  1
  Sc  Sc11  1  0.67047722  0.34466988  0.18298022  1
  Ta  Ta12  1  0.00096693  0.00105437  0.85630154  1
  Ta  Ta13  1  0.99789122  0.99778043  0.64439042  1
  Ta  Ta14  1  0.99810134  0.99818748  0.14490275  1
  Ta  Ta15  1  0.66098346  0.33138758  0.97727814  1
  Ta  Ta16  1  0.66786379  0.33436609  0.47897528  1
  Ta  Ta17  1  0.33398838  0.66376903  0.01910570  1
  Ta  Ta18  1  0.33504587  0.66586391  0.52031247  1
  Ta  Ta19  1  0.33258160  0.66729447  0.31532774  1
  Ta  Ta20  1  0.33329226  0.66649775  0.81299302  1
  Si  Si21  1  0.71071421  0.70584846  0.25167946  1
  Si  Si22  1  0.66450508  0.62110359  0.58434101  1
  Si  Si23  1  0.37497556  0.33396027  0.08418726  1
  Si  Si24  1  0.62094667  0.66689362  0.91609602  1
  Si  Si25  1  0.04523329  0.38013477  0.91624310  1
  Si  Si26  1  0.33403890  0.95249903  0.91657901  1
  Si  Si27  1  0.62167977  0.95960772  0.41755898  1
  Si  Si28  1  0.32855355  0.37306696  0.41779345  1
  Si  Si29  1  0.04550879  0.66671422  0.41837778  1
  P  P30  1  0.28762520  0.99687360  0.24960239  1
  P  P31  1  0.99907470  0.28932925  0.24986575  1
  P  P32  1  0.28619009  0.28711707  0.75028445  1
  P  P33  1  0.00096791  0.71393470  0.75047242  1
  P  P34  1  0.71285987  0.99958355  0.75042043  1
  P  P35  1  0.95576474  0.33438049  0.58441566  1
  P  P36  1  0.37884016  0.04435652  0.58426907  1
  P  P37  1  0.95758113  0.62315621  0.08242058  1
  P  P38  1  0.66503491  0.04326241  0.08376701  1
  O  O39  1  0.21040831  0.03494403  0.30298780  1
  O  O40  1  0.81824838  0.79327799  0.30989035  1
  O  O41  1  0.97034676  0.17756548  0.30368988  1
  O  O42  1  0.19043699  0.17324346  0.80449758  1
  O  O43  1  0.98168972  0.80897291  0.80446794  1
  O  O44  1  0.82692207  0.01779831  0.80445459  1
  O  O45  1  0.80462125  0.97354431  0.69572286  1
  O  O46  1  0.16992483  0.19752619  0.69574054  1
  O  O47  1  0.02766644  0.83172282  0.69579762  1
  O  O48  1  0.80538829  0.83833525  0.19420055  1
  O  O49  1  0.03410894  0.20198544  0.19462265  1
  O  O50  1  0.17086341  0.97228043  0.19435883  1
  O  O51  1  0.87628515  0.36264702  0.63893434  1
  O  O52  1  0.48766313  0.12078231  0.63877742  1
  O  O53  1  0.63336893  0.50558097  0.64118013  1
  O  O54  1  0.88420783  0.51633853  0.13765040  1
  O  O55  1  0.63726685  0.11613073  0.14041563  1
  O  O56  1  0.48268513  0.36590049  0.14362995  1
  O  O57  1  0.47276693  0.30570279  0.02727896  1
  O  O58  1  0.84152124  0.53633274  0.02824783  1
  O  O59  1  0.69599061  0.16087394  0.02962548  1
  O  O60  1  0.46419005  0.15963952  0.52914054  1
  O  O61  1  0.69706085  0.53434820  0.52503611  1
  O  O62  1  0.83976288  0.30160275  0.52915211  1
  O  O63  1  0.53113605  0.69888818  0.97338246  1
  O  O64  1  0.16846851  0.47031320  0.97324904  1
  O  O65  1  0.30192516  0.83277954  0.97397957  1
  O  O66  1  0.52257503  0.83090092  0.47275322  1
  O  O67  1  0.31153927  0.47772789  0.47359875  1
  O  O68  1  0.16562802  0.68892155  0.47459955  1
  O  O69  1  0.13602731  0.63298495  0.35968579  1
  O  O70  1  0.49955806  0.86812769  0.35767255  1
  O  O71  1  0.37097672  0.50219224  0.35871807  1
  O  O72  1  0.13852603  0.50239967  0.85876298  1
  O  O73  1  0.36370381  0.86074608  0.85885522  1
  O  O74  1  0.49781814  0.63565805  0.85883206  1
  O  O75  1  0.01446129  0.82799137  0.41416633  1
  O  O76  1  0.80457938  0.96751645  0.41318265  1
  O  O77  1  0.16309555  0.18743504  0.41316067  1
  O  O78  1  0.02516891  0.18878146  0.90670513  1
  O  O79  1  0.16476465  0.97624712  0.90660289  1
  O  O80  1  0.81250969  0.83698328  0.90676695  1
  O  O81  1  0.97811403  0.17024831  0.59202289  1
  O  O82  1  0.19414770  0.02716087  0.59202862  1
  O  O83  1  0.83979037  0.81754544  0.59279746  1
  O  O84  1  0.97496971  0.80707150  0.09032741  1
  O  O85  1  0.83127231  0.02338367  0.08994841  1
  O  O86  1  0.18007349  0.15932335  0.09059013  1
  O  O87  1  0.69380619  0.15912921  0.74569714  1
  O  O88  1  0.46499696  0.30426579  0.74694581  1
  O  O89  1  0.84203378  0.53453699  0.74616806  1
  O  O90  1  0.67407040  0.50956630  0.24586678  1
  O  O91  1  0.83736204  0.30451642  0.24164603  1
  O  O92  1  0.47287106  0.15175840  0.24194567  1
  O  O93  1  0.64348093  0.49722276  0.92564843  1
  O  O94  1  0.85410266  0.35799555  0.92632776  1
  O  O95  1  0.50557397  0.14426523  0.92519804  1
  O  O96  1  0.63381000  0.14673037  0.42546986  1
  O  O97  1  0.51263797  0.37112600  0.42554622  1
  O  O98  1  0.85325201  0.49000073  0.42548331  1
  O  O99  1  0.35088598  0.50402036  0.07447793  1
  O  O100  1  0.14305089  0.65077021  0.07392594  1
  O  O101  1  0.50528829  0.86017466  0.07428370  1
  O  O102  1  0.34960871  0.85953846  0.57473379  1
  O  O103  1  0.49816740  0.65107517  0.57567121  1
  O  O104  1  0.13895644  0.49284853  0.57508908  1
  O  O105  1  0.30466480  0.83033781  0.25428349  1
  O  O106  1  0.51438430  0.69376806  0.25447619  1
  O  O107  1  0.16988565  0.46997387  0.25459531  1
  O  O108  1  0.29975338  0.46861404  0.75685030  1
  O  O109  1  0.17013070  0.70175672  0.75640598  1
  O  O110  1  0.53215868  0.83069687  0.75650373  1
