# generated using pymatgen
data_Na24Ta2Zn10Si9(SO8)9
_symmetry_space_group_name_H-M   'P 1'
_cell_length_a   9.21701339
_cell_length_b   9.19698795
_cell_length_c   22.09305455
_cell_angle_alpha   90.70420545
_cell_angle_beta   89.80595191
_cell_angle_gamma   119.78107783
_symmetry_Int_Tables_number   1
_chemical_formula_structural   Na24Ta2Zn10Si9(SO8)9
_chemical_formula_sum   'Na24 Ta2 Zn10 Si9 S9 O72'
_cell_volume   1625.32844083
_cell_formula_units_Z   1
loop_
 _symmetry_equiv_pos_site_id
 _symmetry_equiv_pos_as_xyz
  1  'x, y, z'
loop_
 _atom_site_type_symbol
 _atom_site_label
 _atom_site_symmetry_multiplicity
 _atom_site_fract_x
 _atom_site_fract_y
 _atom_site_fract_z
 _atom_site_occupancy
  Na  Na0  1  0.64871356  0.01164686  0.24145964  1
  Na  Na1  1  0.37368897  0.34591425  0.25354446  1
  Na  Na2  1  0.98723036  0.64624578  0.24761325  1
  Na  Na3  1  0.65094198  0.63526518  0.74861426  1
  Na  Na4  1  0.97912651  0.34097575  0.74946573  1
  Na  Na5  1  0.36647930  0.02489652  0.75081915  1
  Na  Na6  1  0.28266312  0.32387815  0.58879212  1
  Na  Na7  1  0.03343479  0.71147930  0.59564927  1
  Na  Na8  1  0.67646353  0.96252625  0.59009932  1
  Na  Na9  1  0.29067393  0.95934154  0.07924111  1
  Na  Na10  1  0.66692020  0.70792456  0.08446000  1
  Na  Na11  1  0.04095485  0.33322169  0.07297357  1
  Na  Na12  1  0.96844920  0.67841377  0.90366175  1
  Na  Na13  1  0.71642720  0.04834691  0.90067139  1
  Na  Na14  1  0.31301619  0.27325451  0.90660403  1
  Na  Na15  1  0.96647008  0.28400651  0.42349066  1
  Na  Na16  1  0.33596857  0.05342655  0.40950387  1
  Na  Na17  1  0.70608390  0.67636963  0.41484870  1
  Na  Na18  1  0.00108516  0.01247522  0.49773623  1
  Na  Na19  1  0.00707149  0.00915919  0.98865427  1
  Na  Na20  1  0.66641323  0.32739432  0.82833282  1
  Na  Na21  1  0.65067429  0.32695195  0.33415652  1
  Na  Na22  1  0.33621827  0.67528765  0.15914982  1
  Na  Na23  1  0.33714692  0.66521491  0.66614847  1
  Ta  Ta24  1  0.35133395  0.67685572  0.31630726  1
  Ta  Ta25  1  0.32386600  0.66928673  0.81382833  1
  Zn  Zn26  1  0.00396486  0.00087867  0.34878379  1
  Zn  Zn27  1  0.01238922  0.01305469  0.84174589  1
  Zn  Zn28  1  0.00070018  0.00420331  0.68118971  1
  Zn  Zn29  1  0.99407537  0.97036361  0.16704877  1
  Zn  Zn30  1  0.66926869  0.33119828  0.69075413  1
  Zn  Zn31  1  0.64954632  0.33009921  0.18587499  1
  Zn  Zn32  1  0.67094780  0.31805652  0.97404897  1
  Zn  Zn33  1  0.64576518  0.31967168  0.47764277  1
  Zn  Zn34  1  0.31071795  0.66438548  0.99373368  1
  Zn  Zn35  1  0.35612509  0.66642741  0.50590960  1
  Si  Si36  1  0.29920344  0.99685472  0.25004748  1
  Si  Si37  1  0.70437627  0.70188552  0.25090584  1
  Si  Si38  1  0.30240958  0.30392934  0.74944578  1
  Si  Si39  1  0.99786010  0.70438397  0.75104641  1
  Si  Si40  1  0.69922310  0.99491071  0.75044161  1
  Si  Si41  1  0.03561619  0.36660553  0.91975697  1
  Si  Si42  1  0.33409427  0.96794341  0.92216389  1
  Si  Si43  1  0.64006973  0.97167610  0.42175770  1
  Si  Si44  1  0.32718836  0.36639465  0.42002737  1
  S  S45  1  0.00682448  0.30444166  0.24982160  1
  S  S46  1  0.96010164  0.33921716  0.57958204  1
  S  S47  1  0.36566534  0.03079287  0.58014301  1
  S  S48  1  0.66680288  0.62501525  0.58000793  1
  S  S49  1  0.95393915  0.62371163  0.08555971  1
  S  S50  1  0.67505517  0.04188621  0.08536456  1
  S  S51  1  0.36947378  0.33478845  0.08454841  1
  S  S52  1  0.61978687  0.66256677  0.92092465  1
  S  S53  1  0.04598790  0.66492153  0.41825669  1
  O  O54  1  0.21595903  0.03584721  0.30783664  1
  O  O55  1  0.82176352  0.79067446  0.30907710  1
  O  O56  1  0.98246101  0.20631400  0.30468163  1
  O  O57  1  0.22692320  0.18410151  0.80737671  1
  O  O58  1  0.96067655  0.78621994  0.80974972  1
  O  O59  1  0.82052076  0.03250656  0.80792266  1
  O  O60  1  0.76922166  0.94813302  0.68909006  1
  O  O61  1  0.17860318  0.23359693  0.69004026  1
  O  O62  1  0.04769984  0.82248645  0.69120877  1
  O  O63  1  0.76626989  0.82043842  0.19066239  1
  O  O64  1  0.03509877  0.22558835  0.19534139  1
  O  O65  1  0.18768882  0.95583091  0.18795542  1
  O  O66  1  0.86888786  0.34230760  0.63477605  1
  O  O67  1  0.46728548  0.11863473  0.63444851  1
  O  O68  1  0.66240482  0.53091062  0.63441829  1
  O  O69  1  0.86958910  0.53044079  0.14185125  1
  O  O70  1  0.66299825  0.12893962  0.14147925  1
  O  O71  1  0.46129304  0.34378590  0.14182204  1
  O  O72  1  0.45879802  0.32161567  0.03088415  1
  O  O73  1  0.85675042  0.53473076  0.03086558  1
  O  O74  1  0.68254216  0.13744262  0.03086963  1
  O  O75  1  0.44983351  0.12369922  0.52367025  1
  O  O76  1  0.67161750  0.53612101  0.52325486  1
  O  O77  1  0.86622950  0.33412649  0.52349921  1
  O  O78  1  0.54031106  0.67960439  0.97753571  1
  O  O79  1  0.14614322  0.44084512  0.98190296  1
  O  O80  1  0.32334023  0.87192232  0.98533698  1
  O  O81  1  0.55462903  0.86270973  0.48133036  1
  O  O82  1  0.29008737  0.44281088  0.48079808  1
  O  O83  1  0.14299091  0.67994914  0.47293639  1
  O  O84  1  0.13920817  0.65584177  0.36224091  1
  O  O85  1  0.50734084  0.85670644  0.36259370  1
  O  O86  1  0.33918082  0.49513669  0.36200346  1
  O  O87  1  0.15466747  0.49814101  0.86484166  1
  O  O88  1  0.35204733  0.85143281  0.86625171  1
  O  O89  1  0.51644682  0.65157251  0.86685801  1
  O  O90  1  0.02728237  0.81563676  0.41500432  1
  O  O91  1  0.82046553  0.98458970  0.41225808  1
  O  O92  1  0.16731091  0.17961784  0.41163334  1
  O  O93  1  0.00662244  0.17884559  0.91231520  1
  O  O94  1  0.16350533  0.97591071  0.91546624  1
  O  O95  1  0.78833966  0.81221560  0.91765967  1
  O  O96  1  0.97916035  0.18781357  0.57795996  1
  O  O97  1  0.19844923  0.01795037  0.58128572  1
  O  O98  1  0.81719690  0.79445812  0.57885291  1
  O  O99  1  0.96845562  0.79420479  0.08618542  1
  O  O100  1  0.83151521  0.03028105  0.08616417  1
  O  O101  1  0.19807149  0.18431959  0.08545837  1
  O  O102  1  0.66252228  0.15031977  0.74437049  1
  O  O103  1  0.49254723  0.33949230  0.74102777  1
  O  O104  1  0.84892695  0.51131595  0.74407123  1
  O  O105  1  0.67441745  0.51148186  0.24531892  1
  O  O106  1  0.86168667  0.33119506  0.24335276  1
  O  O107  1  0.49341664  0.15031190  0.24518675  1
  O  O108  1  0.63038191  0.50711189  0.92007070  1
  O  O109  1  0.86156726  0.37458933  0.91736033  1
  O  O110  1  0.50435847  0.15150924  0.91673233  1
  O  O111  1  0.64736310  0.15234866  0.41635473  1
  O  O112  1  0.50705375  0.37022087  0.41585692  1
  O  O113  1  0.88127436  0.51063557  0.41551203  1
  O  O114  1  0.35775322  0.49135187  0.08485455  1
  O  O115  1  0.12476028  0.64264560  0.08558854  1
  O  O116  1  0.52598845  0.87031877  0.08536603  1
  O  O117  1  0.34509797  0.85768345  0.57947214  1
  O  O118  1  0.51057509  0.63985307  0.58205489  1
  O  O119  1  0.12837097  0.49531979  0.58215753  1
  O  O120  1  0.30809033  0.81761889  0.25899133  1
  O  O121  1  0.50813897  0.67610392  0.25885447  1
  O  O122  1  0.16191113  0.47775932  0.25517582  1
  O  O123  1  0.31994245  0.49274534  0.76075903  1
  O  O124  1  0.17294977  0.68852057  0.75998772  1
  O  O125  1  0.51232661  0.82251402  0.76150787  1
