# generated using pymatgen
data_CdTeO3
_symmetry_space_group_name_H-M   'P 1'
_cell_length_a   11.30735991
_cell_length_b   7.45163265
_cell_length_c   7.83188501
_cell_angle_alpha   66.44744827
_cell_angle_beta   90.00000000
_cell_angle_gamma   90.00000000
_symmetry_Int_Tables_number   1
_chemical_formula_structural   CdTeO3
_chemical_formula_sum   'Cd8 Te8 O24'
_cell_volume   604.92749316
_cell_formula_units_Z   8
loop_
 _symmetry_equiv_pos_site_id
 _symmetry_equiv_pos_as_xyz
  1  'x, y, z'
loop_
 _atom_site_type_symbol
 _atom_site_label
 _atom_site_symmetry_multiplicity
 _atom_site_fract_x
 _atom_site_fract_y
 _atom_site_fract_z
 _atom_site_occupancy
  Cd  Cd0  1  0.99147828  0.69148816  0.26900127  1
  Cd  Cd1  1  0.49147828  0.80851184  0.73099873  1
  Cd  Cd2  1  0.00852172  0.30851184  0.73099873  1
  Cd  Cd3  1  0.50852172  0.19148816  0.26900127  1
  Cd  Cd4  1  0.76686178  0.02499847  0.00259339  1
  Cd  Cd5  1  0.26686178  0.47500153  0.99740661  1
  Cd  Cd6  1  0.23313822  0.97500153  0.99740661  1
  Cd  Cd7  1  0.73313822  0.52499847  0.00259339  1
  Te  Te8  1  0.74472768  0.87594096  0.50373149  1
  Te  Te9  1  0.24472768  0.62405904  0.49626851  1
  Te  Te10  1  0.25527232  0.12405904  0.49626851  1
  Te  Te11  1  0.75527232  0.37594096  0.50373149  1
  Te  Te12  1  0.99964343  0.76037188  0.83246775  1
  Te  Te13  1  0.49964343  0.73962812  0.16753225  1
  Te  Te14  1  0.00035657  0.23962812  0.16753225  1
  Te  Te15  1  0.50035657  0.26037188  0.83246775  1
  O  O16  1  0.92415117  0.00574086  0.19457554  1
  O  O17  1  0.42415117  0.49425914  0.80542446  1
  O  O18  1  0.07584883  0.99425914  0.80542446  1
  O  O19  1  0.57584883  0.50574086  0.19457554  1
  O  O20  1  0.62727202  0.05705820  0.51158386  1
  O  O21  1  0.12727202  0.44294180  0.48841614  1
  O  O22  1  0.37272798  0.94294180  0.48841614  1
  O  O23  1  0.87272798  0.55705820  0.51158386  1
  O  O24  1  0.83153704  0.16837889  0.69736255  1
  O  O25  1  0.33153704  0.33162111  0.30263745  1
  O  O26  1  0.16846296  0.83162111  0.30263745  1
  O  O27  1  0.66846296  0.66837889  0.69736255  1
  O  O28  1  0.62931750  0.26234378  0.99271467  1
  O  O29  1  0.12931750  0.23765622  0.00728533  1
  O  O30  1  0.37068250  0.73765622  0.00728533  1
  O  O31  1  0.87068250  0.76234378  0.99271467  1
  O  O32  1  0.58958138  0.88518369  0.95297312  1
  O  O33  1  0.08958138  0.61481631  0.04702688  1
  O  O34  1  0.41041862  0.11481631  0.04702688  1
  O  O35  1  0.91041862  0.38518369  0.95297312  1
  O  O36  1  0.67979178  0.84221928  0.29866991  1
  O  O37  1  0.17979178  0.65778072  0.70133009  1
  O  O38  1  0.32020822  0.15778072  0.70133009  1
  O  O39  1  0.82020822  0.34221928  0.29866991  1
