# generated using pymatgen
data_Na3CaNbSi(PO6)2
_symmetry_space_group_name_H-M   'P 1'
_cell_length_a   9.23082902
_cell_length_b   9.28883086
_cell_length_c   22.47796068
_cell_angle_alpha   90.23085417
_cell_angle_beta   90.00000000
_cell_angle_gamma   119.79365575
_symmetry_Int_Tables_number   1
_chemical_formula_structural   Na3CaNbSi(PO6)2
_chemical_formula_sum   'Na18 Ca6 Nb6 Si6 P12 O72'
_cell_volume   1672.56837656
_cell_formula_units_Z   6
loop_
 _symmetry_equiv_pos_site_id
 _symmetry_equiv_pos_as_xyz
  1  'x, y, z'
loop_
 _atom_site_type_symbol
 _atom_site_label
 _atom_site_symmetry_multiplicity
 _atom_site_fract_x
 _atom_site_fract_y
 _atom_site_fract_z
 _atom_site_occupancy
  Na  Na0  1  0.99587328  0.01023189  0.49190909  1
  Na  Na1  1  0.01435861  0.01023189  0.99190909  1
  Na  Na2  1  0.67134599  0.32182410  0.82591965  1
  Na  Na3  1  0.65047911  0.32182410  0.32591965  1
  Na  Na4  1  0.34264498  0.65200363  0.15912357  1
  Na  Na5  1  0.30935766  0.65200363  0.65912357  1
  Na  Na6  1  0.66602047  0.02109647  0.24475707  1
  Na  Na7  1  0.98481533  0.62549123  0.24104177  1
  Na  Na8  1  0.64067590  0.62549123  0.74104177  1
  Na  Na9  1  0.35507600  0.02109647  0.74475707  1
  Na  Na10  1  0.32669060  0.35617470  0.58132533  1
  Na  Na11  1  0.64186813  0.95737033  0.57378872  1
  Na  Na12  1  0.31550320  0.95737033  0.07378872  1
  Na  Na13  1  0.02948510  0.35617470  0.08132533  1
  Na  Na14  1  0.98909965  0.69120976  0.91364051  1
  Na  Na15  1  0.69565679  0.01445553  0.90883927  1
  Na  Na16  1  0.31879774  0.01445553  0.40883927  1
  Na  Na17  1  0.70210911  0.69120976  0.41364051  1
  Ca  Ca18  1  0.00619132  0.01416929  0.35076192  1
  Ca  Ca19  1  0.00797797  0.01416929  0.85076192  1
  Ca  Ca20  1  0.67680238  0.33385244  0.68453161  1
  Ca  Ca21  1  0.65705105  0.33385244  0.18453161  1
  Ca  Ca22  1  0.33913969  0.66340456  0.01733461  1
  Ca  Ca23  1  0.32426387  0.66340456  0.51733461  1
  Nb  Nb24  1  0.99046757  0.99427889  0.64921827  1
  Nb  Nb25  1  0.00381132  0.99427889  0.14921827  1
  Nb  Nb26  1  0.66256639  0.33716977  0.98180561  1
  Nb  Nb27  1  0.67460439  0.33716977  0.48180561  1
  Nb  Nb28  1  0.33020632  0.66640991  0.31539591  1
  Nb  Nb29  1  0.33620259  0.66640991  0.81539591  1
  Si  Si30  1  0.29924012  0.98804300  0.25598356  1
  Si  Si31  1  0.68880288  0.98804300  0.75598356  1
  Si  Si32  1  0.67574022  0.63588744  0.58745095  1
  Si  Si33  1  0.96014822  0.63588744  0.08745095  1
  Si  Si34  1  0.34346595  0.97270106  0.92162400  1
  Si  Si35  1  0.62923411  0.97270106  0.42162400  1
  P  P36  1  0.69878411  0.71237597  0.25352180  1
  P  P37  1  0.01357523  0.30339212  0.24791988  1
  P  P38  1  0.28981689  0.30339212  0.74791988  1
  P  P39  1  0.01359186  0.71237597  0.75352180  1
  P  P40  1  0.95824137  0.31582837  0.58403691  1
  P  P41  1  0.36190762  0.04563268  0.58462097  1
  P  P42  1  0.68372606  0.04563268  0.08462097  1
  P  P43  1  0.35758800  0.31582837  0.08403691  1
  P  P44  1  0.62541514  0.65200871  0.91562823  1
  P  P45  1  0.02705392  0.37764889  0.92037763  1
  P  P46  1  0.35059397  0.37764889  0.42037763  1
  P  P47  1  0.02659257  0.65200871  0.41562823  1
  O  O48  1  0.21799271  0.99591689  0.31683653  1
  O  O49  1  0.78871840  0.78712021  0.31113518  1
  O  O50  1  0.97424834  0.19189549  0.30080926  1
  O  O51  1  0.21764715  0.19189549  0.80080926  1
  O  O52  1  0.99840181  0.78712021  0.81113518  1
  O  O53  1  0.77792418  0.99591689  0.81683653  1
  O  O54  1  0.81003186  0.97481998  0.69798736  1
  O  O55  1  0.17928230  0.20865153  0.69007971  1
  O  O56  1  0.03509720  0.84045563  0.69998148  1
  O  O57  1  0.80535843  0.84045563  0.19998148  1
  O  O58  1  0.02936923  0.20865153  0.19007971  1
  O  O59  1  0.16478811  0.97481998  0.19798736  1
  O  O60  1  0.88288066  0.33356261  0.64056797  1
  O  O61  1  0.45809914  0.11832480  0.64198219  1
  O  O62  1  0.64776368  0.53470873  0.64696921  1
  O  O63  1  0.88694605  0.53470873  0.14696921  1
  O  O64  1  0.66022666  0.11832480  0.14198219  1
  O  O65  1  0.45068296  0.33356261  0.14056797  1
  O  O66  1  0.46286544  0.30333399  0.02828499  1
  O  O67  1  0.83049802  0.52433308  0.02874017  1
  O  O68  1  0.69624504  0.16931751  0.03065000  1
  O  O69  1  0.47307347  0.16931751  0.53065000  1
  O  O70  1  0.69383607  0.52433308  0.52874017  1
  O  O71  1  0.84046955  0.30333399  0.52828499  1
  O  O72  1  0.55078706  0.68512498  0.96935014  1
  O  O73  1  0.11077178  0.44597644  0.97968978  1
  O  O74  1  0.33017749  0.87495233  0.98065229  1
  O  O75  1  0.54477384  0.87495233  0.48065229  1
  O  O76  1  0.33520366  0.44597644  0.47968978  1
  O  O77  1  0.13433692  0.68512498  0.46935014  1
  O  O78  1  0.12164607  0.63115673  0.35852503  1
  O  O79  1  0.48923977  0.85209491  0.36300643  1
  O  O80  1  0.35796859  0.49678246  0.36728200  1
  O  O81  1  0.13881287  0.49678246  0.86728200  1
  O  O82  1  0.36285414  0.85209491  0.86300643  1
  O  O83  1  0.50950966  0.63115673  0.85852503  1
  O  O84  1  0.98817728  0.79256295  0.40806909  1
  O  O85  1  0.80828902  0.98911129  0.41398720  1
  O  O86  1  0.21483168  0.19768259  0.41311122  1
  O  O87  1  0.98285091  0.19768259  0.91311122  1
  O  O88  1  0.18082227  0.98911129  0.91398720  1
  O  O89  1  0.80438567  0.79256295  0.90806909  1
  O  O90  1  0.94947308  0.13980491  0.58396804  1
  O  O91  1  0.19474498  0.05290320  0.58453822  1
  O  O92  1  0.85702968  0.82050618  0.59226679  1
  O  O93  1  0.96347650  0.82050618  0.09226679  1
  O  O94  1  0.85815822  0.05290320  0.08453822  1
  O  O95  1  0.19033183  0.13980491  0.08396804  1
  O  O96  1  0.63951341  0.12889354  0.74835261  1
  O  O97  1  0.47026864  0.34055870  0.74185458  1
  O  O98  1  0.86289741  0.54221346  0.74445572  1
  O  O99  1  0.67931705  0.54221346  0.24445572  1
  O  O100  1  0.87029106  0.34055870  0.24185458  1
  O  O101  1  0.48938113  0.12889354  0.24835261  1
  O  O102  1  0.62822389  0.48311590  0.92067832  1
  O  O103  1  0.85843157  0.38715464  0.91820089  1
  O  O104  1  0.52766786  0.15181459  0.92203809  1
  O  O105  1  0.62414772  0.15181459  0.42203809  1
  O  O106  1  0.52872407  0.38715464  0.41820089  1
  O  O107  1  0.85489302  0.48311590  0.42067832  1
  O  O108  1  0.31360164  0.45180708  0.07713407  1
  O  O109  1  0.14940618  0.67322932  0.08030993  1
  O  O110  1  0.53784064  0.87166762  0.07625658  1
  O  O111  1  0.33382598  0.87166762  0.57625658  1
  O  O112  1  0.52382214  0.67322932  0.58030993  1
  O  O113  1  0.13820444  0.45180708  0.57713407  1
  O  O114  1  0.28898058  0.79864198  0.25497404  1
  O  O115  1  0.52582554  0.70967498  0.25290579  1
  O  O116  1  0.18359424  0.47216802  0.25381232  1
  O  O117  1  0.28857278  0.47216802  0.75381232  1
  O  O118  1  0.18384844  0.70967498  0.75290579  1
  O  O119  1  0.50966040  0.79864198  0.75497404  1
