# generated using pymatgen
data_Na10Zr4Si9Ge4(SO16)3
_symmetry_space_group_name_H-M   'P 1'
_cell_length_a   17.87783048
_cell_length_b   8.94030210
_cell_length_c   22.29812720
_cell_angle_alpha   89.95355249
_cell_angle_beta   90.12480713
_cell_angle_gamma   119.79070719
_symmetry_Int_Tables_number   1
_chemical_formula_structural   Na10Zr4Si9Ge4(SO16)3
_chemical_formula_sum   'Na30 Zr12 Si27 Ge12 S9 O144'
_cell_volume   3092.97945646
_cell_formula_units_Z   3
loop_
 _symmetry_equiv_pos_site_id
 _symmetry_equiv_pos_as_xyz
  1  'x, y, z'
loop_
 _atom_site_type_symbol
 _atom_site_label
 _atom_site_symmetry_multiplicity
 _atom_site_fract_x
 _atom_site_fract_y
 _atom_site_fract_z
 _atom_site_occupancy
  Na  Na0  1  0.32024325  0.00060706  0.24928641  1
  Na  Na1  1  0.82064516  0.00017251  0.24809932  1
  Na  Na2  1  0.18294713  0.98812957  0.74779849  1
  Na  Na3  1  0.68542675  0.99739379  0.74638138  1
  Na  Na4  1  0.01368975  0.69126782  0.57844661  1
  Na  Na5  1  0.51381282  0.70405300  0.57741636  1
  Na  Na6  1  0.01013215  0.33457661  0.07793881  1
  Na  Na7  1  0.52084006  0.33043308  0.07557176  1
  Na  Na8  1  0.48303719  0.66592155  0.91257706  1
  Na  Na9  1  0.35181227  0.03907934  0.91435342  1
  Na  Na10  1  0.85406568  0.03933118  0.91127744  1
  Na  Na11  1  0.16170190  0.30452877  0.91685958  1
  Na  Na12  1  0.48462756  0.30518131  0.41360132  1
  Na  Na13  1  0.98644866  0.31301084  0.41151096  1
  Na  Na14  1  0.16494694  0.03304281  0.41503438  1
  Na  Na15  1  0.66789599  0.02529045  0.42034175  1
  Na  Na16  1  0.34542697  0.66115360  0.41674162  1
  Na  Na17  1  0.85201036  0.67004011  0.41364618  1
  Na  Na18  1  0.00153606  0.00877496  0.50386338  1
  Na  Na19  1  0.50212020  0.00351709  0.50166373  1
  Na  Na20  1  0.00172916  0.97893914  0.00298984  1
  Na  Na21  1  0.51121948  0.01654792  0.99643912  1
  Na  Na22  1  0.34515065  0.34417475  0.83217466  1
  Na  Na23  1  0.84686774  0.35991491  0.83789817  1
  Na  Na24  1  0.34024212  0.35629676  0.33114846  1
  Na  Na25  1  0.84128648  0.35861193  0.32745299  1
  Na  Na26  1  0.16912973  0.65726002  0.16011165  1
  Na  Na27  1  0.67716368  0.65579296  0.16244114  1
  Na  Na28  1  0.17854725  0.66951607  0.66756980  1
  Na  Na29  1  0.67945126  0.67103812  0.67007152  1
  Zr  Zr30  1  0.49473129  0.99486632  0.35168301  1
  Zr  Zr31  1  0.49210563  0.98462066  0.65100196  1
  Zr  Zr32  1  0.50008065  0.01055404  0.14244969  1
  Zr  Zr33  1  0.33027799  0.33405166  0.69019163  1
  Zr  Zr34  1  0.83752546  0.33318632  0.69245374  1
  Zr  Zr35  1  0.32460589  0.32780044  0.18304579  1
  Zr  Zr36  1  0.32473552  0.32167359  0.97675105  1
  Zr  Zr37  1  0.32292904  0.32515128  0.48340776  1
  Zr  Zr38  1  0.83257681  0.33702679  0.48420942  1
  Zr  Zr39  1  0.67817322  0.68264054  0.52029667  1
  Zr  Zr40  1  0.16304807  0.65291821  0.30900608  1
  Zr  Zr41  1  0.66947944  0.65709558  0.31031843  1
  Si  Si42  1  0.35046683  0.69946111  0.24825332  1
  Si  Si43  1  0.86611932  0.71418099  0.24530933  1
  Si  Si44  1  0.99444533  0.28606739  0.24604655  1
  Si  Si45  1  0.50040141  0.30774861  0.24749604  1
  Si  Si46  1  0.00232155  0.71060568  0.75794019  1
  Si  Si47  1  0.50258898  0.71068348  0.75774028  1
  Si  Si48  1  0.34864033  0.98694372  0.75968609  1
  Si  Si49  1  0.85866252  0.98394060  0.75567442  1
  Si  Si50  1  0.17756252  0.02329628  0.58800684  1
  Si  Si51  1  0.68230175  0.03536091  0.58732432  1
  Si  Si52  1  0.32317534  0.62725694  0.58075475  1
  Si  Si53  1  0.83509334  0.63487508  0.58811470  1
  Si  Si54  1  0.32318131  0.01654405  0.07965743  1
  Si  Si55  1  0.82620882  0.03615971  0.08389762  1
  Si  Si56  1  0.17522403  0.32888501  0.08022613  1
  Si  Si57  1  0.70071629  0.34662433  0.07851783  1
  Si  Si58  1  0.30805778  0.67198419  0.91203268  1
  Si  Si59  1  0.02163378  0.38688575  0.91666671  1
  Si  Si60  1  0.53416942  0.38657088  0.91518831  1
  Si  Si61  1  0.15565114  0.93904568  0.91648866  1
  Si  Si62  1  0.66711068  0.95498257  0.91872943  1
  Si  Si63  1  0.30828241  0.95223708  0.41559649  1
  Si  Si64  1  0.81955490  0.96807471  0.40976937  1
  Si  Si65  1  0.15931143  0.37514254  0.41738263  1
  Si  Si66  1  0.66659613  0.37164192  0.41870839  1
  Si  Si67  1  0.02504098  0.67778659  0.41770719  1
  Si  Si68  1  0.52011885  0.66173992  0.41868102  1
  Ge  Ge69  1  0.99382250  0.99638831  0.35168584  1
  Ge  Ge70  1  0.00048275  0.00073875  0.85476176  1
  Ge  Ge71  1  0.49505076  0.99518040  0.85895384  1
  Ge  Ge72  1  0.99375549  0.96045649  0.65317277  1
  Ge  Ge73  1  0.99092340  0.01923554  0.14402220  1
  Ge  Ge74  1  0.83679898  0.34619195  0.18260944  1
  Ge  Ge75  1  0.83036494  0.30222694  0.98145509  1
  Ge  Ge76  1  0.17252585  0.66759664  0.01340852  1
  Ge  Ge77  1  0.67408171  0.66778813  0.01714725  1
  Ge  Ge78  1  0.17107916  0.67806464  0.51668067  1
  Ge  Ge79  1  0.16267730  0.67711075  0.81859994  1
  Ge  Ge80  1  0.66876541  0.69168429  0.81588258  1
  S  S81  1  0.13672255  0.00070106  0.24896749  1
  S  S82  1  0.65271639  0.01191725  0.24783374  1
  S  S83  1  0.13658712  0.28595575  0.75151383  1
  S  S84  1  0.64308137  0.29501540  0.75556984  1
  S  S85  1  0.48124731  0.33431896  0.58424156  1
  S  S86  1  0.98503418  0.32646518  0.58498725  1
  S  S87  1  0.48491977  0.62537506  0.08000624  1
  S  S88  1  0.97508529  0.62206259  0.08262153  1
  S  S89  1  0.81218746  0.66624470  0.91620851  1
  O  O90  1  0.10053548  0.02124035  0.30710824  1
  O  O91  1  0.61022687  0.01841534  0.30422325  1
  O  O92  1  0.39952044  0.78117681  0.31236289  1
  O  O93  1  0.91943796  0.79595253  0.30951745  1
  O  O94  1  0.49373443  0.19505835  0.30795551  1
  O  O95  1  0.97814804  0.15999945  0.30556229  1
  O  O96  1  0.10192960  0.18697018  0.80930469  1
  O  O97  1  0.60113146  0.18191129  0.80801156  1
  O  O98  1  0.49173476  0.81231693  0.81548612  1
  O  O99  1  0.99134720  0.82207630  0.81166748  1
  O  O100  1  0.41270323  0.02562792  0.81801322  1
  O  O101  1  0.91475092  0.02051887  0.81798454  1
  O  O102  1  0.39634641  0.97049202  0.70002408  1
  O  O103  1  0.90870399  0.96476147  0.69695519  1
  O  O104  1  0.08459611  0.19306146  0.69866325  1
  O  O105  1  0.59407249  0.21763397  0.69969307  1
  O  O106  1  0.02300599  0.82423073  0.69479491  1
  O  O107  1  0.52024988  0.82488094  0.69646969  1
  O  O108  1  0.41180714  0.82691056  0.19504345  1
  O  O109  1  0.91426718  0.84699070  0.18924954  1
  O  O110  1  0.01164091  0.20588237  0.18525204  1
  O  O111  1  0.50889260  0.20992448  0.18769227  1
  O  O112  1  0.08713286  0.99056258  0.19573668  1
  O  O113  1  0.60028904  0.99722344  0.19509553  1
  O  O114  1  0.43298422  0.34895181  0.63587436  1
  O  O115  1  0.93794327  0.34770760  0.63643312  1
  O  O116  1  0.23974963  0.11630570  0.64589683  1
  O  O117  1  0.73947430  0.13124161  0.64688800  1
  O  O118  1  0.31783542  0.50540959  0.63782481  1
  O  O119  1  0.83313000  0.51246589  0.64242430  1
  O  O120  1  0.43766161  0.51573188  0.13217460  1
  O  O121  1  0.93798539  0.50747333  0.13770418  1
  O  O122  1  0.31545336  0.11065055  0.14076915  1
  O  O123  1  0.81494349  0.13531660  0.14227414  1
  O  O124  1  0.23864706  0.36162061  0.13687252  1
  O  O125  1  0.75782008  0.37504620  0.13962562  1
  O  O126  1  0.22038243  0.30303054  0.02010879  1
  O  O127  1  0.74796169  0.31978871  0.01960262  1
  O  O128  1  0.43451578  0.54964355  0.02451508  1
  O  O129  1  0.92080476  0.53891573  0.02889933  1
  O  O130  1  0.34327736  0.14998312  0.02320526  1
  O  O131  1  0.85620010  0.16366704  0.02399179  1
  O  O132  1  0.21958047  0.13809712  0.52721651  1
  O  O133  1  0.73221774  0.13902466  0.52603872  1
  O  O134  1  0.34693792  0.55092395  0.52149407  1
  O  O135  1  0.85344867  0.55921020  0.52602579  1
  O  O136  1  0.43295913  0.31458072  0.52771183  1
  O  O137  1  0.93531392  0.30528470  0.52854248  1
  O  O138  1  0.26842424  0.71002427  0.97242383  1
  O  O139  1  0.77407426  0.70184659  0.97099375  1
  O  O140  1  0.08438854  0.46522861  0.97572591  1
  O  O141  1  0.58745851  0.46921839  0.97870715  1
  O  O142  1  0.14180526  0.81587071  0.97372811  1
  O  O143  1  0.64863322  0.81500187  0.97273932  1
  O  O144  1  0.26337889  0.82293880  0.47241851  1
  O  O145  1  0.77488236  0.83986827  0.46706063  1
  O  O146  1  0.13820202  0.46660244  0.47367422  1
  O  O147  1  0.64687430  0.45870943  0.47532125  1
  O  O148  1  0.08443721  0.71071030  0.47887026  1
  O  O149  1  0.57503836  0.69293469  0.48048485  1
  O  O150  1  0.06567144  0.63248966  0.36094444  1
  O  O151  1  0.57112679  0.63524453  0.36314583  1
  O  O152  1  0.25421743  0.88198156  0.35372262  1
  O  O153  1  0.75874806  0.89327579  0.35106417  1
  O  O154  1  0.18794215  0.49962474  0.35903795  1
  O  O155  1  0.68833195  0.49457518  0.35989677  1
  O  O156  1  0.06474052  0.50461660  0.85739976  1
  O  O157  1  0.58312290  0.52433260  0.86028575  1
  O  O158  1  0.18142813  0.87305302  0.85612098  1
  O  O159  1  0.69438624  0.88823228  0.85702438  1
  O  O160  1  0.23886673  0.62336204  0.85722574  1
  O  O161  1  0.75956628  0.64473471  0.86233680  1
  O  O162  1  0.01769819  0.85399494  0.40937163  1
  O  O163  1  0.51263159  0.83556863  0.41221568  1
  O  O164  1  0.40532828  0.97570842  0.41441270  1
  O  O165  1  0.91232283  0.97345239  0.40700439  1
  O  O166  1  0.07483564  0.18362418  0.40593296  1
  O  O167  1  0.58462812  0.17891391  0.41239245  1
  O  O168  1  0.00973363  0.18677730  0.90978856  1
  O  O169  1  0.51870330  0.18818043  0.90906296  1
  O  O170  1  0.07524373  0.98323200  0.91101362  1
  O  O171  1  0.57884015  0.96778667  0.91225721  1
  O  O172  1  0.40680968  0.84381393  0.91156448  1
  O  O173  1  0.89874612  0.82919432  0.91432043  1
  O  O174  1  0.49214457  0.18244900  0.58953007  1
  O  O175  1  0.99474260  0.17452284  0.59191980  1
  O  O176  1  0.08265642  0.01247297  0.59708803  1
  O  O177  1  0.58726417  0.01991423  0.58709923  1
  O  O178  1  0.41053538  0.81604495  0.58875138  1
  O  O179  1  0.92280621  0.82552354  0.59343211  1
  O  O180  1  0.49940360  0.80199306  0.08527603  1
  O  O181  1  0.98304711  0.79296566  0.08936107  1
  O  O182  1  0.41381030  0.00759175  0.08142816  1
  O  O183  1  0.91433514  0.01834978  0.08886336  1
  O  O184  1  0.07974916  0.14712304  0.08873457  1
  O  O185  1  0.60220809  0.17913732  0.08320050  1
  O  O186  1  0.33332226  0.15446693  0.75352330  1
  O  O187  1  0.84031317  0.14602856  0.74954329  1
  O  O188  1  0.22368752  0.29888716  0.74821140  1
  O  O189  1  0.72965788  0.30472183  0.75210319  1
  O  O190  1  0.41767724  0.52145679  0.75061848  1
  O  O191  1  0.91732253  0.52107258  0.75375030  1
  O  O192  1  0.33653414  0.50701707  0.24479369  1
  O  O193  1  0.85407462  0.52011089  0.23814850  1
  O  O194  1  0.40750395  0.30041835  0.24531673  1
  O  O195  1  0.90371150  0.29367884  0.23924167  1
  O  O196  1  0.22584040  0.15389061  0.24736633  1
  O  O197  1  0.73816947  0.17214822  0.24648843  1
  O  O198  1  0.32235052  0.50440701  0.91658987  1
  O  O199  1  0.82322468  0.51571663  0.92125821  1
  O  O200  1  0.43652722  0.36614836  0.91920089  1
  O  O201  1  0.92197778  0.35850790  0.92671982  1
  O  O202  1  0.24298604  0.13456114  0.91999439  1
  O  O203  1  0.75666588  0.14413250  0.92571457  1
  O  O204  1  0.32291611  0.14572068  0.42401227  1
  O  O205  1  0.83587311  0.16125083  0.42120954  1
  O  O206  1  0.24174450  0.34395946  0.42423886  1
  O  O207  1  0.75258357  0.35295030  0.42285744  1
  O  O208  1  0.42376479  0.49203130  0.42071957  1
  O  O209  1  0.92944946  0.51086999  0.42483709  1
  O  O210  1  0.16227740  0.49783934  0.07327848  1
  O  O211  1  0.68484031  0.51611621  0.07202383  1
  O  O212  1  0.06037232  0.63465994  0.07847254  1
  O  O213  1  0.56845204  0.62759815  0.07902741  1
  O  O214  1  0.23531393  0.83099448  0.07292864  1
  O  O215  1  0.74095536  0.84664182  0.07241018  1
  O  O216  1  0.16446071  0.82787964  0.57899263  1
  O  O217  1  0.66643956  0.83901804  0.58605304  1
  O  O218  1  0.23511211  0.63611144  0.57428801  1
  O  O219  1  0.74859620  0.64665558  0.58656985  1
  O  O220  1  0.06756792  0.48990332  0.58219300  1
  O  O221  1  0.56490592  0.49348972  0.58387248  1
  O  O222  1  0.14720409  0.84679373  0.25066899  1
  O  O223  1  0.66480152  0.85989716  0.24782773  1
  O  O224  1  0.26088781  0.70611560  0.24484248  1
  O  O225  1  0.77243143  0.70620957  0.24938212  1
  O  O226  1  0.07688330  0.47651921  0.25004635  1
  O  O227  1  0.58350680  0.49913376  0.24629540  1
  O  O228  1  0.14550796  0.45697229  0.75370246  1
  O  O229  1  0.65520652  0.46952249  0.76037444  1
  O  O230  1  0.09052195  0.69567915  0.76088133  1
  O  O231  1  0.59383180  0.70234158  0.76116819  1
  O  O232  1  0.25264936  0.81077918  0.76167281  1
  O  O233  1  0.76027458  0.80754595  0.76076744  1
