# generated using pymatgen
data_Na3YGa(PO4)3
_symmetry_space_group_name_H-M   'P 1'
_cell_length_a   15.77563620
_cell_length_b   9.04558489
_cell_length_c   9.06914309
_cell_angle_alpha   90.12615151
_cell_angle_beta   125.05616824
_cell_angle_gamma   89.88880067
_symmetry_Int_Tables_number   1
_chemical_formula_structural   Na3YGa(PO4)3
_chemical_formula_sum   'Na12 Y4 Ga4 P12 O48'
_cell_volume   1059.38711310
_cell_formula_units_Z   4
loop_
 _symmetry_equiv_pos_site_id
 _symmetry_equiv_pos_as_xyz
  1  'x, y, z'
loop_
 _atom_site_type_symbol
 _atom_site_label
 _atom_site_symmetry_multiplicity
 _atom_site_fract_x
 _atom_site_fract_y
 _atom_site_fract_z
 _atom_site_occupancy
  Na  Na0  1  0.24102347  0.77385998  0.99555809  1
  Na  Na1  1  0.75047266  0.72297667  0.50859610  1
  Na  Na2  1  0.75084454  0.27105403  0.01096916  1
  Na  Na3  1  0.24017844  0.22396265  0.49357764  1
  Na  Na4  1  0.50439884  0.09673942  0.76264463  1
  Na  Na5  1  0.50108218  0.91063631  0.23803569  1
  Na  Na6  1  0.00474170  0.60799790  0.75261500  1
  Na  Na7  1  0.99937202  0.38543607  0.24049403  1
  Na  Na8  1  0.81775806  0.93306796  0.21789411  1
  Na  Na9  1  0.81436508  0.07238135  0.71436309  1
  Na  Na10  1  0.30137925  0.43006253  0.19200399  1
  Na  Na11  1  0.31065866  0.56140938  0.72342065  1
  Y  Y12  1  0.10550233  0.76166540  0.55482183  1
  Y  Y13  1  0.60257580  0.26067752  0.55689441  1
  Y  Y14  1  0.39709340  0.74928881  0.44205525  1
  Y  Y15  1  0.60720454  0.73953387  0.05823920  1
  Ga  Ga16  1  0.90040967  0.74976628  0.94634436  1
  Ga  Ga17  1  0.90123653  0.25054650  0.44863134  1
  Ga  Ga18  1  0.09952612  0.24472471  0.04752348  1
  Ga  Ga19  1  0.39501186  0.25265190  0.94147609  1
  P  P20  1  0.99770964  0.96233789  0.75410166  1
  P  P21  1  0.99644995  0.05399873  0.23503485  1
  P  P22  1  0.49040554  0.43439890  0.74937232  1
  P  P23  1  0.48935874  0.55000531  0.23009512  1
  P  P24  1  0.35779052  0.90995998  0.77454584  1
  P  P25  1  0.66284732  0.89146191  0.75223921  1
  P  P26  1  0.65656301  0.11272726  0.24774260  1
  P  P27  1  0.34771281  0.10813418  0.24187276  1
  P  P28  1  0.86407158  0.40243685  0.75823547  1
  P  P29  1  0.14637754  0.38471287  0.74777871  1
  P  P30  1  0.14376042  0.59614481  0.23207205  1
  P  P31  1  0.86077046  0.59383420  0.25922122  1
  O  O32  1  0.15566592  0.55695519  0.74487687  1
  O  O33  1  0.85955861  0.57487685  0.76367978  1
  O  O34  1  0.85596599  0.42160687  0.26048466  1
  O  O35  1  0.14847283  0.42344794  0.22310059  1
  O  O36  1  0.67290031  0.06196458  0.74883118  1
  O  O37  1  0.34835251  0.08098490  0.77017640  1
  O  O38  1  0.34148803  0.93698359  0.23378910  1
  O  O39  1  0.66723137  0.94098993  0.24509141  1
  O  O40  1  0.42740351  0.52513229  0.57330168  1
  O  O41  1  0.54775874  0.53787744  0.91099902  1
  O  O42  1  0.54263084  0.45616643  0.40049022  1
  O  O43  1  0.43127710  0.44994474  0.05881428  1
  O  O44  1  0.92868253  0.05467164  0.57629014  1
  O  O45  1  0.05873517  0.06353617  0.91825921  1
  O  O46  1  0.06563735  0.96400224  0.40663233  1
  O  O47  1  0.92612671  0.95022616  0.07009011  1
  O  O48  1  0.26988033  0.82745293  0.76657900  1
  O  O49  1  0.75425198  0.81559626  0.76058630  1
  O  O50  1  0.75117963  0.18148393  0.25922252  1
  O  O51  1  0.25301613  0.18188142  0.22404406  1
  O  O52  1  0.77165489  0.33192061  0.74781952  1
  O  O53  1  0.24132770  0.32010572  0.75996818  1
  O  O54  1  0.23353015  0.66107605  0.22989815  1
  O  O55  1  0.76960737  0.66720081  0.25009693  1
  O  O56  1  0.35990658  0.86706624  0.61090178  1
  O  O57  1  0.66565178  0.85836805  0.92143059  1
  O  O58  1  0.66073515  0.14426021  0.41901971  1
  O  O59  1  0.36037131  0.15924285  0.09161735  1
  O  O60  1  0.86469380  0.36341109  0.59138755  1
  O  O61  1  0.14600370  0.35360312  0.91583198  1
  O  O62  1  0.15837492  0.62819731  0.41330744  1
  O  O63  1  0.86450912  0.63857368  0.09662145  1
  O  O64  1  0.46013579  0.86229056  0.94842409  1
  O  O65  1  0.55919768  0.83964249  0.57950514  1
  O  O66  1  0.55228802  0.16675516  0.07629584  1
  O  O67  1  0.44547422  0.15397321  0.42742018  1
  O  O68  1  0.96341137  0.34304991  0.93222509  1
  O  O69  1  0.04562094  0.32745636  0.57192083  1
  O  O70  1  0.04040113  0.66143898  0.07020612  1
  O  O71  1  0.95826337  0.64854429  0.43720428  1
  O  O72  1  0.07279264  0.85569137  0.74990871  1
  O  O73  1  0.91970575  0.86290283  0.76482900  1
  O  O74  1  0.91952799  0.15019551  0.25278957  1
  O  O75  1  0.06788039  0.15956040  0.21835330  1
  O  O76  1  0.57027880  0.32728246  0.75965363  1
  O  O77  1  0.40778234  0.34145392  0.75322601  1
  O  O78  1  0.40405448  0.64691610  0.21824220  1
  O  O79  1  0.57195033  0.65544709  0.24808657  1
