# generated using pymatgen
data_NaY2Hf2P3(SO8)3
_symmetry_space_group_name_H-M   'P 1'
_cell_length_a   9.01359677
_cell_length_b   9.02272848
_cell_length_c   23.61058995
_cell_angle_alpha   90.09192337
_cell_angle_beta   89.98071215
_cell_angle_gamma   119.93415006
_symmetry_Int_Tables_number   1
_chemical_formula_structural   NaY2Hf2P3(SO8)3
_chemical_formula_sum   'Na3 Y6 Hf6 P9 S9 O72'
_cell_volume   1664.02810082
_cell_formula_units_Z   3
loop_
 _symmetry_equiv_pos_site_id
 _symmetry_equiv_pos_as_xyz
  1  'x, y, z'
loop_
 _atom_site_type_symbol
 _atom_site_label
 _atom_site_symmetry_multiplicity
 _atom_site_fract_x
 _atom_site_fract_y
 _atom_site_fract_z
 _atom_site_occupancy
  Na  Na0  1  0.69041543  0.33694605  0.83518726  1
  Na  Na1  1  0.65944304  0.34720310  0.32933941  1
  Na  Na2  1  0.35542416  0.68238584  0.16875265  1
  Y  Y3  1  0.67407782  0.33472156  0.68808204  1
  Y  Y4  1  0.65210357  0.32785537  0.18569097  1
  Y  Y5  1  0.66596856  0.32384303  0.98608390  1
  Y  Y6  1  0.66483603  0.33787748  0.48083307  1
  Y  Y7  1  0.33475155  0.66637417  0.30969931  1
  Y  Y8  1  0.32716935  0.66747962  0.80579006  1
  Hf  Hf9  1  0.00683302  0.99321645  0.35606086  1
  Hf  Hf10  1  0.99317936  0.00096537  0.85741357  1
  Hf  Hf11  1  0.99379693  0.99329327  0.64832856  1
  Hf  Hf12  1  0.99927922  0.99837451  0.14550581  1
  Hf  Hf13  1  0.33176150  0.65849440  0.01817607  1
  Hf  Hf14  1  0.32592906  0.66034267  0.51404432  1
  P  P15  1  0.28302293  0.00053170  0.24981823  1
  P  P16  1  0.72178071  0.71783674  0.25040322  1
  P  P17  1  0.99178305  0.71882940  0.75195325  1
  P  P18  1  0.72267220  0.00554860  0.75148843  1
  P  P19  1  0.66132304  0.02645012  0.08445318  1
  P  P20  1  0.36460779  0.33473730  0.08342392  1
  P  P21  1  0.04393938  0.37721841  0.91441787  1
  P  P22  1  0.32664200  0.37226960  0.41474834  1
  P  P23  1  0.04390742  0.66789557  0.41520678  1
  S  S24  1  0.99620438  0.27832568  0.25037376  1
  S  S25  1  0.28147062  0.27414349  0.75069426  1
  S  S26  1  0.97118087  0.33410593  0.58319075  1
  S  S27  1  0.36493387  0.02911677  0.58377985  1
  S  S28  1  0.66202981  0.63480829  0.58373145  1
  S  S29  1  0.97153283  0.63420530  0.08373929  1
  S  S30  1  0.62412431  0.66799778  0.91543231  1
  S  S31  1  0.32838286  0.95543669  0.91546429  1
  S  S32  1  0.62782887  0.95456002  0.41705927  1
  O  O33  1  0.18956146  0.01029020  0.30455225  1
  O  O34  1  0.82141300  0.81530549  0.30499208  1
  O  O35  1  0.98669017  0.18159070  0.30243550  1
  O  O36  1  0.19718170  0.17198393  0.80208484  1
  O  O37  1  0.97852293  0.81331806  0.80485696  1
  O  O38  1  0.83443632  0.02742252  0.80464076  1
  O  O39  1  0.81759930  0.99843292  0.69705079  1
  O  O40  1  0.18206601  0.18820028  0.69838550  1
  O  O41  1  0.00317818  0.82181388  0.69719773  1
  O  O42  1  0.81743125  0.82155034  0.19708584  1
  O  O43  1  0.00628855  0.19026743  0.19855499  1
  O  O44  1  0.18061306  0.99652285  0.19684765  1
  O  O45  1  0.89709937  0.37239025  0.63313393  1
  O  O46  1  0.47678109  0.10588083  0.63370937  1
  O  O47  1  0.62653103  0.52392709  0.63359980  1
  O  O48  1  0.89890353  0.52377626  0.13352872  1
  O  O49  1  0.62150364  0.10502705  0.13574707  1
  O  O50  1  0.48344669  0.38125192  0.13490906  1
  O  O51  1  0.44359126  0.30273920  0.03082696  1
  O  O52  1  0.86528852  0.56068958  0.03299178  1
  O  O53  1  0.70013451  0.13967620  0.03183298  1
  O  O54  1  0.43863031  0.14140979  0.53425169  1
  O  O55  1  0.70297861  0.56216000  0.53432159  1
  O  O56  1  0.85795502  0.29405564  0.53396356  1
  O  O57  1  0.54048860  0.69206211  0.96677979  1
  O  O58  1  0.15679212  0.47002277  0.96763394  1
  O  O59  1  0.30811041  0.85077679  0.96671051  1
  O  O60  1  0.53933304  0.84566765  0.46819990  1
  O  O61  1  0.30896503  0.46742963  0.46865034  1
  O  O62  1  0.15799206  0.69074023  0.46896773  1
  O  O63  1  0.12569177  0.64054613  0.36335474  1
  O  O64  1  0.52240172  0.88178540  0.36647095  1
  O  O65  1  0.36325779  0.48569637  0.36329554  1
  O  O66  1  0.12834690  0.48524403  0.86193840  1
  O  O67  1  0.35811567  0.87881233  0.86487369  1
  O  O68  1  0.52108998  0.64360561  0.86483744  1
  O  O69  1  0.03087965  0.83233847  0.40942663  1
  O  O70  1  0.79590669  0.96570332  0.41127710  1
  O  O71  1  0.15932008  0.19939064  0.40745004  1
  O  O72  1  0.03412547  0.20013292  0.90695803  1
  O  O73  1  0.16917428  0.96540218  0.90836470  1
  O  O74  1  0.79491486  0.82781033  0.90984171  1
  O  O75  1  0.99703577  0.18687257  0.59510566  1
  O  O76  1  0.19218653  0.00716994  0.59540991  1
  O  O77  1  0.81362981  0.80787966  0.59460623  1
  O  O78  1  0.99473045  0.80639530  0.09350007  1
  O  O79  1  0.81480278  0.00013395  0.09708542  1
  O  O80  1  0.18625375  0.18118742  0.09633712  1
  O  O81  1  0.70532426  0.16742327  0.74791632  1
  O  O82  1  0.45211246  0.28861884  0.74669808  1
  O  O83  1  0.82698411  0.54205255  0.74816516  1
  O  O84  1  0.71082521  0.54162605  0.24936497  1
  O  O85  1  0.84177663  0.29540504  0.24814948  1
  O  O86  1  0.46154534  0.16285158  0.25026192  1
  O  O87  1  0.65099091  0.52113811  0.92270512  1
  O  O88  1  0.86195366  0.34980178  0.92119393  1
  O  O89  1  0.47562017  0.13078696  0.92137768  1
  O  O90  1  0.65131444  0.12718641  0.42608735  1
  O  O91  1  0.47880649  0.34216269  0.42463863  1
  O  O92  1  0.86436799  0.51315065  0.42456154  1
  O  O93  1  0.33878898  0.49271331  0.07192130  1
  O  O94  1  0.14734007  0.65856692  0.07340542  1
  O  O95  1  0.50223291  0.84611773  0.07131395  1
  O  O96  1  0.34484564  0.85796433  0.57179827  1
  O  O97  1  0.51347585  0.65795299  0.57156552  1
  O  O98  1  0.14270121  0.48649611  0.57172839  1
  O  O99  1  0.29499995  0.83651805  0.25002700  1
  O  O100  1  0.54277418  0.70114179  0.25023003  1
  O  O101  1  0.15325941  0.44853849  0.25075255  1
  O  O102  1  0.29544745  0.44208307  0.75346898  1
  O  O103  1  0.15280492  0.70545517  0.75366730  1
  O  O104  1  0.55266852  0.84170268  0.75539085  1
