# generated using pymatgen
data_Lu2V2O7
_symmetry_space_group_name_H-M   'P 1'
_cell_length_a   6.97266731
_cell_length_b   6.97308737
_cell_length_c   6.97302430
_cell_angle_alpha   60.00265113
_cell_angle_beta   60.00067007
_cell_angle_gamma   60.00113537
_symmetry_Int_Tables_number   1
_chemical_formula_structural   Lu2V2O7
_chemical_formula_sum   'Lu4 V4 O14'
_cell_volume   239.74240498
_cell_formula_units_Z   2
loop_
 _symmetry_equiv_pos_site_id
 _symmetry_equiv_pos_as_xyz
  1  'x, y, z'
loop_
 _atom_site_type_symbol
 _atom_site_label
 _atom_site_symmetry_multiplicity
 _atom_site_fract_x
 _atom_site_fract_y
 _atom_site_fract_z
 _atom_site_occupancy
  Lu  Lu0  1  0.62501193  0.62499781  0.62499561  1
  Lu  Lu1  1  0.12500150  0.62499837  0.62499754  1
  Lu  Lu2  1  0.62499479  0.62501088  0.12500055  1
  Lu  Lu3  1  0.62499635  0.12500514  0.62500697  1
  V  V4  1  0.12495597  0.12498885  0.12501683  1
  V  V5  1  0.62498490  0.12499007  0.12500226  1
  V  V6  1  0.12502372  0.12497948  0.62499502  1
  V  V7  1  0.12501556  0.62497994  0.12499000  1
  O  O8  1  0.74998166  0.75001109  0.75000923  1
  O  O9  1  0.50001714  0.49999870  0.49998934  1
  O  O10  1  0.79125709  0.20876721  0.20875829  1
  O  O11  1  0.04116622  0.45883679  0.45879419  1
  O  O12  1  0.20883850  0.20877660  0.79116929  1
  O  O13  1  0.79127166  0.20877133  0.79117620  1
  O  O14  1  0.20882732  0.79116119  0.20875810  1
  O  O15  1  0.79130286  0.79116211  0.20875694  1
  O  O16  1  0.20883881  0.79116410  0.79120822  1
  O  O17  1  0.04116624  0.04123482  0.45883054  1
  O  O18  1  0.45870578  0.45883453  0.04125045  1
  O  O19  1  0.04116765  0.45885072  0.04123059  1
  O  O20  1  0.45873903  0.04123760  0.45882386  1
  O  O21  1  0.45873833  0.04124366  0.04123996  1
