# generated using pymatgen
data_Na5Y2Zn2P3(SO8)3
_symmetry_space_group_name_H-M   'P 1'
_cell_length_a   9.17279848
_cell_length_b   9.15334024
_cell_length_c   23.05915548
_cell_angle_alpha   89.33418446
_cell_angle_beta   90.17496567
_cell_angle_gamma   119.87803788
_symmetry_Int_Tables_number   1
_chemical_formula_structural   Na5Y2Zn2P3(SO8)3
_chemical_formula_sum   'Na15 Y6 Zn6 P9 S9 O72'
_cell_volume   1678.63559187
_cell_formula_units_Z   3
loop_
 _symmetry_equiv_pos_site_id
 _symmetry_equiv_pos_as_xyz
  1  'x, y, z'
loop_
 _atom_site_type_symbol
 _atom_site_label
 _atom_site_symmetry_multiplicity
 _atom_site_fract_x
 _atom_site_fract_y
 _atom_site_fract_z
 _atom_site_occupancy
  Na  Na0  1  0.63849850  0.01822588  0.25237308  1
  Na  Na1  1  0.99853122  0.63149289  0.24026098  1
  Na  Na2  1  0.63021362  0.62827070  0.74119604  1
  Na  Na3  1  0.99321040  0.35049965  0.74339521  1
  Na  Na4  1  0.30465899  0.34992942  0.58527768  1
  Na  Na5  1  0.66663666  0.96441933  0.57576920  1
  Na  Na6  1  0.29871873  0.95519809  0.07861478  1
  Na  Na7  1  0.69344390  0.02623691  0.90842578  1
  Na  Na8  1  0.96233671  0.28464173  0.41172156  1
  Na  Na9  1  0.97803895  0.96351577  0.49054950  1
  Na  Na10  1  0.00815772  0.98275906  0.99077643  1
  Na  Na11  1  0.62421823  0.30280500  0.82435740  1
  Na  Na12  1  0.63238112  0.31173412  0.32635189  1
  Na  Na13  1  0.31307985  0.63039299  0.15780690  1
  Na  Na14  1  0.32445284  0.66774492  0.65850769  1
  Y  Y15  1  0.00046554  0.99967376  0.65044293  1
  Y  Y16  1  0.00335125  0.00816705  0.14920131  1
  Y  Y17  1  0.67364467  0.34800332  0.98297864  1
  Y  Y18  1  0.67121107  0.33901756  0.48279001  1
  Y  Y19  1  0.33902989  0.67211577  0.31746620  1
  Y  Y20  1  0.33483842  0.67489900  0.81724242  1
  Zn  Zn21  1  0.00661962  0.00986047  0.34285851  1
  Zn  Zn22  1  0.03282777  0.01182302  0.84699008  1
  Zn  Zn23  1  0.66335904  0.32756923  0.67922320  1
  Zn  Zn24  1  0.67450433  0.33578996  0.18047382  1
  Zn  Zn25  1  0.29448739  0.65912217  0.01296712  1
  Zn  Zn26  1  0.34461875  0.66961118  0.51343063  1
  P  P27  1  0.30248978  0.01047670  0.24992630  1
  P  P28  1  0.99035730  0.29914387  0.25313201  1
  P  P29  1  0.30820960  0.30112897  0.74858020  1
  P  P30  1  0.70798010  0.00910454  0.75308996  1
  P  P31  1  0.97390225  0.34503826  0.58494005  1
  P  P32  1  0.65795030  0.62931997  0.58641153  1
  P  P33  1  0.97296553  0.63129046  0.08788576  1
  P  P34  1  0.32684686  0.96731121  0.92110058  1
  P  P35  1  0.64443693  0.96546167  0.41839611  1
  S  S36  1  0.70806086  0.70083828  0.25192509  1
  S  S37  1  0.99053901  0.69542451  0.75279702  1
  S  S38  1  0.37323363  0.03238203  0.58458228  1
  S  S39  1  0.65738563  0.02852050  0.08385575  1
  S  S40  1  0.37648276  0.34465744  0.08473148  1
  S  S41  1  0.63336533  0.67764714  0.91748083  1
  S  S42  1  0.03549209  0.35852885  0.91727346  1
  S  S43  1  0.32359641  0.35980257  0.41978633  1
  S  S44  1  0.04230697  0.67599309  0.41731891  1
  O  O45  1  0.20801728  0.02333254  0.30277360  1
  O  O46  1  0.81239766  0.78388280  0.30337333  1
  O  O47  1  0.96742471  0.19599654  0.30984468  1
  O  O48  1  0.21849046  0.19124450  0.80186362  1
  O  O49  1  0.97655927  0.78370268  0.80376539  1
  O  O50  1  0.81599321  0.02720849  0.80751090  1
  O  O51  1  0.79117901  0.98229072  0.69839510  1
  O  O52  1  0.20704293  0.22514502  0.69187052  1
  O  O53  1  0.01668996  0.79481099  0.69883118  1
  O  O54  1  0.78560976  0.80552291  0.19900097  1
  O  O55  1  0.00775184  0.20725667  0.20051960  1
  O  O56  1  0.19770758  0.97873499  0.19362984  1
  O  O57  1  0.88715549  0.35755242  0.64073401  1
  O  O58  1  0.47769152  0.11404576  0.63642335  1
  O  O59  1  0.63849303  0.52670597  0.64278054  1
  O  O60  1  0.88936369  0.53683817  0.14530142  1
  O  O61  1  0.64019893  0.11448905  0.13610270  1
  O  O62  1  0.47504562  0.35837952  0.13732426  1
  O  O63  1  0.45635305  0.31836348  0.03274732  1
  O  O64  1  0.86587966  0.53965128  0.03493133  1
  O  O65  1  0.67569872  0.13063299  0.03057077  1
  O  O66  1  0.45146224  0.13752120  0.53197150  1
  O  O67  1  0.67087369  0.53667176  0.53329183  1
  O  O68  1  0.86147175  0.31481177  0.53086521  1
  O  O69  1  0.53595728  0.68752464  0.96660745  1
  O  O70  1  0.13975878  0.44873460  0.96766120  1
  O  O71  1  0.30861081  0.86963764  0.97894855  1
  O  O72  1  0.55243910  0.86490831  0.47424837  1
  O  O73  1  0.30773354  0.44218160  0.47304365  1
  O  O74  1  0.14541095  0.68685684  0.46821889  1
  O  O75  1  0.11720193  0.65208257  0.36316503  1
  O  O76  1  0.54251044  0.88188954  0.36273066  1
  O  O77  1  0.34062680  0.46490746  0.36789651  1
  O  O78  1  0.11003468  0.45250222  0.86225375  1
  O  O79  1  0.35447765  0.87496684  0.86992738  1
  O  O80  1  0.54037498  0.65649876  0.86175189  1
  O  O81  1  0.02092275  0.82452375  0.41269447  1
  O  O82  1  0.82303225  0.98586362  0.41484060  1
  O  O83  1  0.16788176  0.19350466  0.41550799  1
  O  O84  1  0.01179864  0.18626501  0.91604079  1
  O  O85  1  0.16916489  0.98461132  0.91305790  1
  O  O86  1  0.79907073  0.83531576  0.91455056  1
  O  O87  1  0.99295306  0.18280771  0.58759904  1
  O  O88  1  0.20453151  0.01760480  0.58879794  1
  O  O89  1  0.81323700  0.81094489  0.58706676  1
  O  O90  1  0.00058956  0.81467348  0.08711021  1
  O  O91  1  0.80929906  0.01041236  0.08676916  1
  O  O92  1  0.20652257  0.18648247  0.08732405  1
  O  O93  1  0.69556685  0.17139684  0.74598803  1
  O  O94  1  0.48992505  0.33252786  0.74451689  1
  O  O95  1  0.83521498  0.52834115  0.74931229  1
  O  O96  1  0.69151175  0.53204971  0.24687429  1
  O  O97  1  0.82815809  0.31460546  0.24731067  1
  O  O98  1  0.48294179  0.16405256  0.24430109  1
  O  O99  1  0.65903882  0.52926554  0.92092756  1
  O  O100  1  0.86284914  0.33972275  0.92116242  1
  O  O101  1  0.49373370  0.14180714  0.92244666  1
  O  O102  1  0.66764366  0.14781898  0.41977020  1
  O  O103  1  0.47482153  0.34040160  0.42101531  1
  O  O104  1  0.87309893  0.51744976  0.42072327  1
  O  O105  1  0.35553429  0.49353537  0.07794909  1
  O  O106  1  0.15181219  0.64927671  0.08310242  1
  O  O107  1  0.50294931  0.86135023  0.08065134  1
  O  O108  1  0.35870116  0.86428735  0.57948180  1
  O  O109  1  0.49711958  0.64828736  0.58156774  1
  O  O110  1  0.15298314  0.49925184  0.57775746  1
  O  O111  1  0.32343940  0.84957652  0.25538389  1
  O  O112  1  0.53824497  0.68604540  0.25577326  1
  O  O113  1  0.14530927  0.48052852  0.25497499  1
  O  O114  1  0.31720444  0.47773403  0.75325824  1
  O  O115  1  0.13675541  0.66488123  0.75622609  1
  O  O116  1  0.53108128  0.84715701  0.75595965  1
