# generated using pymatgen
data_LiGa5O8
_symmetry_space_group_name_H-M   'P 1'
_cell_length_a   8.22190352
_cell_length_b   8.22190352
_cell_length_c   8.22190352
_cell_angle_alpha   90.00000000
_cell_angle_beta   90.00000000
_cell_angle_gamma   90.00000000
_symmetry_Int_Tables_number   1
_chemical_formula_structural   LiGa5O8
_chemical_formula_sum   'Li4 Ga20 O32'
_cell_volume   555.79819076
_cell_formula_units_Z   4
loop_
 _symmetry_equiv_pos_site_id
 _symmetry_equiv_pos_as_xyz
  1  'x, y, z'
loop_
 _atom_site_type_symbol
 _atom_site_label
 _atom_site_symmetry_multiplicity
 _atom_site_fract_x
 _atom_site_fract_y
 _atom_site_fract_z
 _atom_site_occupancy
  Li  Li0  1  0.62500000  0.62500000  0.62500000  1
  Li  Li1  1  0.37500000  0.12500000  0.87500000  1
  Li  Li2  1  0.87500000  0.37500000  0.12500000  1
  Li  Li3  1  0.12500000  0.87500000  0.37500000  1
  Ga  Ga4  1  0.12500000  0.36598511  0.88401489  1
  Ga  Ga5  1  0.25329909  0.25329909  0.25329909  1
  Ga  Ga6  1  0.00329909  0.49670091  0.50329909  1
  Ga  Ga7  1  0.49670091  0.50329909  0.00329909  1
  Ga  Ga8  1  0.50329909  0.00329909  0.49670091  1
  Ga  Ga9  1  0.75329909  0.24670091  0.74670091  1
  Ga  Ga10  1  0.24670091  0.74670091  0.75329909  1
  Ga  Ga11  1  0.74670091  0.75329909  0.24670091  1
  Ga  Ga12  1  0.99670091  0.99670091  0.99670091  1
  Ga  Ga13  1  0.62500000  0.13401489  0.11598511  1
  Ga  Ga14  1  0.61598511  0.87500000  0.86598511  1
  Ga  Ga15  1  0.63401489  0.38401489  0.37500000  1
  Ga  Ga16  1  0.36598511  0.88401489  0.12500000  1
  Ga  Ga17  1  0.88401489  0.12500000  0.36598511  1
  Ga  Ga18  1  0.11598511  0.62500000  0.13401489  1
  Ga  Ga19  1  0.38401489  0.37500000  0.63401489  1
  Ga  Ga20  1  0.86598511  0.61598511  0.87500000  1
  Ga  Ga21  1  0.13401489  0.11598511  0.62500000  1
  Ga  Ga22  1  0.37500000  0.63401489  0.38401489  1
  Ga  Ga23  1  0.87500000  0.86598511  0.61598511  1
  O  O24  1  0.87315985  0.88463743  0.38127625  1
  O  O25  1  0.13127625  0.86536257  0.12315985  1
  O  O26  1  0.63127625  0.63463743  0.87684015  1
  O  O27  1  0.86536257  0.12315985  0.13127625  1
  O  O28  1  0.13463743  0.62315985  0.36872375  1
  O  O29  1  0.12315985  0.13127625  0.86536257  1
  O  O30  1  0.37684015  0.86872375  0.36536257  1
  O  O31  1  0.38127625  0.87315985  0.88463743  1
  O  O32  1  0.88127625  0.62684015  0.11536257  1
  O  O33  1  0.61872375  0.37315985  0.61536257  1
  O  O34  1  0.62684015  0.11536257  0.88127625  1
  O  O35  1  0.61536257  0.61872375  0.37315985  1
  O  O36  1  0.11536257  0.88127625  0.62684015  1
  O  O37  1  0.11325270  0.61325270  0.88674730  1
  O  O38  1  0.88463743  0.38127625  0.87315985  1
  O  O39  1  0.37315985  0.61536257  0.61872375  1
  O  O40  1  0.12684015  0.38463743  0.11872375  1
  O  O41  1  0.38463743  0.11872375  0.12684015  1
  O  O42  1  0.87684015  0.63127625  0.63463743  1
  O  O43  1  0.62315985  0.36872375  0.13463743  1
  O  O44  1  0.38674730  0.38674730  0.38674730  1
  O  O45  1  0.13674730  0.36325270  0.63674730  1
  O  O46  1  0.63674730  0.13674730  0.36325270  1
  O  O47  1  0.36325270  0.63674730  0.13674730  1
  O  O48  1  0.61325270  0.88674730  0.11325270  1
  O  O49  1  0.88674730  0.11325270  0.61325270  1
  O  O50  1  0.63463743  0.87684015  0.63127625  1
  O  O51  1  0.86325270  0.86325270  0.86325270  1
  O  O52  1  0.11872375  0.12684015  0.38463743  1
  O  O53  1  0.86872375  0.36536257  0.37684015  1
  O  O54  1  0.36872375  0.13463743  0.62315985  1
  O  O55  1  0.36536257  0.37684015  0.86872375  1
