# generated using pymatgen
data_MgCd2(CoO2)4
_symmetry_space_group_name_H-M   'P 1'
_cell_length_a   5.89940918
_cell_length_b   6.38149422
_cell_length_c   6.20116360
_cell_angle_alpha   60.26545564
_cell_angle_beta   91.25575661
_cell_angle_gamma   118.26757137
_symmetry_Int_Tables_number   1
_chemical_formula_structural   MgCd2(CoO2)4
_chemical_formula_sum   'Mg1 Cd2 Co4 O8'
_cell_volume   171.47928996
_cell_formula_units_Z   1
loop_
 _symmetry_equiv_pos_site_id
 _symmetry_equiv_pos_as_xyz
  1  'x, y, z'
loop_
 _atom_site_type_symbol
 _atom_site_label
 _atom_site_symmetry_multiplicity
 _atom_site_fract_x
 _atom_site_fract_y
 _atom_site_fract_z
 _atom_site_occupancy
  Mg  Mg0  1  0.76888100  0.53947100  0.23033400  1
  Cd  Cd1  1  0.06772200  0.13467800  0.93258300  1
  Cd  Cd2  1  0.71446100  0.42945000  0.78535100  1
  Co  Co3  1  0.28776800  0.14788200  0.43519800  1
  Co  Co4  1  0.86076600  0.14992500  0.41575000  1
  Co  Co5  1  0.37933400  0.75916600  0.36605100  1
  Co  Co6  1  0.38009600  0.75921700  0.87478600  1
  O  O7  1  0.18441200  0.34919000  0.12202300  1
  O  O8  1  0.59576700  0.18684300  0.20123800  1
  O  O9  1  0.61565900  0.78517600  0.11227700  1
  O  O10  1  0.16856700  0.78388300  0.10320300  1
  O  O11  1  0.59064100  0.18689100  0.61197000  1
  O  O12  1  0.16582700  0.34921800  0.52867000  1
  O  O13  1  0.15909200  0.73970400  0.62412200  1
  O  O14  1  0.58183900  0.74097200  0.63561100  1
