# generated using pymatgen
data_Na18Nb8Zn4Si15(SO24)3
_symmetry_space_group_name_H-M   'P 1'
_cell_length_a   9.09121784
_cell_length_b   9.08839848
_cell_length_c   22.48626416
_cell_angle_alpha   89.90208732
_cell_angle_beta   90.04745566
_cell_angle_gamma   120.04111215
_symmetry_Int_Tables_number   1
_chemical_formula_structural   Na18Nb8Zn4Si15(SO24)3
_chemical_formula_sum   'Na18 Nb8 Zn4 Si15 S3 O72'
_cell_volume   1608.33556170
_cell_formula_units_Z   1
loop_
 _symmetry_equiv_pos_site_id
 _symmetry_equiv_pos_as_xyz
  1  'x, y, z'
loop_
 _atom_site_type_symbol
 _atom_site_label
 _atom_site_symmetry_multiplicity
 _atom_site_fract_x
 _atom_site_fract_y
 _atom_site_fract_z
 _atom_site_occupancy
  Na  Na0  1  0.64634204  0.62755253  0.74549935  1
  Na  Na1  1  0.97868999  0.36247352  0.74635301  1
  Na  Na2  1  0.02691652  0.68701392  0.58668783  1
  Na  Na3  1  0.65939811  0.97676494  0.58726515  1
  Na  Na4  1  0.32103988  0.97511932  0.08758955  1
  Na  Na5  1  0.66194582  0.68749027  0.08791336  1
  Na  Na6  1  0.96376118  0.68284371  0.90912997  1
  Na  Na7  1  0.71854280  0.03642892  0.90967046  1
  Na  Na8  1  0.32022704  0.28682457  0.91280499  1
  Na  Na9  1  0.96513057  0.28634588  0.41211643  1
  Na  Na10  1  0.31855713  0.03547994  0.40880717  1
  Na  Na11  1  0.71366827  0.67994403  0.41207870  1
  Na  Na12  1  0.01008158  0.01038162  0.49439299  1
  Na  Na13  1  0.99798658  0.00751652  0.99280755  1
  Na  Na14  1  0.66612292  0.32335547  0.82362656  1
  Na  Na15  1  0.65653574  0.32573823  0.32098545  1
  Na  Na16  1  0.32272419  0.65681299  0.16791655  1
  Na  Na17  1  0.33375940  0.66994424  0.66628063  1
  Nb  Nb18  1  0.99317068  0.98796750  0.64545840  1
  Nb  Nb19  1  0.01043112  0.00128482  0.14531116  1
  Nb  Nb20  1  0.67007948  0.33356711  0.98126602  1
  Nb  Nb21  1  0.66325106  0.33037079  0.48084734  1
  Nb  Nb22  1  0.32771907  0.66226515  0.02073003  1
  Nb  Nb23  1  0.33482859  0.66373845  0.52008164  1
  Nb  Nb24  1  0.33177871  0.67532842  0.31256997  1
  Nb  Nb25  1  0.33623681  0.68156531  0.81290778  1
  Zn  Zn26  1  0.01195286  0.00262841  0.35297096  1
  Zn  Zn27  1  0.98617291  0.98885761  0.85227381  1
  Zn  Zn28  1  0.67344869  0.32802546  0.68066533  1
  Zn  Zn29  1  0.65097961  0.31816872  0.17982151  1
  Si  Si30  1  0.30199171  0.00982865  0.25420858  1
  Si  Si31  1  0.99846103  0.70552219  0.75392426  1
  Si  Si32  1  0.70757435  0.00451752  0.75311510  1
  Si  Si33  1  0.96156119  0.33306731  0.58539224  1
  Si  Si34  1  0.37579374  0.04490456  0.58533485  1
  Si  Si35  1  0.65940840  0.61634384  0.58712372  1
  Si  Si36  1  0.95428663  0.61432820  0.08840517  1
  Si  Si37  1  0.66927331  0.04260692  0.08523496  1
  Si  Si38  1  0.37898239  0.33708143  0.08491836  1
  Si  Si39  1  0.62079760  0.66274174  0.91679048  1
  Si  Si40  1  0.04171040  0.37629518  0.91484672  1
  Si  Si41  1  0.33497962  0.96395855  0.91853477  1
  Si  Si42  1  0.62646190  0.95991851  0.41628108  1
  Si  Si43  1  0.33614153  0.37885337  0.41432515  1
  Si  Si44  1  0.03964155  0.66415663  0.41728677  1
  S  S45  1  0.70724405  0.70989324  0.25189788  1
  S  S46  1  0.00213507  0.29093667  0.25207148  1
  S  S47  1  0.28826986  0.28946143  0.75170410  1
  O  O48  1  0.21014731  0.01837256  0.31370679  1
  O  O49  1  0.80115964  0.79450427  0.30620516  1
  O  O50  1  0.98461655  0.19731968  0.30745098  1
  O  O51  1  0.21298032  0.19841907  0.80722587  1
  O  O52  1  0.97820023  0.79287468  0.81251639  1
  O  O53  1  0.81825089  0.03227052  0.81207280  1
  O  O54  1  0.80808807  0.97306364  0.69401928  1
  O  O55  1  0.17701745  0.20080255  0.69879166  1
  O  O56  1  0.02512124  0.82836897  0.69306786  1
  O  O57  1  0.79287546  0.81818565  0.19704734  1
  O  O58  1  0.02040747  0.19663728  0.19925599  1
  O  O59  1  0.17031372  0.98061054  0.19469588  1
  O  O60  1  0.89857646  0.38698059  0.64309954  1
  O  O61  1  0.50568071  0.11955615  0.63871648  1
  O  O62  1  0.63320127  0.51514269  0.64708148  1
  O  O63  1  0.86940171  0.50200860  0.14478950  1
  O  O64  1  0.60649833  0.10993666  0.13848636  1
  O  O65  1  0.50275875  0.39125294  0.13986823  1
  O  O66  1  0.46260546  0.29618695  0.02482374  1
  O  O67  1  0.83446363  0.53422465  0.02645777  1
  O  O68  1  0.69903954  0.16247188  0.02412619  1
  O  O69  1  0.46537456  0.16059957  0.52351945  1
  O  O70  1  0.69591781  0.52961677  0.52728389  1
  O  O71  1  0.83375364  0.30043003  0.52650674  1
  O  O72  1  0.51908929  0.68170958  0.97392986  1
  O  O73  1  0.16256245  0.48168484  0.97166545  1
  O  O74  1  0.31337406  0.84291206  0.97549718  1
  O  O75  1  0.53189005  0.84291269  0.47496530  1
  O  O76  1  0.31860418  0.48280272  0.47170856  1
  O  O77  1  0.16234571  0.68887923  0.47449381  1
  O  O78  1  0.13753007  0.63163607  0.36013423  1
  O  O79  1  0.49383963  0.86203248  0.35974952  1
  O  O80  1  0.36919448  0.50691750  0.35769932  1
  O  O81  1  0.13514564  0.50085781  0.85648482  1
  O  O82  1  0.36703410  0.86557036  0.86056417  1
  O  O83  1  0.49681483  0.63099844  0.85803001  1
  O  O84  1  0.01538655  0.82700247  0.41538335  1
  O  O85  1  0.81119769  0.97945345  0.41088839  1
  O  O86  1  0.16762574  0.19535567  0.41514123  1
  O  O87  1  0.02635335  0.19315466  0.91455347  1
  O  O88  1  0.17101005  0.98471677  0.91460567  1
  O  O89  1  0.80588051  0.82930375  0.91776246  1
  O  O90  1  0.97139779  0.15742565  0.59014362  1
  O  O91  1  0.18296822  0.01919306  0.59001773  1
  O  O92  1  0.83738415  0.81064418  0.58875070  1
  O  O93  1  0.97233735  0.81058986  0.09290867  1
  O  O94  1  0.83480657  0.01478120  0.09266699  1
  O  O95  1  0.18892653  0.16053546  0.09118806  1
  O  O96  1  0.68464850  0.16641594  0.74467460  1
  O  O97  1  0.46158824  0.31934615  0.74548861  1
  O  O98  1  0.83326958  0.51910432  0.74762368  1
  O  O99  1  0.68856725  0.54118390  0.24686560  1
  O  O100  1  0.85714264  0.31697966  0.24487674  1
  O  O101  1  0.48814416  0.16902297  0.24594484  1
  O  O102  1  0.63113843  0.48671767  0.92261124  1
  O  O103  1  0.85699247  0.36894711  0.92173643  1
  O  O104  1  0.51440217  0.14598245  0.92114013  1
  O  O105  1  0.63412038  0.14460517  0.42142637  1
  O  O106  1  0.51187585  0.36872477  0.42228703  1
  O  O107  1  0.85589644  0.48628497  0.42237926  1
  O  O108  1  0.34698788  0.49726031  0.07347239  1
  O  O109  1  0.15240394  0.66218559  0.07692805  1
  O  O110  1  0.50645203  0.84782989  0.07302848  1
  O  O111  1  0.34456531  0.84992110  0.57435238  1
  O  O112  1  0.50760446  0.66210615  0.57651076  1
  O  O113  1  0.15024431  0.49950813  0.57274338  1
  O  O114  1  0.30525022  0.82205362  0.25544532  1
  O  O115  1  0.53367246  0.69771262  0.25271533  1
  O  O116  1  0.16704983  0.46107108  0.25257808  1
  O  O117  1  0.29579819  0.46167377  0.75156429  1
  O  O118  1  0.17415376  0.68652547  0.75434939  1
  O  O119  1  0.52405461  0.81505001  0.75461841  1
