# generated using pymatgen
data_Na2Ti6Zn2Si3(S3O16)3
_symmetry_space_group_name_H-M   'P 1'
_cell_length_a   17.35746045
_cell_length_b   8.66338253
_cell_length_c   22.45953548
_cell_angle_alpha   90.04729609
_cell_angle_beta   89.86924805
_cell_angle_gamma   119.94013061
_symmetry_Int_Tables_number   1
_chemical_formula_structural   Na2Ti6Zn2Si3(S3O16)3
_chemical_formula_sum   'Na6 Ti18 Zn6 Si9 S27 O144'
_cell_volume   2926.61506775
_cell_formula_units_Z   3
loop_
 _symmetry_equiv_pos_site_id
 _symmetry_equiv_pos_as_xyz
  1  'x, y, z'
loop_
 _atom_site_type_symbol
 _atom_site_label
 _atom_site_symmetry_multiplicity
 _atom_site_fract_x
 _atom_site_fract_y
 _atom_site_fract_z
 _atom_site_occupancy
  Na  Na0  1  0.00149456  0.99663530  0.49667643  1
  Na  Na1  1  0.50049577  0.00516681  0.99867943  1
  Na  Na2  1  0.33365202  0.33109792  0.83671666  1
  Na  Na3  1  0.83443861  0.33416935  0.83643401  1
  Na  Na4  1  0.32865410  0.32813419  0.33481627  1
  Na  Na5  1  0.83488520  0.33771056  0.33468997  1
  Ti  Ti6  1  0.51075038  0.01099421  0.35581461  1
  Ti  Ti7  1  0.01143334  0.01117975  0.85673762  1
  Ti  Ti8  1  0.50399089  0.00158624  0.64182846  1
  Ti  Ti9  1  0.01061796  0.00424823  0.14443649  1
  Ti  Ti10  1  0.32428872  0.32644775  0.68729440  1
  Ti  Ti11  1  0.83308444  0.32174379  0.68306287  1
  Ti  Ti12  1  0.32654730  0.33692143  0.18730900  1
  Ti  Ti13  1  0.82651292  0.31841222  0.18785947  1
  Ti  Ti14  1  0.32699341  0.32032613  0.97604324  1
  Ti  Ti15  1  0.82680100  0.33373692  0.47422500  1
  Ti  Ti16  1  0.16473733  0.67210549  0.02569710  1
  Ti  Ti17  1  0.66145894  0.65382136  0.02329636  1
  Ti  Ti18  1  0.16370684  0.66964563  0.51832138  1
  Ti  Ti19  1  0.66504435  0.66134364  0.52267681  1
  Ti  Ti20  1  0.15797516  0.66832564  0.30978841  1
  Ti  Ti21  1  0.66929963  0.66317216  0.30830780  1
  Ti  Ti22  1  0.16817600  0.67208978  0.81012266  1
  Ti  Ti23  1  0.66083047  0.65898282  0.81496592  1
  Zn  Zn24  1  0.00761352  0.99324675  0.35373501  1
  Zn  Zn25  1  0.50066450  0.00961049  0.85510995  1
  Zn  Zn26  1  0.00137459  0.00601445  0.65182610  1
  Zn  Zn27  1  0.50085280  0.99448496  0.15192014  1
  Zn  Zn28  1  0.83460739  0.33295302  0.98231321  1
  Zn  Zn29  1  0.33411144  0.33355479  0.48070484  1
  Si  Si30  1  0.14577864  0.00398582  0.25162104  1
  Si  Si31  1  0.64246391  0.99422752  0.24815178  1
  Si  Si32  1  0.14231667  0.29078027  0.74829957  1
  Si  Si33  1  0.69084078  0.04271084  0.58101897  1
  Si  Si34  1  0.18994849  0.33740294  0.08150151  1
  Si  Si35  1  0.51991868  0.37156475  0.91833139  1
  Si  Si36  1  0.16607854  0.94724722  0.91691640  1
  Si  Si37  1  0.66477557  0.38328219  0.41634415  1
  Si  Si38  1  0.01953224  0.66794895  0.41721395  1
  S  S39  1  0.35446310  0.71097470  0.25168821  1
  S  S40  1  0.85586695  0.70898112  0.24822746  1
  S  S41  1  0.99846544  0.28558739  0.24980754  1
  S  S42  1  0.49903790  0.28987183  0.25061991  1
  S  S43  1  0.64680981  0.29150712  0.74946030  1
  S  S44  1  0.99792298  0.70638884  0.75083079  1
  S  S45  1  0.49976360  0.71132615  0.75002350  1
  S  S46  1  0.35649154  0.00236094  0.74865130  1
  S  S47  1  0.85326492  0.99800959  0.75120901  1
  S  S48  1  0.47657310  0.33190028  0.58437251  1
  S  S49  1  0.97759755  0.33258226  0.58081316  1
  S  S50  1  0.18760360  0.04132274  0.58133225  1
  S  S51  1  0.33336560  0.62341231  0.58385206  1
  S  S52  1  0.83508419  0.62349267  0.58261740  1
  S  S53  1  0.47661730  0.62148637  0.08128785  1
  S  S54  1  0.97532653  0.62053693  0.08336511  1
  S  S55  1  0.33574100  0.04761515  0.08253097  1
  S  S56  1  0.83370754  0.04137676  0.08300187  1
  S  S57  1  0.68787150  0.33200228  0.08161784  1
  S  S58  1  0.30915570  0.66732171  0.91770369  1
  S  S59  1  0.81011247  0.66816820  0.91566099  1
  S  S60  1  0.02232219  0.38089071  0.91614891  1
  S  S61  1  0.66804847  0.95302877  0.91739057  1
  S  S62  1  0.31015747  0.95221983  0.41512951  1
  S  S63  1  0.80962153  0.95123743  0.41736873  1
  S  S64  1  0.16839730  0.38339198  0.41727744  1
  S  S65  1  0.52246262  0.66362540  0.41593277  1
  O  O66  1  0.11282075  0.05941803  0.30915118  1
  O  O67  1  0.59905037  0.03625203  0.30807266  1
  O  O68  1  0.41300834  0.79705828  0.30346338  1
  O  O69  1  0.90647021  0.77585573  0.30313055  1
  O  O70  1  0.48300815  0.17423040  0.30374625  1
  O  O71  1  0.97688095  0.17898496  0.30391263  1
  O  O72  1  0.09891558  0.16193751  0.80804517  1
  O  O73  1  0.61170066  0.18173052  0.80279693  1
  O  O74  1  0.48166852  0.78376033  0.80361304  1
  O  O75  1  0.98162404  0.78977162  0.80370958  1
  O  O76  1  0.40890399  0.03910354  0.80293244  1
  O  O77  1  0.91093059  0.03135856  0.80319814  1
  O  O78  1  0.39967667  0.97642201  0.69590183  1
  O  O79  1  0.88635939  0.96418674  0.69589725  1
  O  O80  1  0.08760794  0.21673279  0.68947179  1
  O  O81  1  0.58993163  0.20699610  0.69643160  1
  O  O82  1  0.01413490  0.80871566  0.69628179  1
  O  O83  1  0.51289659  0.82391643  0.69655086  1
  O  O84  1  0.38697170  0.81170410  0.19631714  1
  O  O85  1  0.89636415  0.82033442  0.19555185  1
  O  O86  1  0.01015241  0.19965538  0.19641983  1
  O  O87  1  0.51563759  0.21949604  0.19627286  1
  O  O88  1  0.08246424  0.97006000  0.19259532  1
  O  O89  1  0.58795488  0.95847474  0.18926723  1
  O  O90  1  0.43394274  0.36047514  0.63706275  1
  O  O91  1  0.93674958  0.36162184  0.63711105  1
  O  O92  1  0.24383649  0.13206625  0.63629158  1
  O  O93  1  0.75364584  0.14034904  0.64071145  1
  O  O94  1  0.31958750  0.50737373  0.63739922  1
  O  O95  1  0.82201391  0.51007216  0.63650906  1
  O  O96  1  0.44011178  0.51517940  0.13616665  1
  O  O97  1  0.93321991  0.50691510  0.13606556  1
  O  O98  1  0.32221607  0.13163602  0.13578076  1
  O  O99  1  0.81746474  0.13074487  0.13617417  1
  O  O100  1  0.25319834  0.36969268  0.14031026  1
  O  O101  1  0.74361386  0.35697614  0.13561050  1
  O  O102  1  0.23850637  0.30209765  0.02552811  1
  O  O103  1  0.72794529  0.30482154  0.02802072  1
  O  O104  1  0.42246502  0.52908210  0.02866233  1
  O  O105  1  0.92454839  0.54912722  0.02870931  1
  O  O106  1  0.34866331  0.15557660  0.02776854  1
  O  O107  1  0.85253508  0.15287587  0.03012205  1
  O  O108  1  0.22901350  0.15289980  0.52901092  1
  O  O109  1  0.73758644  0.17550969  0.52597186  1
  O  O110  1  0.35457453  0.55378285  0.53123202  1
  O  O111  1  0.84869162  0.54096208  0.52863249  1
  O  O112  1  0.42401904  0.29411793  0.53029796  1
  O  O113  1  0.92157219  0.31440988  0.52955458  1
  O  O114  1  0.26520424  0.68877126  0.97097996  1
  O  O115  1  0.76965606  0.69432957  0.97016233  1
  O  O116  1  0.07518116  0.45639754  0.97069747  1
  O  O117  1  0.58658702  0.48371868  0.97519630  1
  O  O118  1  0.15245831  0.82666282  0.97534028  1
  O  O119  1  0.66055118  0.84672585  0.97125544  1
  O  O120  1  0.26932117  0.84580522  0.47096198  1
  O  O121  1  0.76470987  0.84147033  0.47132823  1
  O  O122  1  0.16334962  0.48108617  0.47262561  1
  O  O123  1  0.65243689  0.47789018  0.47552235  1
  O  O124  1  0.08601838  0.68970276  0.47486703  1
  O  O125  1  0.57596770  0.69409762  0.47115097  1
  O  O126  1  0.06887465  0.63744773  0.35911421  1
  O  O127  1  0.56644808  0.63994231  0.36331816  1
  O  O128  1  0.25252395  0.86405805  0.36289997  1
  O  O129  1  0.75611879  0.87246989  0.36317217  1
  O  O130  1  0.17991948  0.48980859  0.36352070  1
  O  O131  1  0.68160403  0.50698356  0.35852454  1
  O  O132  1  0.06642112  0.49226289  0.86299439  1
  O  O133  1  0.57105882  0.50224735  0.85914733  1
  O  O134  1  0.18169746  0.85708412  0.85803515  1
  O  O135  1  0.67970264  0.86640758  0.86223646  1
  O  O136  1  0.25644510  0.64099522  0.86274299  1
  O  O137  1  0.75141387  0.64122164  0.86219306  1
  O  O138  1  0.00994811  0.84028426  0.41774706  1
  O  O139  1  0.51274634  0.82396023  0.40842697  1
  O  O140  1  0.39691732  0.96350615  0.40759102  1
  O  O141  1  0.89830043  0.97352464  0.41334765  1
  O  O142  1  0.08503674  0.21338626  0.41773214  1
  O  O143  1  0.57595842  0.18822998  0.40729346  1
  O  O144  1  0.01207207  0.20039958  0.90755918  1
  O  O145  1  0.51503381  0.18397393  0.91507626  1
  O  O146  1  0.07670022  0.96423306  0.90709356  1
  O  O147  1  0.58604709  0.96080347  0.91264872  1
  O  O148  1  0.39847262  0.82312643  0.91316231  1
  O  O149  1  0.89638270  0.82920429  0.90585224  1
  O  O150  1  0.48850464  0.17383966  0.59610571  1
  O  O151  1  0.98442740  0.17193736  0.58587736  1
  O  O152  1  0.09760787  0.01149662  0.58836413  1
  O  O153  1  0.59355165  0.02421743  0.59735206  1
  O  O154  1  0.41208802  0.80313302  0.59709896  1
  O  O155  1  0.91318197  0.80083391  0.58941904  1
  O  O156  1  0.48580689  0.79867041  0.08405678  1
  O  O157  1  0.98518219  0.79933751  0.09244069  1
  O  O158  1  0.41354605  0.02468147  0.08798417  1
  O  O159  1  0.90951473  0.01795811  0.09651908  1
  O  O160  1  0.09197004  0.16466527  0.09399678  1
  O  O161  1  0.59732295  0.18364648  0.08793500  1
  O  O162  1  0.34478719  0.16199057  0.73890139  1
  O  O163  1  0.84554383  0.16628902  0.74467255  1
  O  O164  1  0.24436127  0.31279889  0.74079839  1
  O  O165  1  0.73841397  0.31848521  0.73929556  1
  O  O166  1  0.42276807  0.52825405  0.73963857  1
  O  O167  1  0.91780168  0.52399383  0.74539016  1
  O  O168  1  0.34955509  0.53102845  0.24584506  1
  O  O169  1  0.84335578  0.52503955  0.23830604  1
  O  O170  1  0.42076639  0.31472472  0.24549666  1
  O  O171  1  0.92205230  0.31990414  0.23874417  1
  O  O172  1  0.24709218  0.17069971  0.23676351  1
  O  O173  1  0.74421919  0.17520663  0.24088132  1
  O  O174  1  0.31614539  0.50277430  0.92283870  1
  O  O175  1  0.81792015  0.50665395  0.91904035  1
  O  O176  1  0.42661650  0.36995438  0.92486539  1
  O  O177  1  0.93306286  0.36216913  0.92016064  1
  O  O178  1  0.25279753  0.14647057  0.92275126  1
  O  O179  1  0.74859596  0.13059542  0.91996884  1
  O  O180  1  0.31936563  0.13043987  0.42052968  1
  O  O181  1  0.81585790  0.12932434  0.42376722  1
  O  O182  1  0.24829814  0.36473100  0.42258916  1
  O  O183  1  0.75199273  0.35846711  0.42280289  1
  O  O184  1  0.43357078  0.50409150  0.42126950  1
  O  O185  1  0.92581908  0.48209319  0.42641172  1
  O  O186  1  0.17856932  0.50909716  0.06984186  1
  O  O187  1  0.68624820  0.50467769  0.07643367  1
  O  O188  1  0.06571567  0.64005932  0.07776472  1
  O  O189  1  0.56870241  0.64327605  0.07364421  1
  O  O190  1  0.25363747  0.86992988  0.07544395  1
  O  O191  1  0.75190143  0.86661759  0.07592050  1
  O  O192  1  0.18685116  0.86857239  0.57702740  1
  O  O193  1  0.67714066  0.84685616  0.57135393  1
  O  O194  1  0.25453119  0.64181527  0.57775031  1
  O  O195  1  0.75303989  0.63559736  0.57635410  1
  O  O196  1  0.06704635  0.49472280  0.57572994  1
  O  O197  1  0.56600864  0.49113934  0.57809562  1
  O  O198  1  0.15701547  0.82690988  0.25903672  1
  O  O199  1  0.66018016  0.83308059  0.26666854  1
  O  O200  1  0.26386151  0.67712477  0.26341130  1
  O  O201  1  0.76516360  0.68724018  0.25458989  1
  O  O202  1  0.08047386  0.46215474  0.25570179  1
  O  O203  1  0.57854052  0.47006349  0.26087593  1
  O  O204  1  0.16068278  0.48795182  0.76638733  1
  O  O205  1  0.65618729  0.47107212  0.75660512  1
  O  O206  1  0.07631615  0.68263508  0.76094039  1
  O  O207  1  0.58168829  0.69751676  0.75637265  1
  O  O208  1  0.26701916  0.84334023  0.75435788  1
  O  O209  1  0.76260659  0.84691206  0.76246289  1
