# generated using pymatgen
data_Na10Sc2Nb6Si11SO48
_symmetry_space_group_name_H-M   'P 1'
_cell_length_a   18.08013290
_cell_length_b   9.06760175
_cell_length_c   22.85545177
_cell_angle_alpha   89.96608483
_cell_angle_beta   90.11253243
_cell_angle_gamma   119.97815636
_symmetry_Int_Tables_number   1
_chemical_formula_structural   Na10Sc2Nb6Si11SO48
_chemical_formula_sum   'Na30 Sc6 Nb18 Si33 S3 O144'
_cell_volume   3245.70591944
_cell_formula_units_Z   3
loop_
 _symmetry_equiv_pos_site_id
 _symmetry_equiv_pos_as_xyz
  1  'x, y, z'
loop_
 _atom_site_type_symbol
 _atom_site_label
 _atom_site_symmetry_multiplicity
 _atom_site_fract_x
 _atom_site_fract_y
 _atom_site_fract_z
 _atom_site_occupancy
  Na  Na0  1  0.31719217  0.99332486  0.25110281  1
  Na  Na1  1  0.81802282  0.99351470  0.25123494  1
  Na  Na2  1  0.81860630  0.63858043  0.74867377  1
  Na  Na3  1  0.18234006  0.99002260  0.75006796  1
  Na  Na4  1  0.68189016  0.00113125  0.74940499  1
  Na  Na5  1  0.01763404  0.70652190  0.58434434  1
  Na  Na6  1  0.83536284  0.96571735  0.58438039  1
  Na  Na7  1  0.64825346  0.96913658  0.08392297  1
  Na  Na8  1  0.33504055  0.70454052  0.08497899  1
  Na  Na9  1  0.83690005  0.70569854  0.08597102  1
  Na  Na10  1  0.01784005  0.32797310  0.08520176  1
  Na  Na11  1  0.51503665  0.32540159  0.08555426  1
  Na  Na12  1  0.98618941  0.66374421  0.91530662  1
  Na  Na13  1  0.34806971  0.02984551  0.91540841  1
  Na  Na14  1  0.48504345  0.30863910  0.41598375  1
  Na  Na15  1  0.98618527  0.30941481  0.41581544  1
  Na  Na16  1  0.34636945  0.66280382  0.41622316  1
  Na  Na17  1  0.84687057  0.66416210  0.41593433  1
  Na  Na18  1  0.00625147  0.00645133  0.50347303  1
  Na  Na19  1  0.50307881  0.00004740  0.50300904  1
  Na  Na20  1  0.00443368  0.00670014  0.00313130  1
  Na  Na21  1  0.50145039  0.99895543  -0.00000034  1
  Na  Na22  1  0.33575069  0.34355768  0.83353494  1
  Na  Na23  1  0.83484244  0.32939453  0.83353002  1
  Na  Na24  1  0.33215310  0.33565448  0.33352726  1
  Na  Na25  1  0.83247811  0.33598445  0.33346919  1
  Na  Na26  1  0.16433937  0.66027333  0.17026985  1
  Na  Na27  1  0.66477157  0.65518442  0.17209735  1
  Na  Na28  1  0.16952347  0.66667387  0.66871741  1
  Na  Na29  1  0.66187042  0.65774102  0.66480442  1
  Sc  Sc30  1  0.00027268  0.99681106  0.64582799  1
  Sc  Sc31  1  0.00024609  0.00277983  0.14734656  1
  Sc  Sc32  1  0.49548308  0.00336960  0.14823384  1
  Sc  Sc33  1  0.16420340  0.65284002  0.31562592  1
  Sc  Sc34  1  0.66461299  0.65334102  0.31562841  1
  Sc  Sc35  1  0.16795517  0.66839014  0.81572661  1
  Nb  Nb36  1  0.99482475  0.99584431  0.35484981  1
  Nb  Nb37  1  0.49406492  0.99575176  0.35477490  1
  Nb  Nb38  1  0.99379964  0.99644832  0.85617623  1
  Nb  Nb39  1  0.49967992  0.99567881  0.85347239  1
  Nb  Nb40  1  0.49774228  0.99930467  0.64549500  1
  Nb  Nb41  1  0.33990660  0.33651852  0.68407139  1
  Nb  Nb42  1  0.83705466  0.33717797  0.68635309  1
  Nb  Nb43  1  0.33852834  0.34503889  0.18590273  1
  Nb  Nb44  1  0.84064950  0.34967366  0.18645260  1
  Nb  Nb45  1  0.33114125  0.33739933  0.97931374  1
  Nb  Nb46  1  0.83157370  0.32608491  0.97866992  1
  Nb  Nb47  1  0.33073193  0.33025761  0.48184675  1
  Nb  Nb48  1  0.83051101  0.32783800  0.48089858  1
  Nb  Nb49  1  0.16709209  0.66933458  0.01892109  1
  Nb  Nb50  1  0.66664632  0.66705975  0.01814034  1
  Nb  Nb51  1  0.16959308  0.66813208  0.52099028  1
  Nb  Nb52  1  0.66229344  0.66118007  0.52037558  1
  Nb  Nb53  1  0.66251931  0.66244508  0.81305494  1
  Si  Si54  1  0.35204430  0.70542637  0.24858413  1
  Si  Si55  1  0.85281339  0.70842632  0.24823342  1
  Si  Si56  1  0.00312083  0.29621088  0.24833588  1
  Si  Si57  1  0.50271732  0.29775381  0.24862312  1
  Si  Si58  1  0.64242857  0.28817773  0.74964503  1
  Si  Si59  1  0.00230555  0.70897077  0.74944523  1
  Si  Si60  1  0.49649042  0.70827805  0.74919054  1
  Si  Si61  1  0.35415607  0.99826530  0.74994114  1
  Si  Si62  1  0.85557991  0.00271521  0.74866613  1
  Si  Si63  1  0.47932048  0.33176736  0.58179142  1
  Si  Si64  1  0.98090241  0.33359921  0.58238582  1
  Si  Si65  1  0.18818449  0.04319339  0.58432550  1
  Si  Si66  1  0.68621082  0.04260108  0.58434335  1
  Si  Si67  1  0.33342858  0.62209737  0.58387951  1
  Si  Si68  1  0.83101917  0.62083909  0.58287510  1
  Si  Si69  1  0.47947806  0.62604246  0.08208693  1
  Si  Si70  1  0.98056570  0.62858533  0.08082087  1
  Si  Si71  1  0.33079084  0.04453682  0.08300159  1
  Si  Si72  1  0.83287486  0.04423003  0.08445032  1
  Si  Si73  1  0.18695093  0.32871765  0.08350770  1
  Si  Si74  1  0.68875175  0.33257010  0.08327789  1
  Si  Si75  1  0.31130958  0.66423248  0.91549161  1
  Si  Si76  1  0.80926638  0.66322413  0.91601987  1
  Si  Si77  1  0.02311373  0.37672886  0.91593301  1
  Si  Si78  1  0.52071860  0.37415726  0.91672530  1
  Si  Si79  1  0.16687301  0.96031646  0.91540368  1
  Si  Si80  1  0.66584289  0.95627155  0.91579613  1
  Si  Si81  1  0.30730122  0.95771975  0.41505999  1
  Si  Si82  1  0.80689369  0.95473442  0.41578406  1
  Si  Si83  1  0.16676336  0.37414260  0.41679333  1
  Si  Si84  1  0.66656546  0.37357757  0.41644411  1
  Si  Si85  1  0.02362330  0.66951220  0.41683715  1
  Si  Si86  1  0.52249784  0.66926267  0.41562773  1
  S  S87  1  0.14426148  0.00056287  0.24979412  1
  S  S88  1  0.64505188  0.00065829  0.24962093  1
  S  S89  1  0.14464672  0.29093178  0.75036581  1
  O  O90  1  0.10420141  0.02813901  0.30288191  1
  O  O91  1  0.60374761  0.02757140  0.30202364  1
  O  O92  1  0.41612014  0.80118507  0.30748785  1
  O  O93  1  0.91605262  0.80090280  0.30756172  1
  O  O94  1  0.48448890  0.16506105  0.30662130  1
  O  O95  1  0.98404855  0.16491696  0.30676605  1
  O  O96  1  0.10419770  0.17779869  0.80266993  1
  O  O97  1  0.59888175  0.16314311  0.80655357  1
  O  O98  1  0.48568373  0.80381637  0.80705734  1
  O  O99  1  0.98365834  0.80318738  0.80725056  1
  O  O100  1  0.41640377  0.03171646  0.80785385  1
  O  O101  1  0.91683163  0.02967629  0.80663338  1
  O  O102  1  0.40551753  0.97694315  0.69387231  1
  O  O103  1  0.89340646  0.95984128  0.69194097  1
  O  O104  1  0.09226674  0.21067542  0.69727029  1
  O  O105  1  0.58306743  0.19595552  0.69278132  1
  O  O106  1  0.01630769  0.82671016  0.69265751  1
  O  O107  1  0.51826554  0.83718552  0.69381871  1
  O  O108  1  0.39728160  0.82229701  0.19189298  1
  O  O109  1  0.89741553  0.82392827  0.19147864  1
  O  O110  1  0.01251875  0.20467203  0.19103964  1
  O  O111  1  0.51370628  0.20736751  0.19119298  1
  O  O112  1  0.09327506  0.97493809  0.19774682  1
  O  O113  1  0.59441032  0.97569930  0.19597449  1
  O  O114  1  0.43314198  0.36450592  0.63907998  1
  O  O115  1  0.93155004  0.36751969  0.63866555  1
  O  O116  1  0.24967160  0.13666313  0.64186930  1
  O  O117  1  0.74999260  0.13263361  0.64143314  1
  O  O118  1  0.31911116  0.49719364  0.64013534  1
  O  O119  1  0.81766910  0.50043225  0.64109204  1
  O  O120  1  0.43424769  0.49705539  0.13919629  1
  O  O121  1  0.93322776  0.49660237  0.13833325  1
  O  O122  1  0.31759265  0.13579952  0.14165144  1
  O  O123  1  0.81314615  0.13102510  0.14128414  1
  O  O124  1  0.25366524  0.36822116  0.13924779  1
  O  O125  1  0.75337504  0.36904563  0.13945980  1
  O  O126  1  0.23785998  0.30877623  0.02710266  1
  O  O127  1  0.73712013  0.30498478  0.02698007  1
  O  O128  1  0.41605813  0.52816355  0.02755263  1
  O  O129  1  0.91669482  0.52933694  0.02540950  1
  O  O130  1  0.34885937  0.16780207  0.02582329  1
  O  O131  1  0.84690829  0.16891442  0.02795752  1
  O  O132  1  0.23812189  0.16724752  0.52783979  1
  O  O133  1  0.73563222  0.16565300  0.52766235  1
  O  O134  1  0.34791644  0.53320741  0.52549376  1
  O  O135  1  0.84774565  0.52909768  0.52625322  1
  O  O136  1  0.41957666  0.30499332  0.52485951  1
  O  O137  1  0.91771165  0.30471243  0.52603749  1
  O  O138  1  0.26794182  0.70068904  0.97483923  1
  O  O139  1  0.76650694  0.69687717  0.97446778  1
  O  O140  1  0.08103477  0.46512503  0.97598442  1
  O  O141  1  0.58226635  0.46917125  0.97447250  1
  O  O142  1  0.14890858  0.83102143  0.97257364  1
  O  O143  1  0.65268178  0.83652810  0.97434496  1
  O  O144  1  0.26689159  0.83072062  0.47230400  1
  O  O145  1  0.76836595  0.83368321  0.47449935  1
  O  O146  1  0.14854279  0.46594129  0.47362727  1
  O  O147  1  0.64860495  0.46576992  0.47351471  1
  O  O148  1  0.08155846  0.69713665  0.47624968  1
  O  O149  1  0.58315403  0.69732247  0.47414126  1
  O  O150  1  0.06109379  0.62394278  0.36104414  1
  O  O151  1  0.56156774  0.62458749  0.36076611  1
  O  O152  1  0.25635074  0.88126819  0.35578752  1
  O  O153  1  0.75603350  0.88076435  0.35623955  1
  O  O154  1  0.18926054  0.49650619  0.36136870  1
  O  O155  1  0.68937584  0.49658451  0.36131903  1
  O  O156  1  0.06095887  0.49939560  0.86076879  1
  O  O157  1  0.56981392  0.50142007  0.86102141  1
  O  O158  1  0.18751296  0.88364051  0.85865933  1
  O  O159  1  0.68119345  0.86477513  0.85883445  1
  O  O160  1  0.25303084  0.63095448  0.85963284  1
  O  O161  1  0.75134332  0.63837325  0.85825367  1
  O  O162  1  0.00886179  0.83530289  0.40931072  1
  O  O163  1  0.50930432  0.83657447  0.40932386  1
  O  O164  1  0.40585350  0.97636751  0.41021869  1
  O  O165  1  0.90602328  0.97672836  0.41010079  1
  O  O166  1  0.08022902  0.18658428  0.40839373  1
  O  O167  1  0.57985433  0.18628254  0.40856727  1
  O  O168  1  0.01224097  0.18568869  0.90859529  1
  O  O169  1  0.51005897  0.18572443  0.90970235  1
  O  O170  1  0.07959790  0.97303236  0.90868388  1
  O  O171  1  0.58147198  0.97510583  0.90934551  1
  O  O172  1  0.40549077  0.84116326  0.91079280  1
  O  O173  1  0.90602482  0.83230579  0.90964012  1
  O  O174  1  0.48783283  0.16354604  0.59065267  1
  O  O175  1  0.98344987  0.16051704  0.58852974  1
  O  O176  1  0.09375027  0.01766659  0.58772778  1
  O  O177  1  0.59303485  0.02431990  0.59059929  1
  O  O178  1  0.41772555  0.81021650  0.59155994  1
  O  O179  1  0.91627347  0.80648991  0.58704523  1
  O  O180  1  0.49066834  0.81219404  0.08842995  1
  O  O181  1  0.98382568  0.80654015  0.08804444  1
  O  O182  1  0.41546818  0.02431648  0.08673022  1
  O  O183  1  0.91609362  0.02338117  0.08619251  1
  O  O184  1  0.09267026  0.16861894  0.08707146  1
  O  O185  1  0.59593909  0.16431910  0.08735744  1
  O  O186  1  0.34321919  0.17048627  0.74239906  1
  O  O187  1  0.84064587  0.16693258  0.74428899  1
  O  O188  1  0.22986875  0.29985573  0.74514045  1
  O  O189  1  0.73809580  0.30835357  0.74310824  1
  O  O190  1  0.41313200  0.51871135  0.74288495  1
  O  O191  1  0.91096284  0.52317590  0.74387221  1
  O  O192  1  0.34519761  0.51629184  0.24314184  1
  O  O193  1  0.84504964  0.51728839  0.24313383  1
  O  O194  1  0.40905769  0.29505731  0.24376175  1
  O  O195  1  0.90909373  0.29505963  0.24311478  1
  O  O196  1  0.23202571  0.15612910  0.24504770  1
  O  O197  1  0.73215127  0.15597851  0.24493820  1
  O  O198  1  0.32421707  0.49977985  0.92618682  1
  O  O199  1  0.82519461  0.50259843  0.92347251  1
  O  O200  1  0.42616694  0.35150976  0.92374936  1
  O  O201  1  0.92806576  0.35881929  0.92690789  1
  O  O202  1  0.25278002  0.14525465  0.92605608  1
  O  O203  1  0.75105422  0.14313688  0.92439633  1
  O  O204  1  0.32869167  0.15405775  0.42519342  1
  O  O205  1  0.82812810  0.15213068  0.42523174  1
  O  O206  1  0.25287883  0.35862511  0.42622929  1
  O  O207  1  0.75254459  0.35860340  0.42633197  1
  O  O208  1  0.42645340  0.50185035  0.42593502  1
  O  O209  1  0.92617065  0.50137275  0.42630852  1
  O  O210  1  0.18258984  0.50619764  0.07591979  1
  O  O211  1  0.68135392  0.50632625  0.07585814  1
  O  O212  1  0.07103804  0.62966496  0.07638991  1
  O  O213  1  0.57292863  0.63718204  0.07639622  1
  O  O214  1  0.24791341  0.85132490  0.07592062  1
  O  O215  1  0.74605228  0.85503792  0.07589513  1
  O  O216  1  0.17916383  0.85443835  0.57556841  1
  O  O217  1  0.68362162  0.85986078  0.57598832  1
  O  O218  1  0.24838329  0.64042058  0.57526697  1
  O  O219  1  0.74764840  0.64533124  0.57646325  1
  O  O220  1  0.07123151  0.51150915  0.57673868  1
  O  O221  1  0.57254509  0.50431248  0.57627897  1
  O  O222  1  0.15710971  0.85170417  0.25628319  1
  O  O223  1  0.65688738  0.85189012  0.25575355  1
  O  O224  1  0.26230980  0.70033572  0.25542829  1
  O  O225  1  0.76216342  0.69993180  0.25532544  1
  O  O226  1  0.08242267  0.48469389  0.25480481  1
  O  O227  1  0.58284148  0.48493088  0.25466471  1
  O  O228  1  0.15475121  0.45942413  0.75652420  1
  O  O229  1  0.65803225  0.48260486  0.75742704  1
  O  O230  1  0.08588857  0.69181972  0.75577360  1
  O  O231  1  0.58469459  0.69654482  0.75797537  1
  O  O232  1  0.25980079  0.83610955  0.75326056  1
  O  O233  1  0.75989655  0.83275015  0.75948971  1
