# generated using pymatgen
data_MgCd2(FeO2)4
_symmetry_space_group_name_H-M   'P 1'
_cell_length_a   6.47354952
_cell_length_b   6.39649465
_cell_length_c   6.54050339
_cell_angle_alpha   59.89520224
_cell_angle_beta   56.57888250
_cell_angle_gamma   60.82159958
_symmetry_Int_Tables_number   1
_chemical_formula_structural   MgCd2(FeO2)4
_chemical_formula_sum   'Mg1 Cd2 Fe4 O8'
_cell_volume   186.99717534
_cell_formula_units_Z   1
loop_
 _symmetry_equiv_pos_site_id
 _symmetry_equiv_pos_as_xyz
  1  'x, y, z'
loop_
 _atom_site_type_symbol
 _atom_site_label
 _atom_site_symmetry_multiplicity
 _atom_site_fract_x
 _atom_site_fract_y
 _atom_site_fract_z
 _atom_site_occupancy
  Mg  Mg0  1  0.89412000  0.34734600  0.89714100  1
  Cd  Cd1  1  0.19135300  0.06140600  0.19036500  1
  Cd  Cd2  1  0.84773000  0.89873500  0.84765400  1
  Fe  Fe3  1  0.50449000  0.00450400  0.50032900  1
  Fe  Fe4  1  0.98584300  0.54525600  0.42159100  1
  Fe  Fe5  1  0.41961600  0.55274300  0.98576600  1
  Fe  Fe6  1  0.50167300  0.48895300  0.50547800  1
  O  O7  1  0.72528500  0.72900800  0.72724400  1
  O  O8  1  0.28072900  0.22985000  0.74831600  1
  O  O9  1  0.29065800  0.66595500  0.29151700  1
  O  O10  1  0.74873200  0.23647000  0.28244600  1
  O  O11  1  0.72617900  0.31407400  0.72404200  1
  O  O12  1  0.27979200  0.75238700  0.70616400  1
  O  O13  1  0.29181900  0.25620900  0.28858100  1
  O  O14  1  0.70781100  0.76085400  0.27919800  1
