# generated using pymatgen
data_Na10Ta7Ga(SiO4)12
_symmetry_space_group_name_H-M   'P 1'
_cell_length_a   17.97623616
_cell_length_b   8.99577138
_cell_length_c   22.50688191
_cell_angle_alpha   90.02248514
_cell_angle_beta   89.97708285
_cell_angle_gamma   120.00543709
_symmetry_Int_Tables_number   1
_chemical_formula_structural   Na10Ta7Ga(SiO4)12
_chemical_formula_sum   'Na30 Ta21 Ga3 Si36 O144'
_cell_volume   3151.80468377
_cell_formula_units_Z   3
loop_
 _symmetry_equiv_pos_site_id
 _symmetry_equiv_pos_as_xyz
  1  'x, y, z'
loop_
 _atom_site_type_symbol
 _atom_site_label
 _atom_site_symmetry_multiplicity
 _atom_site_fract_x
 _atom_site_fract_y
 _atom_site_fract_z
 _atom_site_occupancy
  Na  Na0  1  0.81631239  0.01192221  0.24616243  1
  Na  Na1  1  0.18294455  0.36582300  0.24907126  1
  Na  Na2  1  0.68887811  0.36515336  0.24540515  1
  Na  Na3  1  0.99364350  0.61895652  0.24608356  1
  Na  Na4  1  0.31653315  0.62143291  0.74691230  1
  Na  Na5  1  0.81697082  0.62156380  0.74631338  1
  Na  Na6  1  0.99367793  0.36543678  0.74606193  1
  Na  Na7  1  0.49346007  0.36461760  0.74608632  1
  Na  Na8  1  0.18915405  0.01238059  0.74717036  1
  Na  Na9  1  0.68936117  0.01299830  0.74658536  1
  Na  Na10  1  0.15306175  0.33727524  0.58468878  1
  Na  Na11  1  0.65426564  0.33713213  0.58408294  1
  Na  Na12  1  0.33361820  0.97203091  0.58427036  1
  Na  Na13  1  0.83422095  0.97450266  0.58395332  1
  Na  Na14  1  0.65226524  0.97051048  0.08511444  1
  Na  Na15  1  0.83230580  0.69299650  0.08406840  1
  Na  Na16  1  0.01552237  0.33619080  0.08309653  1
  Na  Na17  1  0.48362959  0.29971226  0.41670781  1
  Na  Na18  1  0.99985530  0.99031365  0.49658395  1
  Na  Na19  1  0.50143548  0.98389045  0.49791386  1
  Na  Na20  1  0.00535305  0.99947899  0.99667379  1
  Na  Na21  1  0.49499207  0.00111726  0.99902298  1
  Na  Na22  1  0.33286073  0.33299717  0.83342649  1
  Na  Na23  1  0.83358511  0.33318205  0.83247671  1
  Na  Na24  1  0.33320500  0.33352501  0.33211155  1
  Na  Na25  1  0.83288078  0.33200663  0.33155064  1
  Na  Na26  1  0.17553878  0.68624209  0.16396791  1
  Na  Na27  1  0.65707467  0.65497669  0.16608756  1
  Na  Na28  1  0.16184539  0.66683060  0.66566712  1
  Na  Na29  1  0.66208629  0.66727150  0.66540301  1
  Ta  Ta30  1  0.99945202  -0.00001559  0.35617069  1
  Ta  Ta31  1  0.50002633  0.99673892  0.35446578  1
  Ta  Ta32  1  0.00012178  0.00075365  0.85668331  1
  Ta  Ta33  1  0.49987674  0.99904436  0.85675089  1
  Ta  Ta34  1  0.99995687  0.99631577  0.64505307  1
  Ta  Ta35  1  0.50041930  0.99723840  0.64507402  1
  Ta  Ta36  1  0.00315686  0.00009159  0.14464141  1
  Ta  Ta37  1  0.49692478  0.99905003  0.14397554  1
  Ta  Ta38  1  0.33635008  0.33369586  0.18749345  1
  Ta  Ta39  1  0.33293091  0.33259334  0.97682226  1
  Ta  Ta40  1  0.83354286  0.33395853  0.97722158  1
  Ta  Ta41  1  0.33050679  0.33498293  0.47845363  1
  Ta  Ta42  1  0.83444732  0.33395941  0.47718099  1
  Ta  Ta43  1  0.16955184  0.67299673  0.02130089  1
  Ta  Ta44  1  0.66369784  0.66002176  0.02015711  1
  Ta  Ta45  1  0.16424411  0.66622852  0.52004820  1
  Ta  Ta46  1  0.66554758  0.66854225  0.52055437  1
  Ta  Ta47  1  0.16895414  0.67104183  0.31263330  1
  Ta  Ta48  1  0.66469982  0.66648910  0.31201542  1
  Ta  Ta49  1  0.16685488  0.66642055  0.81452586  1
  Ta  Ta50  1  0.66671768  0.66651647  0.81435097  1
  Ga  Ga51  1  0.33368384  0.33342627  0.68550864  1
  Ga  Ga52  1  0.83362943  0.33376561  0.68512193  1
  Ga  Ga53  1  0.83259496  0.33316616  0.18502114  1
  Si  Si54  1  0.14526316  0.00028887  0.25112142  1
  Si  Si55  1  0.64463433  0.00092952  0.24806921  1
  Si  Si56  1  0.35634512  0.71144865  0.24987993  1
  Si  Si57  1  0.85584797  0.70906631  0.24937301  1
  Si  Si58  1  0.99842696  0.28892391  0.24965039  1
  Si  Si59  1  0.49847550  0.28587855  0.25093455  1
  Si  Si60  1  0.14563210  0.28867496  0.74954316  1
  Si  Si61  1  0.64557950  0.28857823  0.74974011  1
  Si  Si62  1  0.99860127  0.70828209  0.75069271  1
  Si  Si63  1  0.49847524  0.70787512  0.75044777  1
  Si  Si64  1  0.35549821  0.00273646  0.74987771  1
  Si  Si65  1  0.85547883  0.00285240  0.74994515  1
  Si  Si66  1  0.47645097  0.33755205  0.58551851  1
  Si  Si67  1  0.97639786  0.33752353  0.58638359  1
  Si  Si68  1  0.19026356  0.04545409  0.58619668  1
  Si  Si69  1  0.69131893  0.04828077  0.58538960  1
  Si  Si70  1  0.33406228  0.61955239  0.58588295  1
  Si  Si71  1  0.83441263  0.61784339  0.58504273  1
  Si  Si72  1  0.47628237  0.62088533  0.08209238  1
  Si  Si73  1  0.97664483  0.61759628  0.08553995  1
  Si  Si74  1  0.33316393  0.04737233  0.08242719  1
  Si  Si75  1  0.83272325  0.04724034  0.08544224  1
  Si  Si76  1  0.19148644  0.33604950  0.08367802  1
  Si  Si77  1  0.69006837  0.33299738  0.08547716  1
  Si  Si78  1  0.31176702  0.66511960  0.91672562  1
  Si  Si79  1  0.81187497  0.66683910  0.91738449  1
  Si  Si80  1  0.02230100  0.37798858  0.91813541  1
  Si  Si81  1  0.52000370  0.37473955  0.91584054  1
  Si  Si82  1  0.16706156  0.95732295  0.91665648  1
  Si  Si83  1  0.66686412  0.95697238  0.91747907  1
  Si  Si84  1  0.31161769  0.95641141  0.41784211  1
  Si  Si85  1  0.81096770  0.95541199  0.41650308  1
  Si  Si86  1  0.16600957  0.37696781  0.41630862  1
  Si  Si87  1  0.66867822  0.37843818  0.41607078  1
  Si  Si88  1  0.02166624  0.66605164  0.41514394  1
  Si  Si89  1  0.52166534  0.66939992  0.41695849  1
  O  O90  1  0.09844760  0.03361451  0.30732338  1
  O  O91  1  0.59464694  0.02806592  0.30519775  1
  O  O92  1  0.41576308  0.80724904  0.30801494  1
  O  O93  1  0.91968008  0.80916667  0.30539898  1
  O  O94  1  0.48627929  0.17327984  0.31106642  1
  O  O95  1  0.98564179  0.16267052  0.30577097  1
  O  O96  1  0.09578949  0.16158988  0.80531310  1
  O  O97  1  0.59574782  0.16107779  0.80532552  1
  O  O98  1  0.48487800  0.80607245  0.80662158  1
  O  O99  1  0.98493759  0.80700089  0.80670157  1
  O  O100  1  0.41919787  0.02953570  0.80545002  1
  O  O101  1  0.91886934  0.02923709  0.80560866  1
  O  O102  1  0.39945687  0.96628618  0.69055230  1
  O  O103  1  0.89925427  0.96606432  0.69070770  1
  O  O104  1  0.08345146  0.20165770  0.69034224  1
  O  O105  1  0.58346710  0.20225523  0.69040097  1
  O  O106  1  0.01727947  0.83829019  0.69307990  1
  O  O107  1  0.51725485  0.83843591  0.69299896  1
  O  O108  1  0.40292663  0.83258171  0.19237549  1
  O  O109  1  0.89998206  0.83433217  0.19079134  1
  O  O110  1  0.01703570  0.20023797  0.19118896  1
  O  O111  1  0.51627241  0.19354561  0.19444447  1
  O  O112  1  0.08193157  0.96628233  0.19335817  1
  O  O113  1  0.58558406  0.97175215  0.18931860  1
  O  O114  1  0.43675569  0.36565633  0.64565698  1
  O  O115  1  0.93798571  0.36654384  0.64712372  1
  O  O116  1  0.24858300  0.12097529  0.64515857  1
  O  O117  1  0.74847992  0.12060559  0.64526681  1
  O  O118  1  0.31145109  0.50075083  0.64447240  1
  O  O119  1  0.81122422  0.50141446  0.64457407  1
  O  O120  1  0.43053663  0.50175056  0.14098466  1
  O  O121  1  0.93846742  0.50187379  0.14520414  1
  O  O122  1  0.32008095  0.14036892  0.14126194  1
  O  O123  1  0.81146989  0.12147890  0.14494607  1
  O  O124  1  0.24715360  0.35971114  0.14423367  1
  O  O125  1  0.74902220  0.37819634  0.14499157  1
  O  O126  1  0.23718194  0.30655878  0.02655816  1
  O  O127  1  0.73649666  0.29926785  0.02836973  1
  O  O128  1  0.41681208  0.52701014  0.02496976  1
  O  O129  1  0.91299301  0.52879374  0.02837181  1
  O  O130  1  0.34700428  0.16691989  0.02508727  1
  O  O131  1  0.85120414  0.17413329  0.02850468  1
  O  O132  1  0.23633288  0.17107881  0.52827633  1
  O  O133  1  0.73602594  0.17288892  0.52797340  1
  O  O134  1  0.34743750  0.52610513  0.52738663  1
  O  O135  1  0.84748381  0.52498273  0.52702025  1
  O  O136  1  0.41635094  0.30132572  0.52602763  1
  O  O137  1  0.91349088  0.29911953  0.52887624  1
  O  O138  1  0.26251638  0.69139866  0.97331364  1
  O  O139  1  0.76485741  0.69223174  0.97563172  1
  O  O140  1  0.08113315  0.46915138  0.97658270  1
  O  O141  1  0.58278471  0.47436068  0.97252368  1
  O  O142  1  0.15375384  0.83259209  0.97315148  1
  O  O143  1  0.65442589  0.83807854  0.97584520  1
  O  O144  1  0.26622960  0.84003391  0.47683119  1
  O  O145  1  0.76475802  0.83681788  0.47539897  1
  O  O146  1  0.15540024  0.47079158  0.47557779  1
  O  O147  1  0.65178211  0.46918095  0.47423490  1
  O  O148  1  0.08351438  0.69104749  0.47248792  1
  O  O149  1  0.58221048  0.69250320  0.47449235  1
  O  O150  1  0.06808666  0.64005280  0.35641756  1
  O  O151  1  0.56840545  0.63497448  0.36012066  1
  O  O152  1  0.25022837  0.85928313  0.36048884  1
  O  O153  1  0.75110729  0.86081531  0.35799351  1
  O  O154  1  0.17940129  0.49540664  0.35750352  1
  O  O155  1  0.67925034  0.49583269  0.35736035  1
  O  O156  1  0.06895609  0.49653483  0.85843617  1
  O  O157  1  0.56793393  0.49450631  0.85676952  1
  O  O158  1  0.17928593  0.86369770  0.85685966  1
  O  O159  1  0.67919899  0.86225590  0.85821377  1
  O  O160  1  0.25284658  0.64099483  0.85684228  1
  O  O161  1  0.75213671  0.64144010  0.85807245  1
  O  O162  1  0.01356448  0.83756612  0.40947685  1
  O  O163  1  0.51269140  0.83895195  0.41093226  1
  O  O164  1  0.40810126  0.98275119  0.41133012  1
  O  O165  1  0.90518826  0.97237861  0.40974181  1
  O  O166  1  0.08091193  0.18837486  0.41025824  1
  O  O167  1  0.57972621  0.19248441  0.41035667  1
  O  O168  1  0.01348604  0.18967857  0.90948299  1
  O  O169  1  0.51356796  0.18868506  0.90940541  1
  O  O170  1  0.08109477  0.97342240  0.90950812  1
  O  O171  1  0.58123859  0.97308218  0.90957895  1
  O  O172  1  0.40535270  0.83788762  0.90938332  1
  O  O173  1  0.90553785  0.83852628  0.90990114  1
  O  O174  1  0.48685097  0.16280244  0.58933230  1
  O  O175  1  0.98715341  0.16326227  0.58996537  1
  O  O176  1  0.09588684  0.03405435  0.58959517  1
  O  O177  1  0.59594781  0.03358022  0.58992697  1
  O  O178  1  0.41766007  0.81577909  0.58924530  1
  O  O179  1  0.91720220  0.81548802  0.58952033  1
  O  O180  1  0.49072237  0.81539824  0.08916859  1
  O  O181  1  0.98356572  0.80833063  0.09028962  1
  O  O182  1  0.41850195  0.02734300  0.09060895  1
  O  O183  1  0.91937107  0.02684383  0.08987476  1
  O  O184  1  0.09343910  0.16608095  0.09025694  1
  O  O185  1  0.59532948  0.15874587  0.08978406  1
  O  O186  1  0.34520064  0.17095814  0.74597695  1
  O  O187  1  0.84496510  0.17083497  0.74630494  1
  O  O188  1  0.24002196  0.30869784  0.74518062  1
  O  O189  1  0.74003833  0.30880682  0.74531343  1
  O  O190  1  0.41409892  0.52011586  0.74523803  1
  O  O191  1  0.91404245  0.52050846  0.74550038  1
  O  O192  1  0.34200607  0.51758465  0.24472496  1
  O  O193  1  0.84619283  0.52050644  0.24578467  1
  O  O194  1  0.41469208  0.30916642  0.24437812  1
  O  O195  1  0.91345321  0.30685549  0.24580886  1
  O  O196  1  0.23803826  0.17416457  0.24416540  1
  O  O197  1  0.73928939  0.17182946  0.24594094  1
  O  O198  1  0.31979814  0.49466117  0.92236168  1
  O  O199  1  0.81941545  0.49473678  0.92361260  1
  O  O200  1  0.42708028  0.35936986  0.92198030  1
  O  O201  1  0.92802521  0.36152672  0.92384051  1
  O  O202  1  0.25212766  0.14448564  0.92247821  1
  O  O203  1  0.75275359  0.14426961  0.92371947  1
  O  O204  1  0.32390756  0.14925453  0.42339636  1
  O  O205  1  0.81953284  0.14340206  0.42396372  1
  O  O206  1  0.25238348  0.35991088  0.42305478  1
  O  O207  1  0.75281871  0.35833148  0.42278953  1
  O  O208  1  0.42937483  0.49202671  0.42370388  1
  O  O209  1  0.92821911  0.49447089  0.42362840  1
  O  O210  1  0.17536498  0.49996198  0.07805241  1
  O  O211  1  0.68069570  0.50511130  0.07561067  1
  O  O212  1  0.07165946  0.63779266  0.07594806  1
  O  O213  1  0.57432148  0.64875625  0.07741816  1
  O  O214  1  0.24820727  0.85573632  0.07715395  1
  O  O215  1  0.74912631  0.85259840  0.07643281  1
  O  O216  1  0.18071421  0.85557578  0.57607892  1
  O  O217  1  0.68122520  0.85671262  0.57601421  1
  O  O218  1  0.24952048  0.64519219  0.57628924  1
  O  O219  1  0.74967187  0.64453212  0.57553643  1
  O  O220  1  0.07551345  0.49855220  0.57690695  1
  O  O221  1  0.57572483  0.49826482  0.57674621  1
  O  O222  1  0.15015320  0.82396554  0.25600162  1
  O  O223  1  0.65533767  0.82994933  0.25647243  1
  O  O224  1  0.25930822  0.68623809  0.25636883  1
  O  O225  1  0.76082815  0.69503590  0.25570468  1
  O  O226  1  0.08659299  0.47818086  0.25589577  1
  O  O227  1  0.58744973  0.47404907  0.25637093  1
  O  O228  1  0.15186784  0.47828004  0.75531881  1
  O  O229  1  0.65216315  0.47856239  0.75548332  1
  O  O230  1  0.08693244  0.69504265  0.75531339  1
  O  O231  1  0.58716709  0.69569294  0.75527326  1
  O  O232  1  0.26057744  0.82546697  0.75521545  1
  O  O233  1  0.76056531  0.82536278  0.75548277  1
