# generated using pymatgen
data_NaY2Ge2P3(SO8)3
_symmetry_space_group_name_H-M   'P 1'
_cell_length_a   8.77735488
_cell_length_b   8.77051248
_cell_length_c   22.74260285
_cell_angle_alpha   90.52504930
_cell_angle_beta   90.27117538
_cell_angle_gamma   120.24202037
_symmetry_Int_Tables_number   1
_chemical_formula_structural   NaY2Ge2P3(SO8)3
_chemical_formula_sum   'Na3 Y6 Ge6 P9 S9 O72'
_cell_volume   1512.34699910
_cell_formula_units_Z   3
loop_
 _symmetry_equiv_pos_site_id
 _symmetry_equiv_pos_as_xyz
  1  'x, y, z'
loop_
 _atom_site_type_symbol
 _atom_site_label
 _atom_site_symmetry_multiplicity
 _atom_site_fract_x
 _atom_site_fract_y
 _atom_site_fract_z
 _atom_site_occupancy
  Na  Na0  1  0.68768567  0.33674199  0.83580167  1
  Na  Na1  1  0.66109400  0.34646272  0.33173869  1
  Na  Na2  1  0.35114783  0.68065513  0.16303034  1
  Y  Y3  1  0.67615764  0.33678804  0.68580892  1
  Y  Y4  1  0.65622284  0.32938970  0.18383431  1
  Y  Y5  1  0.66309611  0.32193721  0.98747173  1
  Y  Y6  1  0.66338528  0.33704662  0.48408172  1
  Y  Y7  1  0.33657208  0.66997605  0.30668493  1
  Y  Y8  1  0.33012321  0.66920897  0.80360015  1
  Ge  Ge9  1  0.01733613  0.99236059  0.35499531  1
  Ge  Ge10  1  0.99228106  0.00330974  0.85642790  1
  Ge  Ge11  1  0.99290602  0.99229341  0.64997503  1
  Ge  Ge12  1  0.99782250  0.99981616  0.14627683  1
  Ge  Ge13  1  0.33303324  0.64789840  0.01837659  1
  Ge  Ge14  1  0.31923350  0.65665351  0.50915253  1
  P  P15  1  0.27408856  0.00430643  0.24822635  1
  P  P16  1  0.73882076  0.73218546  0.25021693  1
  P  P17  1  0.98958876  0.73218949  0.75234118  1
  P  P18  1  0.73546660  0.00896626  0.75090143  1
  P  P19  1  0.66505762  0.01169826  0.08341138  1
  P  P20  1  0.34589179  0.32694695  0.08415215  1
  P  P21  1  0.04972804  0.36793910  0.91504706  1
  P  P22  1  0.31335064  0.36341383  0.41444961  1
  P  P23  1  0.04619087  0.67788684  0.41528434  1
  S  S24  1  0.99349989  0.26832291  0.24982633  1
  S  S25  1  0.27519954  0.26532013  0.74962030  1
  S  S26  1  0.98778540  0.33322023  0.58327625  1
  S  S27  1  0.34623115  0.01144464  0.58389316  1
  S  S28  1  0.66231473  0.65242070  0.58384828  1
  S  S29  1  0.98427634  0.64897904  0.08370768  1
  S  S30  1  0.63466259  0.67898293  0.91600433  1
  S  S31  1  0.31448029  0.95285382  0.91588331  1
  S  S32  1  0.63473225  0.95065997  0.41874400  1
  O  O33  1  0.19662099  0.02626820  0.30785919  1
  O  O34  1  0.83784247  0.82168558  0.30999315  1
  O  O35  1  0.98143043  0.17114128  0.30418191  1
  O  O36  1  0.19588005  0.16304988  0.80364174  1
  O  O37  1  0.96894994  0.82038402  0.80927779  1
  O  O38  1  0.84737545  0.04220598  0.80838699  1
  O  O39  1  0.82228161  0.99674883  0.69250264  1
  O  O40  1  0.17548515  0.18465736  0.69333517  1
  O  O41  1  0.00906505  0.83114936  0.69347586  1
  O  O42  1  0.82627216  0.83398491  0.19376070  1
  O  O43  1  0.00536069  0.18651137  0.19414544  1
  O  O44  1  0.17028706  0.99740125  0.19270998  1
  O  O45  1  0.91282982  0.37332257  0.63492060  1
  O  O46  1  0.46134757  0.09214712  0.63575964  1
  O  O47  1  0.62906152  0.54071801  0.63529988  1
  O  O48  1  0.90848985  0.53457422  0.13481956  1
  O  O49  1  0.61859710  0.08667243  0.13690141  1
  O  O50  1  0.47008007  0.37937762  0.13746038  1
  O  O51  1  0.42622852  0.29193264  0.03013526  1
  O  O52  1  0.87226427  0.57123494  0.03094860  1
  O  O53  1  0.70668979  0.13076733  0.03027843  1
  O  O54  1  0.42202625  0.12680714  0.53289814  1
  O  O55  1  0.70380658  0.57659025  0.53275069  1
  O  O56  1  0.86952956  0.29034664  0.53233046  1
  O  O57  1  0.55240914  0.70569987  0.97036585  1
  O  O58  1  0.16733663  0.46028200  0.97234009  1
  O  O59  1  0.29370184  0.84887030  0.96964438  1
  O  O60  1  0.54369773  0.83526654  0.47225592  1
  O  O61  1  0.28471625  0.45302256  0.47183016  1
  O  O62  1  0.16436607  0.70878095  0.47283506  1
  O  O63  1  0.12672111  0.64570000  0.36210248  1
  O  O64  1  0.52570173  0.87965584  0.36592989  1
  O  O65  1  0.35452065  0.47973899  0.36191721  1
  O  O66  1  0.13212845  0.47819928  0.86153453  1
  O  O67  1  0.34686557  0.87649633  0.86359463  1
  O  O68  1  0.52765734  0.65041483  0.86361830  1
  O  O69  1  0.03449526  0.84849295  0.41021666  1
  O  O70  1  0.80632995  0.96204128  0.41361870  1
  O  O71  1  0.13874052  0.18249183  0.40652123  1
  O  O72  1  0.04182759  0.18481377  0.90877754  1
  O  O73  1  0.14918432  0.96237204  0.90911639  1
  O  O74  1  0.81057894  0.84562035  0.91137250  1
  O  O75  1  0.01421848  0.17986656  0.59455017  1
  O  O76  1  0.16641954  0.98906522  0.59412941  1
  O  O77  1  0.82247405  0.83345836  0.59328357  1
  O  O78  1  0.00695062  0.82548452  0.09341291  1
  O  O79  1  0.82133846  0.98220304  0.09596945  1
  O  O80  1  0.16128106  0.16821098  0.09641928  1
  O  O81  1  0.71619151  0.17343008  0.74767589  1
  O  O82  1  0.44906840  0.27961335  0.74556546  1
  O  O83  1  0.82067504  0.55082443  0.74920793  1
  O  O84  1  0.72619895  0.55138470  0.24911461  1
  O  O85  1  0.83534761  0.28595324  0.24839530  1
  O  O86  1  0.45886221  0.16917726  0.24866073  1
  O  O87  1  0.66178559  0.52763679  0.92275884  1
  O  O88  1  0.86417000  0.33921114  0.92318026  1
  O  O89  1  0.46659904  0.13513258  0.92089762  1
  O  O90  1  0.65708024  0.12695206  0.42841017  1
  O  O91  1  0.46720122  0.33159079  0.42563646  1
  O  O92  1  0.86201871  0.51885863  0.42471495  1
  O  O93  1  0.32343301  0.49288426  0.07382127  1
  O  O94  1  0.16349053  0.67016969  0.07375441  1
  O  O95  1  0.49465929  0.82497720  0.06944299  1
  O  O96  1  0.32954051  0.83500119  0.57275424  1
  O  O97  1  0.50607133  0.67223584  0.57194477  1
  O  O98  1  0.16430215  0.49444246  0.57228561  1
  O  O99  1  0.28292368  0.83473601  0.24704586  1
  O  O100  1  0.55692188  0.71641563  0.25007306  1
  O  O101  1  0.15428303  0.44381784  0.24950423  1
  O  O102  1  0.28970206  0.43688187  0.75159298  1
  O  O103  1  0.15346940  0.71821952  0.75425597  1
  O  O104  1  0.56174548  0.83958395  0.75341872  1
