# generated using pymatgen
data_Na6TaAl3Si2(PO6)4
_symmetry_space_group_name_H-M   'P 1'
_cell_length_a   8.72204360
_cell_length_b   8.74228364
_cell_length_c   21.66613207
_cell_angle_alpha   89.90985046
_cell_angle_beta   89.86861089
_cell_angle_gamma   119.78240840
_symmetry_Int_Tables_number   1
_chemical_formula_structural   Na6TaAl3Si2(PO6)4
_chemical_formula_sum   'Na18 Ta3 Al9 Si6 P12 O72'
_cell_volume   1433.83759862
_cell_formula_units_Z   3
loop_
 _symmetry_equiv_pos_site_id
 _symmetry_equiv_pos_as_xyz
  1  'x, y, z'
loop_
 _atom_site_type_symbol
 _atom_site_label
 _atom_site_symmetry_multiplicity
 _atom_site_fract_x
 _atom_site_fract_y
 _atom_site_fract_z
 _atom_site_occupancy
  Na  Na0  1  0.99905441  0.98727825  0.50293277  1
  Na  Na1  1  0.97340208  0.98866163  0.99644485  1
  Na  Na2  1  0.66242519  0.33600591  0.82658959  1
  Na  Na3  1  0.66258379  0.34058945  0.32823110  1
  Na  Na4  1  0.33574387  0.65813830  0.16228282  1
  Na  Na5  1  0.33007067  0.66434522  0.66177113  1
  Na  Na6  1  0.63822800  0.00685919  0.24431765  1
  Na  Na7  1  0.99784489  0.35857753  0.74467331  1
  Na  Na8  1  0.36337614  0.00373204  0.74935396  1
  Na  Na9  1  0.29943686  0.33288697  0.58867595  1
  Na  Na10  1  0.66780765  0.96664308  0.58510639  1
  Na  Na11  1  0.29363739  0.96347132  0.08507380  1
  Na  Na12  1  0.03361480  0.33463464  0.08249363  1
  Na  Na13  1  0.97280441  0.67609107  0.91279121  1
  Na  Na14  1  0.32790283  0.29523251  0.91163781  1
  Na  Na15  1  0.96214309  0.29518489  0.41768693  1
  Na  Na16  1  0.33578791  0.03716739  0.41342700  1
  Na  Na17  1  0.70059997  0.67136890  0.41942366  1
  Ta  Ta18  1  0.66775265  0.33167015  0.97875475  1
  Ta  Ta19  1  0.33181403  0.67061125  0.30918612  1
  Ta  Ta20  1  0.33987289  0.66412290  0.81057010  1
  Al  Al21  1  0.99775225  0.99874930  0.35072278  1
  Al  Al22  1  0.00279663  0.00325314  0.85467240  1
  Al  Al23  1  0.00109736  0.99725888  0.64622065  1
  Al  Al24  1  0.99778102  0.99462150  0.14813610  1
  Al  Al25  1  0.66539202  0.33808884  0.68490827  1
  Al  Al26  1  0.66161316  0.33642819  0.18905055  1
  Al  Al27  1  0.66483682  0.33182333  0.48281830  1
  Al  Al28  1  0.33866566  0.66621324  0.01882729  1
  Al  Al29  1  0.33585483  0.67055082  0.52072985  1
  Si  Si30  1  0.28644702  0.01491515  0.24887038  1
  Si  Si31  1  0.28961077  0.28075458  0.74608945  1
  Si  Si32  1  0.62857184  0.68285199  0.92042005  1
  Si  Si33  1  0.04932535  0.37384451  0.91943892  1
  Si  Si34  1  0.32912978  0.94808635  0.91950196  1
  Si  Si35  1  0.62950596  0.96134512  0.42033330  1
  P  P36  1  0.72429791  0.71141260  0.25030734  1
  P  P37  1  0.99672616  0.28218629  0.24815820  1
  P  P38  1  0.98971493  0.71192251  0.74813335  1
  P  P39  1  0.72233664  0.00340255  0.74584891  1
  P  P40  1  0.95652564  0.33849447  0.58290228  1
  P  P41  1  0.37512393  0.04060481  0.58317585  1
  P  P42  1  0.67027817  0.62153689  0.58212943  1
  P  P43  1  0.95292493  0.62460203  0.08836969  1
  P  P44  1  0.66592534  0.03561336  0.08898954  1
  P  P45  1  0.37465973  0.33783011  0.08791731  1
  P  P46  1  0.33282077  0.37734044  0.42113300  1
  P  P47  1  0.04336637  0.66647372  0.42069755  1
  O  O48  1  0.19539299  0.02822648  0.31244556  1
  O  O49  1  0.82195764  0.79269302  0.31125086  1
  O  O50  1  0.96641937  0.16923137  0.30695275  1
  O  O51  1  0.20306003  0.16481884  0.80828584  1
  O  O52  1  0.97128656  0.78987124  0.80916715  1
  O  O53  1  0.83611297  0.02774107  0.80226742  1
  O  O54  1  0.79717210  0.97475655  0.68554882  1
  O  O55  1  0.16304167  0.19696634  0.68613578  1
  O  O56  1  0.02263264  0.83239375  0.69270720  1
  O  O57  1  0.80192102  0.83870283  0.19554495  1
  O  O58  1  0.02300764  0.19885508  0.18979723  1
  O  O59  1  0.17081303  0.97739018  0.18730924  1
  O  O60  1  0.86835261  0.35856170  0.64164491  1
  O  O61  1  0.49509793  0.12606790  0.63995364  1
  O  O62  1  0.63746277  0.49759380  0.63678999  1
  O  O63  1  0.85485065  0.49562875  0.14055801  1
  O  O64  1  0.63952987  0.12733059  0.14530425  1
  O  O65  1  0.49178254  0.35614941  0.14220561  1
  O  O66  1  0.46119345  0.30817835  0.02809669  1
  O  O67  1  0.84825171  0.53801165  0.02707804  1
  O  O68  1  0.69666915  0.16083618  0.03168418  1
  O  O69  1  0.46026542  0.16059521  0.52547324  1
  O  O70  1  0.69280250  0.53891366  0.52189741  1
  O  O71  1  0.83917937  0.31012184  0.52558131  1
  O  O72  1  0.53308748  0.70371382  0.97931178  1
  O  O73  1  0.16668779  0.46493538  0.98000940  1
  O  O74  1  0.29647271  0.82745158  0.97964687  1
  O  O75  1  0.53743237  0.82881244  0.47814255  1
  O  O76  1  0.29939701  0.46241188  0.47793379  1
  O  O77  1  0.16811984  0.69838591  0.47458365  1
  O  O78  1  0.12699695  0.62982054  0.36180838  1
  O  O79  1  0.49860121  0.86768174  0.35906840  1
  O  O80  1  0.36380876  0.49790081  0.36387840  1
  O  O81  1  0.13355084  0.50233037  0.85745595  1
  O  O82  1  0.36683552  0.86842038  0.85583541  1
  O  O83  1  0.49723548  0.62787341  0.85913504  1
  O  O84  1  0.02538469  0.83233525  0.41273921  1
  O  O85  1  0.82453423  0.98121922  0.40958888  1
  O  O86  1  0.16882129  0.19283573  0.41330308  1
  O  O87  1  0.02801611  0.18437469  0.90869392  1
  O  O88  1  0.16063122  0.97536206  0.91099975  1
  O  O89  1  0.82250579  0.84141533  0.90786084  1
  O  O90  1  0.97441267  0.16809947  0.58505437  1
  O  O91  1  0.18971395  0.02272713  0.58910976  1
  O  O92  1  0.83162458  0.81009944  0.58814219  1
  O  O93  1  0.97047805  0.80898367  0.09092073  1
  O  O94  1  0.83667870  0.02408276  0.09146345  1
  O  O95  1  0.18754351  0.16944816  0.08902043  1
  O  O96  1  0.69761766  0.16840256  0.74167080  1
  O  O97  1  0.48607696  0.30331711  0.73936545  1
  O  O98  1  0.83499392  0.52113099  0.74112059  1
  O  O99  1  0.70285051  0.52949817  0.24240744  1
  O  O100  1  0.83629590  0.31002414  0.24314787  1
  O  O101  1  0.49021531  0.17681372  0.24500684  1
  O  O102  1  0.64278625  0.49890329  0.92543948  1
  O  O103  1  0.85638132  0.36483712  0.92280430  1
  O  O104  1  0.50313151  0.14787534  0.92446336  1
  O  O105  1  0.64492728  0.15522279  0.42539338  1
  O  O106  1  0.50212361  0.36175656  0.42527031  1
  O  O107  1  0.85807198  0.50131957  0.42535644  1
  O  O108  1  0.35189066  0.50090517  0.08178582  1
  O  O109  1  0.13956003  0.64311119  0.08384831  1
  O  O110  1  0.49630194  0.85743765  0.08140816  1
  O  O111  1  0.36060979  0.85678292  0.57642639  1
  O  O112  1  0.49867620  0.63911829  0.57885037  1
  O  O113  1  0.14559261  0.50093544  0.57728728  1
  O  O114  1  0.31145243  0.83168276  0.25454220  1
  O  O115  1  0.53128891  0.69044235  0.25651140  1
  O  O116  1  0.16772705  0.46701570  0.25541969  1
  O  O117  1  0.30512187  0.47957427  0.75045815  1
  O  O118  1  0.16416620  0.69513776  0.75052766  1
  O  O119  1  0.52906221  0.84098791  0.75084177  1
