# generated using pymatgen
data_Na2LaNb3Si2(PO6)4
_symmetry_space_group_name_H-M   'P 1'
_cell_length_a   9.00624086
_cell_length_b   9.01968172
_cell_length_c   23.25152316
_cell_angle_alpha   90.04544491
_cell_angle_beta   90.02585314
_cell_angle_gamma   119.97749133
_symmetry_Int_Tables_number   1
_chemical_formula_structural   Na2LaNb3Si2(PO6)4
_chemical_formula_sum   'Na6 La3 Nb9 Si6 P12 O72'
_cell_volume   1636.11913514
_cell_formula_units_Z   3
loop_
 _symmetry_equiv_pos_site_id
 _symmetry_equiv_pos_as_xyz
  1  'x, y, z'
loop_
 _atom_site_type_symbol
 _atom_site_label
 _atom_site_symmetry_multiplicity
 _atom_site_fract_x
 _atom_site_fract_y
 _atom_site_fract_z
 _atom_site_occupancy
  Na  Na0  1  0.99529025  0.99763106  0.49912495  1
  Na  Na1  1  0.99709226  0.99693813  0.00247109  1
  Na  Na2  1  0.66857983  0.33395659  0.83402522  1
  Na  Na3  1  0.66647393  0.33598383  0.32696915  1
  Na  Na4  1  0.33352498  0.66060360  0.16452247  1
  Na  Na5  1  0.32636944  0.66160804  0.66900294  1
  La  La6  1  0.99811804  0.00039994  0.35989697  1
  La  La7  1  0.67081727  0.33526374  0.68774724  1
  La  La8  1  0.66421993  0.33509045  0.17701792  1
  Nb  Nb9  1  0.00045140  0.00019163  0.85941552  1
  Nb  Nb10  1  0.99918483  0.00225017  0.64589064  1
  Nb  Nb11  1  0.00328005  0.00361723  0.14655974  1
  Nb  Nb12  1  0.66129973  0.33179979  0.97867340  1
  Nb  Nb13  1  0.66993754  0.32884762  0.47949614  1
  Nb  Nb14  1  0.33312692  0.66448605  0.01512155  1
  Nb  Nb15  1  0.33611025  0.66776002  0.52083466  1
  Nb  Nb16  1  0.33814564  0.67143966  0.31116854  1
  Nb  Nb17  1  0.33233569  0.66607169  0.81468450  1
  Si  Si18  1  0.96486756  0.33364052  0.58287839  1
  Si  Si19  1  0.36442456  0.33521619  0.08135507  1
  Si  Si20  1  0.61964871  0.66219319  0.91519397  1
  Si  Si21  1  0.04088835  0.38042010  0.91519265  1
  Si  Si22  1  0.33812256  0.95670239  0.91557887  1
  Si  Si23  1  0.61165123  0.95870438  0.41904368  1
  P  P24  1  0.28852737  0.98780224  0.25010855  1
  P  P25  1  0.70078282  0.71051332  0.24975691  1
  P  P26  1  0.01148520  0.30140887  0.24996287  1
  P  P27  1  0.27287839  0.28750280  0.75319128  1
  P  P28  1  0.01485368  0.72757993  0.75306481  1
  P  P29  1  0.71124997  0.98380773  0.75323257  1
  P  P30  1  0.36697641  0.03664248  0.58124290  1
  P  P31  1  0.66995112  0.63193750  0.58150749  1
  P  P32  1  0.96947349  0.63695517  0.07981836  1
  P  P33  1  0.66692051  0.03032330  0.07967458  1
  P  P34  1  0.35297130  0.39555967  0.41915111  1
  P  P35  1  0.04422655  0.64940313  0.41927954  1
  O  O36  1  0.21286245  0.01037311  0.30466694  1
  O  O37  1  0.79712867  0.78909475  0.30462198  1
  O  O38  1  0.98915461  0.20121591  0.30412114  1
  O  O39  1  0.17314206  0.17990044  0.80593471  1
  O  O40  1  0.00770507  0.82777142  0.80612588  1
  O  O41  1  0.81976099  -0.00656060  0.80601776  1
  O  O42  1  0.80570274  0.97441338  0.69672475  1
  O  O43  1  0.16918438  0.19289656  0.69658931  1
  O  O44  1  0.02501064  0.82954547  0.69681584  1
  O  O45  1  0.79822894  0.82501735  0.19567909  1
  O  O46  1  0.02458038  0.19677842  0.19542703  1
  O  O47  1  0.17146394  0.97284030  0.19584476  1
  O  O48  1  0.90583118  0.38189977  0.64062548  1
  O  O49  1  0.47031119  0.09429960  0.63613105  1
  O  O50  1  0.62234852  0.53028207  0.63674449  1
  O  O51  1  0.92080986  0.53999610  0.13600534  1
  O  O52  1  0.62230661  0.08206327  0.13599723  1
  O  O53  1  0.46442977  0.38556669  0.14041973  1
  O  O54  1  0.47255222  0.30528943  0.02807326  1
  O  O55  1  0.84158770  0.53589317  0.02991234  1
  O  O56  1  0.69702839  0.15835024  0.02960511  1
  O  O57  1  0.46144115  0.16066218  0.52976315  1
  O  O58  1  0.69651290  0.53675144  0.53023851  1
  O  O59  1  0.82883541  0.30246303  0.52810632  1
  O  O60  1  0.52914578  0.69535656  0.96981755  1
  O  O61  1  0.16670438  0.47206349  0.96934483  1
  O  O62  1  0.30431435  0.83444457  0.97006404  1
  O  O63  1  0.49841211  0.84426703  0.47279381  1
  O  O64  1  0.34360188  0.49457578  0.47192479  1
  O  O65  1  0.14866805  0.65161389  0.47196282  1
  O  O66  1  0.13035316  0.63347242  0.36280813  1
  O  O67  1  0.49782602  0.85962570  0.35945854  1
  O  O68  1  0.36298151  0.49750996  0.36293823  1
  O  O69  1  0.13618707  0.50242343  0.85802850  1
  O  O70  1  0.36600205  0.86271295  0.85827765  1
  O  O71  1  0.49741624  0.63313130  0.85811307  1
  O  O72  1  0.02719720  0.80716765  0.42279933  1
  O  O73  1  0.79771742  0.98295725  0.42567359  1
  O  O74  1  0.19749859  0.21887669  0.42212341  1
  O  O75  1  0.01926761  0.18908156  0.90673040  1
  O  O76  1  0.17135557  0.98324996  0.90680376  1
  O  O77  1  0.81178601  0.83050352  0.90705723  1
  O  O78  1  0.97508076  0.15491797  0.59235705  1
  O  O79  1  0.18794060  0.02351888  0.58951968  1
  O  O80  1  0.83736426  0.81013889  0.59013338  1
  O  O81  1  0.97645773  0.81346134  0.08782796  1
  O  O82  1  0.83366805  0.01759115  0.08756210  1
  O  O83  1  0.17545402  0.15548331  0.09093712  1
  O  O84  1  0.69322290  0.14235503  0.75378660  1
  O  O85  1  0.44890487  0.30441795  0.75375932  1
  O  O86  1  0.85477706  0.55175523  0.75479309  1
  O  O87  1  0.66576935  0.52851530  0.24579287  1
  O  O88  1  0.86457664  0.33589947  0.24383754  1
  O  O89  1  0.47156193  0.13116247  0.24387120  1
  O  O90  1  0.64106662  0.49401178  0.92583315  1
  O  O91  1  0.85295047  0.35992643  0.92604168  1
  O  O92  1  0.50827772  0.14587933  0.92551788  1
  O  O93  1  0.62018245  0.14750608  0.42535843  1
  O  O94  1  0.52023689  0.38600915  0.42459525  1
  O  O95  1  0.86187945  0.48511934  0.42464749  1
  O  O96  1  0.32944447  0.49243141  0.06645991  1
  O  O97  1  0.15214624  0.67142707  0.06577939  1
  O  O98  1  0.51517717  0.84983928  0.06592861  1
  O  O99  1  0.33043253  0.85159611  0.56914634  1
  O  O100  1  0.52273921  0.67140048  0.56930537  1
  O  O101  1  0.15932496  0.48715110  0.56897204  1
  O  O102  1  0.28730278  0.81094329  0.25462189  1
  O  O103  1  0.52107265  0.70531566  0.25484790  1
  O  O104  1  0.18612760  0.47557914  0.25405001  1
  O  O105  1  0.28430910  0.46559106  0.75512178  1
  O  O106  1  0.18086670  0.71367058  0.75569757  1
  O  O107  1  0.53307228  0.81729636  0.75513025  1
