# generated using pymatgen
data_Na6Ga4Si5Ge4S7O48
_symmetry_space_group_name_H-M   'P 1'
_cell_length_a   17.20326609
_cell_length_b   8.63952477
_cell_length_c   22.05617494
_cell_angle_alpha   90.07994297
_cell_angle_beta   89.89635313
_cell_angle_gamma   120.31962206
_symmetry_Int_Tables_number   1
_chemical_formula_structural   Na6Ga4Si5Ge4S7O48
_chemical_formula_sum   'Na18 Ga12 Si15 Ge12 S21 O144'
_cell_volume   2829.78239150
_cell_formula_units_Z   3
loop_
 _symmetry_equiv_pos_site_id
 _symmetry_equiv_pos_as_xyz
  1  'x, y, z'
loop_
 _atom_site_type_symbol
 _atom_site_label
 _atom_site_symmetry_multiplicity
 _atom_site_fract_x
 _atom_site_fract_y
 _atom_site_fract_z
 _atom_site_occupancy
  Na  Na0  1  -0.00142136  0.62553548  0.25327879  1
  Na  Na1  1  0.50016491  0.63754121  0.25061291  1
  Na  Na2  1  0.00099859  0.36804983  0.74919790  1
  Na  Na3  1  0.49801940  0.36391447  0.75170737  1
  Na  Na4  1  0.66480538  0.30069569  0.91642597  1
  Na  Na5  1  0.16697705  0.02623507  0.42530104  1
  Na  Na6  1  0.99711580  0.99776664  0.50324897  1
  Na  Na7  1  0.50256071  0.99290352  0.50127845  1
  Na  Na8  1  0.00173172  0.01006617  0.99833109  1
  Na  Na9  1  0.49905516  0.00039451  0.00028174  1
  Na  Na10  1  0.32835818  0.32249643  0.83609220  1
  Na  Na11  1  0.83112062  0.33072016  0.82696514  1
  Na  Na12  1  0.33913628  0.34241974  0.33110347  1
  Na  Na13  1  0.82465214  0.32921361  0.33765787  1
  Na  Na14  1  0.18125156  0.66455099  0.16541097  1
  Na  Na15  1  0.67120214  0.65846500  0.16451071  1
  Na  Na16  1  0.17284316  0.68644662  0.66617391  1
  Na  Na17  1  0.67988549  0.68748312  0.66955832  1
  Ga  Ga18  1  0.99545700  0.98471605  0.35646263  1
  Ga  Ga19  1  0.49999078  0.01627226  0.85369589  1
  Ga  Ga20  1  0.32265699  0.33743073  0.67807264  1
  Ga  Ga21  1  0.82435644  0.30282454  0.69459124  1
  Ga  Ga22  1  0.33368180  0.35797063  0.18896611  1
  Ga  Ga23  1  0.81821802  0.30602650  0.17491220  1
  Ga  Ga24  1  0.82665583  0.31004573  0.98796433  1
  Ga  Ga25  1  0.33043028  0.34935298  0.49312819  1
  Ga  Ga26  1  0.17088312  0.66593610  0.31681678  1
  Ga  Ga27  1  0.66334591  0.64114977  0.31511974  1
  Ga  Ga28  1  0.16615310  0.68961924  0.81369122  1
  Ga  Ga29  1  0.66662648  0.65271297  0.80990747  1
  Si  Si30  1  0.35781146  0.72941215  0.25219820  1
  Si  Si31  1  0.49817569  0.29417369  0.24812425  1
  Si  Si32  1  0.64130837  0.27956992  0.74941219  1
  Si  Si33  1  0.00049834  0.70346808  0.74784875  1
  Si  Si34  1  0.85972968  0.98797237  0.75249258  1
  Si  Si35  1  0.18267990  0.04463961  0.58448448  1
  Si  Si36  1  0.69468375  0.04200232  0.58119448  1
  Si  Si37  1  0.33403851  0.63818121  0.58357848  1
  Si  Si38  1  0.83107698  0.03266724  0.08211680  1
  Si  Si39  1  0.19384659  0.34545391  0.08192831  1
  Si  Si40  1  0.68175164  0.32512424  0.08312401  1
  Si  Si41  1  0.51994285  0.38483961  0.91743342  1
  Si  Si42  1  0.16283705  0.95300710  0.91808475  1
  Si  Si43  1  0.66420169  0.37362059  0.41755584  1
  Si  Si44  1  0.02148552  0.65460173  0.41633349  1
  Ge  Ge45  1  0.50014389  0.02313486  0.35044487  1
  Ge  Ge46  1  0.00079747  0.97640119  0.84974453  1
  Ge  Ge47  1  0.00108509  0.98014694  0.65029095  1
  Ge  Ge48  1  0.50990887  0.99882982  0.64166725  1
  Ge  Ge49  1  0.00273425  0.01583603  0.13883615  1
  Ge  Ge50  1  0.49957530  0.01951455  0.14883253  1
  Ge  Ge51  1  0.32655148  0.31713307  0.97755962  1
  Ge  Ge52  1  0.82769898  0.34053333  0.47918512  1
  Ge  Ge53  1  0.16500570  0.66390657  0.01616548  1
  Ge  Ge54  1  0.66733019  0.65317906  0.02357351  1
  Ge  Ge55  1  0.16468952  0.68092133  0.52702701  1
  Ge  Ge56  1  0.66335474  0.66033857  0.51872537  1
  S  S57  1  0.14211304  0.00431863  0.24887285  1
  S  S58  1  0.64866605  0.00782751  0.25229512  1
  S  S59  1  0.85629229  0.71269893  0.24751863  1
  S  S60  1  0.99806022  0.28213141  0.24998378  1
  S  S61  1  0.14874450  0.28984520  0.75264361  1
  S  S62  1  0.49586160  0.71011524  0.75003514  1
  S  S63  1  0.35352751  0.99826235  0.74816336  1
  S  S64  1  0.48007923  0.33559861  0.58360380  1
  S  S65  1  0.97572998  0.32992494  0.58185690  1
  S  S66  1  0.83239006  0.62282534  0.58241347  1
  S  S67  1  0.47723428  0.62579600  0.08237106  1
  S  S68  1  0.98070939  0.62510897  0.08592920  1
  S  S69  1  0.33168707  0.04228634  0.08282469  1
  S  S70  1  0.31056048  0.66786910  0.91481698  1
  S  S71  1  0.81476146  0.66723897  0.91911790  1
  S  S72  1  0.01872928  0.37405519  0.91679944  1
  S  S73  1  0.66663748  0.94940701  0.91647510  1
  S  S74  1  0.31495654  0.96170194  0.41865324  1
  S  S75  1  0.80948825  0.95243703  0.41460993  1
  S  S76  1  0.16744372  0.37667809  0.41602637  1
  S  S77  1  0.51850854  0.66450841  0.41668821  1
  O  O78  1  0.10306879  0.02928943  0.30609699  1
  O  O79  1  0.60847820  0.03688869  0.30807892  1
  O  O80  1  0.42746977  0.81710882  0.31083689  1
  O  O81  1  0.91331334  0.79230966  0.30305056  1
  O  O82  1  0.48165986  0.17716170  0.30982373  1
  O  O83  1  0.98635735  0.17409346  0.30470906  1
  O  O84  1  0.10885371  0.18002936  0.80837711  1
  O  O85  1  0.60211659  0.17042766  0.81324484  1
  O  O86  1  0.47874213  0.78725172  0.80452724  1
  O  O87  1  0.98362240  0.78650028  0.80987171  1
  O  O88  1  0.40785504  0.02899540  0.80437998  1
  O  O89  1  0.92952861  0.03868799  0.81127557  1
  O  O90  1  0.39418906  0.97430112  0.69326943  1
  O  O91  1  0.90710928  0.96490214  0.68957466  1
  O  O92  1  0.09128714  0.21373936  0.69759743  1
  O  O93  1  0.57056407  0.18160552  0.69177725  1
  O  O94  1  0.02822590  0.83884058  0.68989870  1
  O  O95  1  0.50561435  0.81202219  0.69338554  1
  O  O96  1  0.40572544  0.84445637  0.18962612  1
  O  O97  1  0.90111539  0.82210280  0.19274303  1
  O  O98  1  0.01087585  0.19928928  0.19377289  1
  O  O99  1  0.52418734  0.21366915  0.18988143  1
  O  O100  1  0.08038129  0.96816655  0.19551348  1
  O  O101  1  0.59108516  0.96874600  0.19751919  1
  O  O102  1  0.44157055  0.36250243  0.64004132  1
  O  O103  1  0.94249777  0.36769410  0.63756433  1
  O  O104  1  0.24774750  0.12548506  0.64207305  1
  O  O105  1  0.75512405  0.11977941  0.64016783  1
  O  O106  1  0.31302693  0.51662501  0.64340825  1
  O  O107  1  0.82002267  0.51739848  0.63556786  1
  O  O108  1  0.44414115  0.52102675  0.13961834  1
  O  O109  1  0.94145666  0.52096375  0.14289112  1
  O  O110  1  0.31859046  0.12195383  0.13732863  1
  O  O111  1  0.81489091  0.10960156  0.14498489  1
  O  O112  1  0.25082157  0.38204064  0.14303117  1
  O  O113  1  0.74536024  0.37479779  0.14251781  1
  O  O114  1  0.23809239  0.30604653  0.02296392  1
  O  O115  1  0.72361654  0.29627268  0.02051391  1
  O  O116  1  0.41912669  0.53646364  0.02941027  1
  O  O117  1  0.92535938  0.54607107  0.03194795  1
  O  O118  1  0.34877418  0.15102571  0.02683008  1
  O  O119  1  0.86018357  0.16592641  0.02480819  1
  O  O120  1  0.22412443  0.15285149  0.52040854  1
  O  O121  1  0.73751177  0.16796392  0.52079157  1
  O  O122  1  0.36152189  0.56621155  0.52374947  1
  O  O123  1  0.85037578  0.55118075  0.52485143  1
  O  O124  1  0.42555198  0.31156038  0.52883262  1
  O  O125  1  0.92044238  0.30597624  0.52671299  1
  O  O126  1  0.27182886  0.70268810  0.97130059  1
  O  O127  1  0.77626170  0.69786895  0.97537997  1
  O  O128  1  0.07712493  0.45878585  0.97264439  1
  O  O129  1  0.59234415  0.47938452  0.97342112  1
  O  O130  1  0.14495598  0.82495386  0.97841108  1
  O  O131  1  0.65889528  0.84940125  0.97275845  1
  O  O132  1  0.27463469  0.85234289  0.47366124  1
  O  O133  1  0.77045603  0.84045270  0.46981122  1
  O  O134  1  0.15511996  0.45891440  0.47028353  1
  O  O135  1  0.64513107  0.46625639  0.47685920  1
  O  O136  1  0.09499917  0.70547778  0.47126435  1
  O  O137  1  0.57695128  0.69424252  0.47100365  1
  O  O138  1  0.06289856  0.62916376  0.35212121  1
  O  O139  1  0.56014457  0.64596335  0.35961149  1
  O  O140  1  0.25609411  0.88356842  0.36418676  1
  O  O141  1  0.75577785  0.87226883  0.35935567  1
  O  O142  1  0.18160938  0.48050372  0.35970003  1
  O  O143  1  0.68813969  0.49452282  0.35755699  1
  O  O144  1  0.06196757  0.47735747  0.86102705  1
  O  O145  1  0.55988025  0.49478575  0.85459518  1
  O  O146  1  0.18727745  0.87844559  0.85934902  1
  O  O147  1  0.67985170  0.87046750  0.86160888  1
  O  O148  1  0.25427980  0.63575803  0.86099454  1
  O  O149  1  0.75640347  0.62867236  0.86579362  1
  O  O150  1  0.01410574  0.83857935  0.41172405  1
  O  O151  1  0.50953097  0.82520253  0.41401814  1
  O  O152  1  0.40261539  0.96837234  0.41218843  1
  O  O153  1  0.90152212  0.97319523  0.41016595  1
  O  O154  1  0.08445884  0.19305063  0.41059573  1
  O  O155  1  0.57435368  0.16976978  0.40985857  1
  O  O156  1  0.00903094  0.19508034  0.91490702  1
  O  O157  1  0.50912838  0.18361130  0.91517220  1
  O  O158  1  0.07401959  0.97940818  0.91039005  1
  O  O159  1  0.58371006  0.96505896  0.91463135  1
  O  O160  1  0.40154199  0.82869133  0.90969960  1
  O  O161  1  0.90331120  0.83525886  0.91319018  1
  O  O162  1  0.49066225  0.17691457  0.58602712  1
  O  O163  1  0.98414949  0.16845391  0.58571864  1
  O  O164  1  0.08415552  0.03508933  0.59072591  1
  O  O165  1  0.59382940  0.02079068  0.58752360  1
  O  O166  1  0.42011619  0.84221617  0.59350035  1
  O  O167  1  0.91279128  0.80863260  0.58542857  1
  O  O168  1  0.48378472  0.80264796  0.08791852  1
  O  O169  1  0.99349692  0.80989537  0.09162377  1
  O  O170  1  0.41227393  0.01894090  0.08642248  1
  O  O171  1  0.91733925  -0.00083451  0.09009447  1
  O  O172  1  0.09322581  0.16132212  0.08954294  1
  O  O173  1  0.58390367  0.13543682  0.09080368  1
  O  O174  1  0.34558768  0.16281209  0.74485782  1
  O  O175  1  0.85580264  0.17035082  0.74850666  1
  O  O176  1  0.23808659  0.30446956  0.74748606  1
  O  O177  1  0.73868110  0.30356908  0.74415223  1
  O  O178  1  0.41738899  0.52114195  0.74434066  1
  O  O179  1  0.91358074  0.50954645  0.73889254  1
  O  O180  1  0.34973963  0.53346572  0.24880164  1
  O  O181  1  0.84835310  0.53326078  0.24386066  1
  O  O182  1  0.40852709  0.31013055  0.24039535  1
  O  O183  1  0.91869491  0.30634710  0.24538501  1
  O  O184  1  0.23066701  0.16242146  0.24291878  1
  O  O185  1  0.73835024  0.17369169  0.24709378  1
  O  O186  1  0.31910703  0.50696058  0.92231756  1
  O  O187  1  0.82648361  0.50835864  0.92517704  1
  O  O188  1  0.42221866  0.37112259  0.92949402  1
  O  O189  1  0.93178795  0.36907335  0.92299187  1
  O  O190  1  0.25181994  0.15332714  0.92450358  1
  O  O191  1  0.74691994  0.13904543  0.91942756  1
  O  O192  1  0.32691347  0.14342035  0.42374305  1
  O  O193  1  0.82048530  0.13222618  0.42069414  1
  O  O194  1  0.24670339  0.34969998  0.41938565  1
  O  O195  1  0.75347686  0.35343839  0.42421870  1
  O  O196  1  0.43050070  0.49610755  0.42213102  1
  O  O197  1  0.92312345  0.47639264  0.42755989  1
  O  O198  1  0.17790679  0.51805865  0.07040351  1
  O  O199  1  0.66807545  0.49900909  0.07840064  1
  O  O200  1  0.07168713  0.64287446  0.08097658  1
  O  O201  1  0.56860779  0.65008184  0.07473579  1
  O  O202  1  0.24953889  0.85957656  0.07608209  1
  O  O203  1  0.73939134  0.83844253  0.07242962  1
  O  O204  1  0.16741757  0.84126116  0.57911064  1
  O  O205  1  0.67916508  0.83737592  0.56943241  1
  O  O206  1  0.24078350  0.64440561  0.57170287  1
  O  O207  1  0.74982270  0.63888753  0.57474751  1
  O  O208  1  0.06907826  0.49096131  0.57383206  1
  O  O209  1  0.57149972  0.50280300  0.57890573  1
  O  O210  1  0.14774883  0.83846411  0.25203371  1
  O  O211  1  0.65891973  0.84840802  0.25890989  1
  O  O212  1  0.25887992  0.71083460  0.25894850  1
  O  O213  1  0.76905621  0.70353069  0.25261565  1
  O  O214  1  0.08053677  0.46315188  0.25220288  1
  O  O215  1  0.58457308  0.49988390  0.25388754  1
  O  O216  1  0.15846033  0.46925967  0.75932535  1
  O  O217  1  0.64373518  0.47139287  0.75117998  1
  O  O218  1  0.08730004  0.67366727  0.75366960  1
  O  O219  1  0.57899576  0.70037122  0.75341369  1
  O  O220  1  0.26463297  0.83228897  0.75375852  1
  O  O221  1  0.76104150  0.81472703  0.75974968  1
