# generated using pymatgen
data_Na6CaZr3Si4(SO12)2
_symmetry_space_group_name_H-M   'P 1'
_cell_length_a   9.28265971
_cell_length_b   9.26633855
_cell_length_c   23.10485190
_cell_angle_alpha   90.28718364
_cell_angle_beta   89.91958337
_cell_angle_gamma   120.03426818
_symmetry_Int_Tables_number   1
_chemical_formula_structural   Na6CaZr3Si4(SO12)2
_chemical_formula_sum   'Na18 Ca3 Zr9 Si12 S6 O72'
_cell_volume   1720.51528466
_cell_formula_units_Z   3
loop_
 _symmetry_equiv_pos_site_id
 _symmetry_equiv_pos_as_xyz
  1  'x, y, z'
loop_
 _atom_site_type_symbol
 _atom_site_label
 _atom_site_symmetry_multiplicity
 _atom_site_fract_x
 _atom_site_fract_y
 _atom_site_fract_z
 _atom_site_occupancy
  Na  Na0  1  0.99196412  0.34974480  0.75751766  1
  Na  Na1  1  0.39610168  0.02044857  0.74880861  1
  Na  Na2  1  0.33229386  0.33910983  0.58603692  1
  Na  Na3  1  0.02797397  0.70630033  0.57175413  1
  Na  Na4  1  0.65105121  0.96666570  0.59129152  1
  Na  Na5  1  0.32778330  0.98534172  0.08388590  1
  Na  Na6  1  0.65221917  0.67041954  0.08711757  1
  Na  Na7  1  0.02044809  0.34322554  0.08504245  1
  Na  Na8  1  0.32954435  0.29324747  0.92556301  1
  Na  Na9  1  0.96569975  0.28994076  0.41137971  1
  Na  Na10  1  0.31962612  0.02833801  0.41395225  1
  Na  Na11  1  0.71218117  0.68156171  0.41486269  1
  Na  Na12  1  0.00024514  0.99390895  0.49063390  1
  Na  Na13  1  0.00025342  0.99280303  0.99816679  1
  Na  Na14  1  0.65996699  0.31306019  0.83444421  1
  Na  Na15  1  0.66932335  0.33348776  0.32730257  1
  Na  Na16  1  0.33528628  0.66574348  0.16497879  1
  Na  Na17  1  0.37914860  0.67380226  0.67093046  1
  Ca  Ca18  1  0.00006195  0.99857005  0.35019997  1
  Ca  Ca19  1  0.65428450  0.33333998  0.68719579  1
  Ca  Ca20  1  0.66504441  0.33072891  0.17996638  1
  Zr  Zr21  1  0.00203660  0.01385678  0.85505333  1
  Zr  Zr22  1  0.99657755  0.00027506  0.64963938  1
  Zr  Zr23  1  0.00253570  0.00065829  0.14565497  1
  Zr  Zr24  1  0.67328259  0.32120510  0.98296960  1
  Zr  Zr25  1  0.65384601  0.33712299  0.47944231  1
  Zr  Zr26  1  0.32290816  0.67013291  0.01605618  1
  Zr  Zr27  1  0.34179309  0.67539100  0.51573886  1
  Zr  Zr28  1  0.33241271  0.66761278  0.31789819  1
  Zr  Zr29  1  0.33842012  0.67257918  0.81523712  1
  Si  Si30  1  0.29263557  0.30003297  0.75138887  1
  Si  Si31  1  0.70376102  0.99440970  0.75054282  1
  Si  Si32  1  0.36606330  0.03112221  0.58576137  1
  Si  Si33  1  0.66706883  0.63593554  0.58228466  1
  Si  Si34  1  0.95889638  0.62394463  0.08364389  1
  Si  Si35  1  0.66171712  0.02953842  0.08461629  1
  Si  Si36  1  0.37327328  0.33826222  0.08074997  1
  Si  Si37  1  0.03277025  0.37714066  0.91410002  1
  Si  Si38  1  0.33595981  0.96900352  0.91505728  1
  Si  Si39  1  0.62612428  0.96724768  0.41687205  1
  Si  Si40  1  0.33513970  0.37628881  0.41841431  1
  Si  Si41  1  0.03432301  0.65667408  0.41872424  1
  S  S42  1  0.29907370  0.99207597  0.25119939  1
  S  S43  1  0.69346897  0.70175432  0.25100106  1
  S  S44  1  0.00788468  0.30592881  0.25147839  1
  S  S45  1  0.00884711  0.71428606  0.75115781  1
  S  S46  1  0.96368883  0.33251862  0.58397653  1
  S  S47  1  0.62644863  0.66422006  0.91677389  1
  O  O48  1  0.21689647  -0.00362450  0.30534169  1
  O  O49  1  0.77965337  0.78397460  0.30524185  1
  O  O50  1  0.00315922  0.21946245  0.30542398  1
  O  O51  1  0.18243949  0.18397310  0.80679274  1
  O  O52  1  0.99346640  0.79892008  0.80204384  1
  O  O53  1  0.81742199  0.99079322  0.80395846  1
  O  O54  1  0.79080252  0.97816054  0.68903336  1
  O  O55  1  0.17615464  0.20129836  0.69290175  1
  O  O56  1  0.01917856  0.80937172  0.69692593  1
  O  O57  1  0.79059120  0.80591080  0.19978954  1
  O  O58  1  0.01563636  0.20913631  0.19997318  1
  O  O59  1  0.19532207  0.98570529  0.19984616  1
  O  O60  1  0.89287897  0.35637331  0.63692745  1
  O  O61  1  0.48120526  0.09386735  0.64252077  1
  O  O62  1  0.62576788  0.51258132  0.63530138  1
  O  O63  1  0.90330992  0.50061380  0.13730625  1
  O  O64  1  0.59210160  0.08838929  0.13702217  1
  O  O65  1  0.49877754  0.39828447  0.13414937  1
  O  O66  1  0.44932986  0.29264281  0.02261969  1
  O  O67  1  0.83094775  0.54013746  0.02805021  1
  O  O68  1  0.71046773  0.16071132  0.02917191  1
  O  O69  1  0.46296122  0.15694734  0.52950284  1
  O  O70  1  0.69896251  0.55153273  0.52296423  1
  O  O71  1  0.86051822  0.31372678  0.53202349  1
  O  O72  1  0.55120075  0.68555555  0.96987431  1
  O  O73  1  0.15582887  0.46609945  0.96939698  1
  O  O74  1  0.32591725  0.86187003  0.97230415  1
  O  O75  1  0.53527030  0.85632955  0.47518433  1
  O  O76  1  0.31754035  0.46304020  0.47814656  1
  O  O77  1  0.14142719  0.67377814  0.47753382  1
  O  O78  1  0.13439295  0.63498906  0.36284831  1
  O  O79  1  0.50009071  0.86906078  0.36194865  1
  O  O80  1  0.36286551  0.50125802  0.36341981  1
  O  O81  1  0.13056687  0.48494487  0.85563893  1
  O  O82  1  0.35295144  0.87223821  0.85712265  1
  O  O83  1  0.52068787  0.65141512  0.86560160  1
  O  O84  1  0.01379069  0.81958860  0.41541652  1
  O  O85  1  0.80795864  0.98564115  0.41436101  1
  O  O86  1  0.17609403  0.19122304  0.41477623  1
  O  O87  1  0.01717178  0.18962634  0.91221776  1
  O  O88  1  0.16609378  0.98501415  0.91194402  1
  O  O89  1  0.79670267  0.80939304  0.91112222  1
  O  O90  1  0.97629452  0.17625089  0.58594787  1
  O  O91  1  0.18290554  0.02301959  0.58945843  1
  O  O92  1  0.83855685  0.82211482  0.58691344  1
  O  O93  1  0.97341192  0.81062363  0.09384443  1
  O  O94  1  0.83776650  0.02490382  0.09542267  1
  O  O95  1  0.18811973  0.16330543  0.09302020  1
  O  O96  1  0.70330649  0.16898787  0.75324863  1
  O  O97  1  0.46654706  0.30320050  0.75434032  1
  O  O98  1  0.87147876  0.54114615  0.74771100  1
  O  O99  1  0.67377749  0.53447780  0.24867555  1
  O  O100  1  0.86046433  0.32517699  0.24918824  1
  O  O101  1  0.46599756  0.13950697  0.24926498  1
  O  O102  1  0.63018484  0.50656798  0.91812477  1
  O  O103  1  0.85005346  0.36011458  0.91954857  1
  O  O104  1  0.49717973  0.15961260  0.91840426  1
  O  O105  1  0.63535080  0.14814753  0.42216419  1
  O  O106  1  0.50936569  0.36773133  0.42004030  1
  O  O107  1  0.85468867  0.48173006  0.42205707  1
  O  O108  1  0.32796817  0.48665320  0.06950526  1
  O  O109  1  0.15482013  0.67400788  0.07107700  1
  O  O110  1  0.52027743  0.83585271  0.06961239  1
  O  O111  1  0.32556071  0.83728091  0.57597010  1
  O  O112  1  0.50423357  0.66458999  0.57775237  1
  O  O113  1  0.13661763  0.47676035  0.57824307  1
  O  O114  1  0.30684374  0.83359477  0.24910170  1
  O  O115  1  0.52697958  0.69316854  0.24928620  1
  O  O116  1  0.16566762  0.47307575  0.24985983  1
  O  O117  1  0.29560511  0.48023004  0.75324968  1
  O  O118  1  0.17063158  0.71270869  0.75198651  1
  O  O119  1  0.51201793  0.83316243  0.75349283  1
