# generated using pymatgen
data_MoPb2O5
_symmetry_space_group_name_H-M   'P 1'
_cell_length_a   7.68748201
_cell_length_b   7.68748201
_cell_length_c   7.35280557
_cell_angle_alpha   68.33076660
_cell_angle_beta   68.33076660
_cell_angle_gamma   44.46351493
_symmetry_Int_Tables_number   1
_chemical_formula_structural   MoPb2O5
_chemical_formula_sum   'Mo2 Pb4 O10'
_cell_volume   279.10514937
_cell_formula_units_Z   2
loop_
 _symmetry_equiv_pos_site_id
 _symmetry_equiv_pos_as_xyz
  1  'x, y, z'
loop_
 _atom_site_type_symbol
 _atom_site_label
 _atom_site_symmetry_multiplicity
 _atom_site_fract_x
 _atom_site_fract_y
 _atom_site_fract_z
 _atom_site_occupancy
  Mo  Mo0  1  0.16932462  0.16932462  0.34044425  1
  Mo  Mo1  1  0.83067538  0.83067538  0.65955575  1
  Pb  Pb2  1  0.48762977  0.48762977  0.25540553  1
  Pb  Pb3  1  0.51237023  0.51237023  0.74459447  1
  Pb  Pb4  1  0.86352591  0.86352591  0.11272851  1
  Pb  Pb5  1  0.13647409  0.13647409  0.88727149  1
  O  O6  1  0.25300557  0.74699443  0.00000000  1
  O  O7  1  0.74699443  0.25300557  0.00000000  1
  O  O8  1  0.29975523  0.29975523  0.30540638  1
  O  O9  1  0.70024477  0.70024477  0.69459362  1
  O  O10  1  0.09633215  0.61203457  0.77892558  1
  O  O11  1  0.38796543  0.90366785  0.22107442  1
  O  O12  1  0.08972533  0.08972533  0.59978488  1
  O  O13  1  0.91027467  0.91027467  0.40021512  1
  O  O14  1  0.61203457  0.09633215  0.77892558  1
  O  O15  1  0.90366785  0.38796543  0.22107442  1
