# generated using pymatgen
data_CsBiO2
_symmetry_space_group_name_H-M   'P 1'
_cell_length_a   5.99030385
_cell_length_b   6.24177083
_cell_length_c   6.24177050
_cell_angle_alpha   96.54118499
_cell_angle_beta   110.97029294
_cell_angle_gamma   110.97028024
_symmetry_Int_Tables_number   1
_chemical_formula_structural   CsBiO2
_chemical_formula_sum   'Cs2 Bi2 O4'
_cell_volume   195.49426588
_cell_formula_units_Z   2
loop_
 _symmetry_equiv_pos_site_id
 _symmetry_equiv_pos_as_xyz
  1  'x, y, z'
loop_
 _atom_site_type_symbol
 _atom_site_label
 _atom_site_symmetry_multiplicity
 _atom_site_fract_x
 _atom_site_fract_y
 _atom_site_fract_z
 _atom_site_occupancy
  Cs  Cs0  1  0.75000000  0.35851637  0.64148363  1
  Cs  Cs1  1  0.25000000  0.64148363  0.35851637  1
  Bi  Bi2  1  0.25000000  0.08794933  0.91205067  1
  Bi  Bi3  1  0.75000000  0.91205067  0.08794933  1
  O  O4  1  0.20544922  0.12212342  0.23019491  1
  O  O5  1  0.29455078  0.76980509  0.87787658  1
  O  O6  1  0.70544922  0.23019491  0.12212342  1
  O  O7  1  0.79455078  0.87787658  0.76980509  1
