# generated using pymatgen
data_MgV2Te2O7F2
_symmetry_space_group_name_H-M   'P 1'
_cell_length_a   5.16721291
_cell_length_b   5.22478463
_cell_length_c   8.25890733
_cell_angle_alpha   113.86988586
_cell_angle_beta   100.69980902
_cell_angle_gamma   80.03862643
_symmetry_Int_Tables_number   1
_chemical_formula_structural   MgV2Te2O7F2
_chemical_formula_sum   'Mg1 V2 Te2 O7 F2'
_cell_volume   199.16242152
_cell_formula_units_Z   1
loop_
 _symmetry_equiv_pos_site_id
 _symmetry_equiv_pos_as_xyz
  1  'x, y, z'
loop_
 _atom_site_type_symbol
 _atom_site_label
 _atom_site_symmetry_multiplicity
 _atom_site_fract_x
 _atom_site_fract_y
 _atom_site_fract_z
 _atom_site_occupancy
  Mg  Mg0  1  0.50000000  -0.00000000  -0.00000000  1
  V  V1  1  0.73219431  0.38004475  0.37213456  1
  V  V2  1  0.26780569  0.61995525  0.62786544  1
  Te  Te3  1  0.83574699  0.27056770  0.77286364  1
  Te  Te4  1  0.16425301  0.72943230  0.22713636  1
  O  O5  1  0.17865030  0.98943219  0.79875113  1
  O  O6  1  0.01367408  0.61780781  0.38344268  1
  O  O7  1  0.82134970  0.01056781  0.20124887  1
  O  O8  1  0.55179292  0.60307407  0.82692814  1
  O  O9  1  0.44820708  0.39692593  0.17307186  1
  O  O10  1  0.98632592  0.38219219  0.61655732  1
  O  O11  1  -0.00000000  0.50000000  -0.00000000  1
  F  F12  1  0.47276100  0.24985205  0.47086782  1
  F  F13  1  0.52723900  0.75014795  0.52913218  1
