# generated using pymatgen
data_Na3HfInSi(PO6)2
_symmetry_space_group_name_H-M   'P 1'
_cell_length_a   9.13321773
_cell_length_b   9.13321740
_cell_length_c   22.52618504
_cell_angle_alpha   89.90722493
_cell_angle_beta   90.09277507
_cell_angle_gamma   119.85692600
_symmetry_Int_Tables_number   1
_chemical_formula_structural   Na3HfInSi(PO6)2
_chemical_formula_sum   'Na18 Hf6 In6 Si6 P12 O72'
_cell_volume   1629.63163802
_cell_formula_units_Z   6
loop_
 _symmetry_equiv_pos_site_id
 _symmetry_equiv_pos_as_xyz
  1  'x, y, z'
loop_
 _atom_site_type_symbol
 _atom_site_label
 _atom_site_symmetry_multiplicity
 _atom_site_fract_x
 _atom_site_fract_y
 _atom_site_fract_z
 _atom_site_occupancy
  Na  Na0  1  0.00350798  0.99235264  0.49529517  1
  Na  Na1  1  0.00764736  0.99649202  0.99529517  1
  Na  Na2  1  0.66566986  0.32153633  0.82925945  1
  Na  Na3  1  0.67846367  0.33433014  0.32925945  1
  Na  Na4  1  0.34968026  0.67522533  0.16191736  1
  Na  Na5  1  0.32477467  0.65031974  0.66191736  1
  Na  Na6  1  0.36147813  0.35939182  0.24609407  1
  Na  Na7  1  0.99097751  0.62791576  0.24564722  1
  Na  Na8  1  0.64060818  0.63852187  0.74609407  1
  Na  Na9  1  0.37208424  0.00902249  0.74564722  1
  Na  Na10  1  0.04254476  0.70003586  0.57754702  1
  Na  Na11  1  0.64958088  0.96411044  0.58484947  1
  Na  Na12  1  0.29996414  0.95745524  0.07754702  1
  Na  Na13  1  0.03588956  0.35041912  0.08484947  1
  Na  Na14  1  0.97779925  0.67842858  0.91929861  1
  Na  Na15  1  0.69693406  0.02529214  0.90918716  1
  Na  Na16  1  0.97470786  0.30306594  0.40918716  1
  Na  Na17  1  0.32157142  0.02220075  0.41929861  1
  Hf  Hf18  1  0.00484619  0.00811352  0.64752644  1
  Hf  Hf19  1  0.99188648  0.99515381  0.14752644  1
  Hf  Hf20  1  0.66250849  0.33721293  0.98094501  1
  Hf  Hf21  1  0.66278707  0.33749151  0.48094501  1
  Hf  Hf22  1  0.33299258  0.66832016  0.31428969  1
  Hf  Hf23  1  0.33167984  0.66700742  0.81428969  1
  In  In24  1  0.98879975  0.99209759  0.34901698  1
  In  In25  1  0.00790241  0.01120025  0.84901698  1
  In  In26  1  0.66889948  0.32640173  0.68275965  1
  In  In27  1  0.67359827  0.33110052  0.18275965  1
  In  In28  1  0.33311783  0.66594739  0.01550737  1
  In  In29  1  0.33405261  0.66688217  0.51550737  1
  Si  Si30  1  0.00091525  0.29866475  0.25208869  1
  Si  Si31  1  0.70133525  0.99908475  0.75208869  1
  Si  Si32  1  0.36549722  0.03236721  0.58339130  1
  Si  Si33  1  0.96763279  0.63450278  0.08339130  1
  Si  Si34  1  0.33307377  0.96773798  0.91714664  1
  Si  Si35  1  0.03226202  0.66692623  0.41714664  1
  P  P36  1  0.29532913  0.00064509  0.25055444  1
  P  P37  1  0.69998003  0.70164826  0.24957852  1
  P  P38  1  0.29835174  0.30001997  0.74957852  1
  P  P39  1  0.99935491  0.70467087  0.75055444  1
  P  P40  1  0.96168677  0.33284718  0.58166549  1
  P  P41  1  0.66886355  0.63023491  0.58665760  1
  P  P42  1  0.66715282  0.03831323  0.08166549  1
  P  P43  1  0.36976509  0.33113645  0.08665760  1
  P  P44  1  0.62647351  0.66357401  0.91532763  1
  P  P45  1  0.03470178  0.36996558  0.91989794  1
  P  P46  1  0.63003442  0.96529822  0.41989794  1
  P  P47  1  0.33642599  0.37352649  0.41532763  1
  O  O48  1  0.21968876  0.02790204  0.30769905  1
  O  O49  1  0.81256765  0.77071439  0.30480017  1
  O  O50  1  0.98537181  0.19911800  0.31353625  1
  O  O51  1  0.22928561  0.18743235  0.80480017  1
  O  O52  1  0.97209796  0.78031124  0.80769905  1
  O  O53  1  0.80088200  0.01462819  0.81353625  1
  O  O54  1  0.80135008  0.97747034  0.69439979  1
  O  O55  1  0.18622054  0.20528397  0.69480543  1
  O  O56  1  0.02878513  0.82550697  0.69674972  1
  O  O57  1  0.79471603  0.81377946  0.19480543  1
  O  O58  1  0.02252966  0.19864992  0.19439979  1
  O  O59  1  0.17449303  0.97121487  0.19674972  1
  O  O60  1  0.88704041  0.37349370  0.63611917  1
  O  O61  1  0.47661209  0.11106014  0.64354198  1
  O  O62  1  0.64989616  0.53734167  0.64543976  1
  O  O63  1  0.88893986  0.52338791  0.14354198  1
  O  O64  1  0.62650630  0.11295959  0.13611917  1
  O  O65  1  0.46265833  0.35010384  0.14543976  1
  O  O66  1  0.46820148  0.30726494  0.03425198  1
  O  O67  1  0.85047379  0.53456557  0.02500530  1
  O  O68  1  0.69148616  0.15168290  0.02608508  1
  O  O69  1  0.46543443  0.14952621  0.52500530  1
  O  O70  1  0.69273506  0.53179852  0.53425198  1
  O  O71  1  0.84831710  0.30851384  0.52608508  1
  O  O72  1  0.54306134  0.69101044  0.96985630  1
  O  O73  1  0.12792205  0.43873982  0.97919203  1
  O  O74  1  0.30003631  0.85729380  0.97777895  1
  O  O75  1  0.56126018  0.87207795  0.47919203  1
  O  O76  1  0.30898956  0.45693866  0.46985630  1
  O  O77  1  0.14270620  0.69996369  0.47777895  1
  O  O78  1  0.13444486  0.64213738  0.36023367  1
  O  O79  1  0.51175604  0.86353909  0.36766622  1
  O  O80  1  0.35689455  0.48021763  0.35858970  1
  O  O81  1  0.13646091  0.48824396  0.86766622  1
  O  O82  1  0.35786262  0.86555514  0.86023367  1
  O  O83  1  0.51978237  0.64310545  0.85858970  1
  O  O84  1  0.02076896  0.83865479  0.41140329  1
  O  O85  1  0.81371688  0.00444595  0.41424936  1
  O  O86  1  0.18167066  0.19417851  0.41227730  1
  O  O87  1  0.99555405  0.18628312  0.91424936  1
  O  O88  1  0.16134521  0.97923104  0.91140329  1
  O  O89  1  0.80582149  0.81832934  0.91227730  1
  O  O90  1  0.96010287  0.16180069  0.58848156  1
  O  O91  1  0.17427108  0.00873167  0.58671015  1
  O  O92  1  0.83527652  0.80707383  0.58812924  1
  O  O93  1  0.99126833  0.82572892  0.08671015  1
  O  O94  1  0.83819931  0.03989713  0.08848156  1
  O  O95  1  0.19292617  0.16472348  0.08812924  1
  O  O96  1  0.66436323  0.15620414  0.74945075  1
  O  O97  1  0.48113533  0.33412929  0.74334660  1
  O  O98  1  0.83998559  0.53128350  0.74315391  1
  O  O99  1  0.66587071  0.51886467  0.24334660  1
  O  O100  1  0.84379586  0.33563677  0.24945075  1
  O  O101  1  0.46871650  0.16001441  0.24315391  1
  O  O102  1  0.64477829  0.50303328  0.92070226  1
  O  O103  1  0.86110078  0.36814640  0.92047126  1
  O  O104  1  0.51187717  0.14913583  0.92088327  1
  O  O105  1  0.63185360  0.13889922  0.42047126  1
  O  O106  1  0.49696672  0.35522171  0.42070226  1
  O  O107  1  0.85086417  0.48812283  0.42088327  1
  O  O108  1  0.33945939  0.48068577  0.07892549  1
  O  O109  1  0.15772787  0.65517158  0.08159417  1
  O  O110  1  0.51863653  0.85876955  0.07592178  1
  O  O111  1  0.34482842  0.84227213  0.58159417  1
  O  O112  1  0.51931423  0.66054061  0.57892549  1
  O  O113  1  0.14123045  0.48136347  0.57592178  1
  O  O114  1  0.30877065  0.83730157  0.25488311  1
  O  O115  1  0.52724142  0.69392796  0.25465076  1
  O  O116  1  0.18020082  0.48636695  0.25356627  1
  O  O117  1  0.30607204  0.47275858  0.75465076  1
  O  O118  1  0.16269843  0.69122935  0.75488311  1
  O  O119  1  0.51363305  0.81979918  0.75356627  1
