# generated using pymatgen
data_BaH8O5
_symmetry_space_group_name_H-M   'P 1'
_cell_length_a   5.92136112
_cell_length_b   7.53847475
_cell_length_c   11.28055002
_cell_angle_alpha   90.00000000
_cell_angle_beta   90.00000000
_cell_angle_gamma   90.00000000
_symmetry_Int_Tables_number   1
_chemical_formula_structural   BaH8O5
_chemical_formula_sum   'Ba4 H32 O20'
_cell_volume   503.54154475
_cell_formula_units_Z   4
loop_
 _symmetry_equiv_pos_site_id
 _symmetry_equiv_pos_as_xyz
  1  'x, y, z'
loop_
 _atom_site_type_symbol
 _atom_site_label
 _atom_site_symmetry_multiplicity
 _atom_site_fract_x
 _atom_site_fract_y
 _atom_site_fract_z
 _atom_site_occupancy
  Ba  Ba0  1  0.07666606  0.46338612  0.75000000  1
  Ba  Ba1  1  0.57666606  0.03661388  0.25000000  1
  Ba  Ba2  1  0.42333394  0.96338612  0.75000000  1
  Ba  Ba3  1  0.92333394  0.53661388  0.25000000  1
  H  H4  1  0.26417036  0.46084267  0.02367416  1
  H  H5  1  0.76417036  0.03915733  0.97632584  1
  H  H6  1  0.23582964  0.96084267  0.47632584  1
  H  H7  1  0.73582964  0.53915733  0.52367416  1
  H  H8  1  0.73582964  0.53915733  0.97632584  1
  H  H9  1  0.23582964  0.96084267  0.02367416  1
  H  H10  1  0.76417036  0.03915733  0.52367416  1
  H  H11  1  0.26417036  0.46084267  0.47632584  1
  H  H12  1  0.48431751  0.67010185  0.08256901  1
  H  H13  1  0.98431751  0.82989815  0.91743099  1
  H  H14  1  0.01568249  0.17010185  0.41743099  1
  H  H15  1  0.51568249  0.32989815  0.58256901  1
  H  H16  1  0.51568249  0.32989815  0.91743099  1
  H  H17  1  0.01568249  0.17010185  0.08256901  1
  H  H18  1  0.98431751  0.82989815  0.58256901  1
  H  H19  1  0.48431751  0.67010185  0.41743099  1
  H  H20  1  0.66979991  0.80515831  0.02372239  1
  H  H21  1  0.16979991  0.69484169  0.97627761  1
  H  H22  1  0.83020009  0.30515831  0.47627761  1
  H  H23  1  0.33020009  0.19484169  0.52372239  1
  H  H24  1  0.33020009  0.19484169  0.97627761  1
  H  H25  1  0.83020009  0.30515831  0.02372239  1
  H  H26  1  0.16979991  0.69484169  0.52372239  1
  H  H27  1  0.66979991  0.80515831  0.47627761  1
  H  H28  1  0.39812252  0.45682583  0.31986346  1
  H  H29  1  0.89812252  0.04317417  0.68013654  1
  H  H30  1  0.10187748  0.95682583  0.18013654  1
  H  H31  1  0.60187748  0.54317417  0.81986346  1
  H  H32  1  0.60187748  0.54317417  0.68013654  1
  H  H33  1  0.10187748  0.95682583  0.31986346  1
  H  H34  1  0.89812252  0.04317417  0.81986346  1
  H  H35  1  0.39812252  0.45682583  0.18013654  1
  O  O36  1  0.24986401  0.55979830  0.07839819  1
  O  O37  1  0.74986401  0.94020170  0.92160181  1
  O  O38  1  0.25013599  0.05979830  0.42160181  1
  O  O39  1  0.75013599  0.44020170  0.57839819  1
  O  O40  1  0.75013599  0.44020170  0.92160181  1
  O  O41  1  0.25013599  0.05979830  0.07839819  1
  O  O42  1  0.74986401  0.94020170  0.57839819  1
  O  O43  1  0.24986401  0.55979830  0.42160181  1
  O  O44  1  0.63544563  0.72911002  0.09531808  1
  O  O45  1  0.13544563  0.77088998  0.90468192  1
  O  O46  1  0.86455437  0.22911002  0.40468192  1
  O  O47  1  0.36455437  0.27088998  0.59531808  1
  O  O48  1  0.36455437  0.27088998  0.90468192  1
  O  O49  1  0.86455437  0.22911002  0.09531808  1
  O  O50  1  0.13544563  0.77088998  0.59531808  1
  O  O51  1  0.63544563  0.72911002  0.40468192  1
  O  O52  1  0.52543957  0.60010654  0.75000000  1
  O  O53  1  0.02543957  0.89989346  0.25000000  1
  O  O54  1  0.97456043  0.10010654  0.75000000  1
  O  O55  1  0.47456043  0.39989346  0.25000000  1
