# generated using pymatgen
data_NaTa3Zn(PO4)6
_symmetry_space_group_name_H-M   'P 1'
_cell_length_a   8.74548674
_cell_length_b   8.74548646
_cell_length_c   22.69696742
_cell_angle_alpha   90.00000000
_cell_angle_beta   90.00000000
_cell_angle_gamma   120.00000107
_symmetry_Int_Tables_number   1
_chemical_formula_structural   NaTa3Zn(PO4)6
_chemical_formula_sum   'Na3 Ta9 Zn3 P18 O72'
_cell_volume   1503.37186582
_cell_formula_units_Z   3
loop_
 _symmetry_equiv_pos_site_id
 _symmetry_equiv_pos_as_xyz
  1  'x, y, z'
loop_
 _atom_site_type_symbol
 _atom_site_label
 _atom_site_symmetry_multiplicity
 _atom_site_fract_x
 _atom_site_fract_y
 _atom_site_fract_z
 _atom_site_occupancy
  Na  Na0  1  -0.00000000  0.00000000  0.98595979  1
  Na  Na1  1  0.66666700  0.33333300  0.84305642  1
  Na  Na2  1  0.66666700  0.33333300  0.34250298  1
  Ta  Ta3  1  -0.00000000  0.00000000  0.36037078  1
  Ta  Ta4  1  -0.00000000  0.00000000  0.64693787  1
  Ta  Ta5  1  -0.00000000  -0.00000000  0.14363233  1
  Ta  Ta6  1  0.66666700  0.33333300  0.68755383  1
  Ta  Ta7  1  0.66666700  0.33333300  0.18466131  1
  Ta  Ta8  1  0.33333300  0.66666700  0.01861833  1
  Ta  Ta9  1  0.33333300  0.66666700  0.52662170  1
  Ta  Ta10  1  0.33333300  0.66666700  0.31121488  1
  Ta  Ta11  1  0.33333300  0.66666700  0.81146742  1
  Zn  Zn12  1  -0.00000000  -0.00000000  0.85418286  1
  Zn  Zn13  1  0.66666700  0.33333300  0.97591013  1
  Zn  Zn14  1  0.66666700  0.33333300  0.48245208  1
  P  P15  1  0.28625371  0.00251473  0.25105999  1
  P  P16  1  0.71626102  0.71374629  0.25105999  1
  P  P17  1  0.99748527  0.28373898  0.25105999  1
  P  P18  1  0.28639703  0.28533744  0.75215785  1
  P  P19  1  0.99894041  0.71360297  0.75215785  1
  P  P20  1  0.71466256  0.00105959  0.75215785  1
  P  P21  1  0.94894977  0.32821549  0.58133325  1
  P  P22  1  0.37926673  0.05105024  0.58133325  1
  P  P23  1  0.67178451  0.62073327  0.58133325  1
  P  P24  1  0.95442023  0.61939957  0.08083661  1
  P  P25  1  0.66498034  0.04557977  0.08083661  1
  P  P26  1  0.38060043  0.33501966  0.08083661  1
  P  P27  1  0.62609700  0.66682839  0.91576008  1
  P  P28  1  0.04073039  0.37390300  0.91576008  1
  P  P29  1  0.33317161  0.95926961  0.91576008  1
  P  P30  1  0.61606228  0.95506745  0.41714428  1
  P  P31  1  0.33900418  0.38393772  0.41714428  1
  P  P32  1  0.04493255  0.66099582  0.41714428  1
  O  O33  1  0.19917193  0.03222288  0.30539970  1
  O  O34  1  0.83305095  0.80082807  0.30539970  1
  O  O35  1  0.96777712  0.16694905  0.30539970  1
  O  O36  1  0.21806179  0.17321810  0.80564141  1
  O  O37  1  0.95515630  0.78193821  0.80564141  1
  O  O38  1  0.82678190  0.04484370  0.80564141  1
  O  O39  1  0.80117712  0.97386380  0.69570211  1
  O  O40  1  0.17268668  0.19882288  0.69570211  1
  O  O41  1  0.02613620  0.82731332  0.69570211  1
  O  O42  1  0.80181327  0.82809613  0.19628793  1
  O  O43  1  0.02628286  0.19818673  0.19628793  1
  O  O44  1  0.17190387  0.97371714  0.19628793  1
  O  O45  1  0.86660329  0.36389979  0.63652926  1
  O  O46  1  0.49729749  0.13339671  0.63652926  1
  O  O47  1  0.63610021  0.50270251  0.63652926  1
  O  O48  1  0.86408434  0.50545982  0.13876720  1
  O  O49  1  0.64137648  0.13591566  0.13876720  1
  O  O50  1  0.49454018  0.35862352  0.13876720  1
  O  O51  1  0.45089913  0.28831701  0.02893772  1
  O  O52  1  0.83741888  0.54910087  0.02893772  1
  O  O53  1  0.71168299  0.16258112  0.02893772  1
  O  O54  1  0.44883638  0.15665704  0.52635470  1
  O  O55  1  0.70782166  0.55116362  0.52635470  1
  O  O56  1  0.84334296  0.29217834  0.52635470  1
  O  O57  1  0.52360807  0.68359545  0.97214548  1
  O  O58  1  0.15998638  0.47639193  0.97214548  1
  O  O59  1  0.31640455  0.84001362  0.97214548  1
  O  O60  1  0.53102672  0.83580360  0.47101288  1
  O  O61  1  0.30477588  0.46897328  0.47101288  1
  O  O62  1  0.16419640  0.69522412  0.47101288  1
  O  O63  1  0.14358982  0.64725280  0.36102699  1
  O  O64  1  0.50366198  0.85641018  0.36102699  1
  O  O65  1  0.35274720  0.49633802  0.36102699  1
  O  O66  1  0.14433149  0.49384284  0.86127928  1
  O  O67  1  0.34951036  0.85566851  0.86127928  1
  O  O68  1  0.50615716  0.65048964  0.86127928  1
  O  O69  1  0.03663995  0.83508530  0.40571297  1
  O  O70  1  0.79844535  0.96336005  0.40571297  1
  O  O71  1  0.16491470  0.20155465  0.40571297  1
  O  O72  1  0.03887485  0.20104837  0.91463341  1
  O  O73  1  0.16217352  0.96112515  0.91463341  1
  O  O74  1  0.79895163  0.83782648  0.91463341  1
  O  O75  1  0.98159119  0.17407997  0.59641943  1
  O  O76  1  0.19248878  0.01840881  0.59641943  1
  O  O77  1  0.82592003  0.80751122  0.59641943  1
  O  O78  1  0.98087983  0.80795771  0.09665754  1
  O  O79  1  0.82707788  0.01912017  0.09665754  1
  O  O80  1  0.19204229  0.17292212  0.09665754  1
  O  O81  1  0.68536794  0.16134297  0.73741258  1
  O  O82  1  0.47597603  0.31463206  0.73741258  1
  O  O83  1  0.83865703  0.52402397  0.73741258  1
  O  O84  1  0.69414412  0.52757737  0.24248884  1
  O  O85  1  0.83343425  0.30585588  0.24248884  1
  O  O86  1  0.47242263  0.16656575  0.24248884  1
  O  O87  1  0.62753395  0.49565893  0.91925821  1
  O  O88  1  0.86812598  0.37246605  0.91925821  1
  O  O89  1  0.50434107  0.13187402  0.91925821  1
  O  O90  1  0.63875848  0.13620584  0.41855949  1
  O  O91  1  0.49744836  0.36124152  0.41855949  1
  O  O92  1  0.86379416  0.50255164  0.41855949  1
  O  O93  1  0.35790023  0.49733086  0.07702494  1
  O  O94  1  0.13942964  0.64209977  0.07702494  1
  O  O95  1  0.50266914  0.86057036  0.07702494  1
  O  O96  1  0.35856694  0.86184110  0.57349009  1
  O  O97  1  0.50327316  0.64143306  0.57349009  1
  O  O98  1  0.13815890  0.49672684  0.57349009  1
  O  O99  1  0.30676743  0.83890897  0.26027258  1
  O  O100  1  0.53214054  0.69323257  0.26027258  1
  O  O101  1  0.16109103  0.46785946  0.26027258  1
  O  O102  1  0.30940644  0.47210065  0.75786763  1
  O  O103  1  0.16269320  0.69059356  0.75786763  1
  O  O104  1  0.52789935  0.83730680  0.75786763  1
