# generated using pymatgen
data_Na3LaTiSi2SO12
_symmetry_space_group_name_H-M   'P 1'
_cell_length_a   9.54573868
_cell_length_b   9.54573831
_cell_length_c   22.46408670
_cell_angle_alpha   87.13774346
_cell_angle_beta   92.86225655
_cell_angle_gamma   119.43613721
_symmetry_Int_Tables_number   1
_chemical_formula_structural   Na3LaTiSi2SO12
_chemical_formula_sum   'Na18 La6 Ti6 Si12 S6 O72'
_cell_volume   1779.71650602
_cell_formula_units_Z   6
loop_
 _symmetry_equiv_pos_site_id
 _symmetry_equiv_pos_as_xyz
  1  'x, y, z'
loop_
 _atom_site_type_symbol
 _atom_site_label
 _atom_site_symmetry_multiplicity
 _atom_site_fract_x
 _atom_site_fract_y
 _atom_site_fract_z
 _atom_site_occupancy
  Na  Na0  1  0.63637641  0.99549281  0.24210049  1
  Na  Na1  1  0.99565502  0.63350573  0.24957702  1
  Na  Na2  1  0.00450719  0.36362359  0.74210049  1
  Na  Na3  1  0.36649427  0.00434498  0.74957702  1
  Na  Na4  1  0.30304341  0.32882581  0.57543349  1
  Na  Na5  1  0.66232202  0.96683873  0.58291002  1
  Na  Na6  1  0.67117419  0.69695659  0.07543349  1
  Na  Na7  1  0.03316127  0.33767798  0.08291002  1
  Na  Na8  1  0.96970941  0.66215981  0.90876749  1
  Na  Na9  1  0.32898802  0.30017273  0.91624402  1
  Na  Na10  1  0.33784019  0.03029059  0.40876749  1
  Na  Na11  1  0.69982727  0.67101198  0.41624402  1
  Na  Na12  1  0.99060860  0.02328536  0.50106337  1
  Na  Na13  1  0.97671464  0.00939140  0.00106337  1
  Na  Na14  1  0.65727560  0.35661836  0.83439637  1
  Na  Na15  1  0.64338164  0.34272440  0.33439637  1
  Na  Na16  1  0.32394160  0.68995236  0.16773037  1
  Na  Na17  1  0.31004764  0.67605840  0.66773037  1
  La  La18  1  0.01144965  0.01939653  0.34795818  1
  La  La19  1  0.98060347  0.98855035  0.84795818  1
  La  La20  1  0.67811665  0.35272953  0.68129118  1
  La  La21  1  0.64727047  0.32188335  0.18129118  1
  La  La22  1  0.34478265  0.68606353  0.01462518  1
  La  La23  1  0.31393647  0.65521735  0.51462518  1
  Ti  Ti24  1  0.04852936  0.01927815  0.64623388  1
  Ti  Ti25  1  0.98072185  0.95147064  0.14623388  1
  Ti  Ti26  1  0.71519636  0.35261115  0.97956688  1
  Ti  Ti27  1  0.64738885  0.28480364  0.47956688  1
  Ti  Ti28  1  0.38186236  0.68594515  0.31290088  1
  Ti  Ti29  1  0.31405485  0.61813764  0.81290088  1
  Si  Si30  1  0.28716620  0.97215718  0.25440611  1
  Si  Si31  1  0.69973763  0.70140334  0.25266442  1
  Si  Si32  1  0.29859666  0.30026237  0.75266442  1
  Si  Si33  1  0.02784282  0.71283380  0.75440611  1
  Si  Si34  1  0.95383320  0.30549018  0.58773911  1
  Si  Si35  1  0.36640463  0.03473634  0.58599742  1
  Si  Si36  1  0.96526366  0.63359537  0.08599742  1
  Si  Si37  1  0.69450982  0.04616680  0.08773911  1
  Si  Si38  1  0.62049920  0.63882418  0.92107311  1
  Si  Si39  1  0.03307063  0.36807034  0.91933142  1
  Si  Si40  1  0.63192966  0.96692937  0.41933142  1
  Si  Si41  1  0.36117582  0.37950080  0.42107311  1
  S  S42  1  0.02393144  0.32809159  0.24421079  1
  S  S43  1  0.67190841  0.97606856  0.74421079  1
  S  S44  1  0.69059844  0.66142459  0.57754379  1
  S  S45  1  0.33857541  0.30940156  0.07754379  1
  S  S46  1  0.35726444  0.99475859  0.91087779  1
  S  S47  1  0.00524141  0.64273556  0.41087779  1
  O  O48  1  0.22129746  0.99347936  0.31583717  1
  O  O49  1  0.79520405  0.78885386  0.31196972  1
  O  O50  1  0.00551118  0.23396001  0.30036996  1
  O  O51  1  0.21114614  0.20479595  0.81196972  1
  O  O52  1  0.00652064  0.77870254  0.81583717  1
  O  O53  1  0.76603999  -0.00551118  0.80036996  1
  O  O54  1  0.75932900  0.97418471  0.69257193  1
  O  O55  1  0.17760550  0.19745333  0.69265842  1
  O  O56  1  0.04426508  0.85296791  0.69895298  1
  O  O57  1  0.80254667  0.82239450  0.19265842  1
  O  O58  1  0.02581529  0.24067100  0.19257193  1
  O  O59  1  0.14703209  0.95573492  0.19895298  1
  O  O60  1  0.88796446  0.32681236  0.64917017  1
  O  O61  1  0.46187105  0.12218686  0.64530272  1
  O  O62  1  0.67217818  0.56729301  0.63370296  1
  O  O63  1  0.87781314  0.53812895  0.14530272  1
  O  O64  1  0.67318764  0.11203554  0.14917017  1
  O  O65  1  0.43270699  0.32782182  0.13370296  1
  O  O66  1  0.42599600  0.30751771  0.02590493  1
  O  O67  1  0.84427250  0.53078633  0.02599142  1
  O  O68  1  0.71093208  0.18630091  0.03228598  1
  O  O69  1  0.46921367  0.15572750  0.52599142  1
  O  O70  1  0.69248229  0.57400400  0.52590493  1
  O  O71  1  0.81369909  0.28906792  0.53228598  1
  O  O72  1  0.55463046  0.66014636  0.98250417  1
  O  O73  1  0.12853705  0.45552086  0.97863672  1
  O  O74  1  0.33884418  0.90062701  0.96703696  1
  O  O75  1  0.54447914  0.87146295  0.47863672  1
  O  O76  1  0.33985364  0.44536954  0.48250417  1
  O  O77  1  0.09937299  0.66115582  0.46703696  1
  O  O78  1  0.09266200  0.64085171  0.35923893  1
  O  O79  1  0.51093850  0.86412033  0.35932542  1
  O  O80  1  0.37759808  0.51963491  0.36561998  1
  O  O81  1  0.13587967  0.48906150  0.85932542  1
  O  O82  1  0.35914829  0.90733800  0.85923893  1
  O  O83  1  0.48036509  0.62240192  0.86561998  1
  O  O84  1  0.98053387  0.78651378  0.40988467  1
  O  O85  1  0.80995406  0.98999511  0.41648020  1
  O  O86  1  0.21848923  0.19504017  0.41278609  1
  O  O87  1  0.01000489  0.19004594  0.91648020  1
  O  O88  1  0.21348622  0.01946613  0.90988467  1
  O  O89  1  0.80495983  0.78151077  0.91278609  1
  O  O90  1  0.95955060  0.13059945  0.59190089  1
  O  O91  1  0.19065321  0.03981423  0.58721176  1
  O  O92  1  0.83988782  0.82026273  0.58116194  1
  O  O93  1  0.96018577  0.80934679  0.08721176  1
  O  O94  1  0.86940055  0.04044940  0.09190089  1
  O  O95  1  0.17973727  0.16011218  0.08116194  1
  O  O96  1  0.64720087  0.11984678  0.74321767  1
  O  O97  1  0.47662106  0.32332811  0.74981320  1
  O  O98  1  0.88515623  0.52837317  0.74611909  1
  O  O99  1  0.67667189  0.52337894  0.24981320  1
  O  O100  1  0.88015322  0.35279913  0.24321767  1
  O  O101  1  0.47162683  0.11484377  0.24611909  1
  O  O102  1  0.62621760  0.46393245  0.92523389  1
  O  O103  1  0.85732021  0.37314723  0.92054476  1
  O  O104  1  0.50655482  0.15359573  0.91449494  1
  O  O105  1  0.62685277  0.14267979  0.42054476  1
  O  O106  1  0.53606755  0.37378240  0.42523389  1
  O  O107  1  0.84640427  0.49344518  0.41449494  1
  O  O108  1  0.31386687  0.45318078  0.07655167  1
  O  O109  1  0.14328706  0.65666211  0.08314720  1
  O  O110  1  0.55182223  0.86170717  0.07945309  1
  O  O111  1  0.34333789  0.85671294  0.58314720  1
  O  O112  1  0.54681922  0.68613313  0.57655167  1
  O  O113  1  0.13829283  0.44817777  0.57945309  1
  O  O114  1  0.29288360  0.79726645  0.25856789  1
  O  O115  1  0.52398621  0.70648123  0.25387876  1
  O  O116  1  0.17322082  0.48692973  0.24782894  1
  O  O117  1  0.29351877  0.47601379  0.75387876  1
  O  O118  1  0.20273355  0.70711640  0.75856789  1
  O  O119  1  0.51307027  0.82677918  0.74782894  1
