# generated using pymatgen
data_MgMn5O9F
_symmetry_space_group_name_H-M   'P 1'
_cell_length_a   5.26337810
_cell_length_b   5.22196676
_cell_length_c   7.87120977
_cell_angle_alpha   109.90378300
_cell_angle_beta   76.90157452
_cell_angle_gamma   82.14091825
_symmetry_Int_Tables_number   1
_chemical_formula_structural   MgMn5O9F
_chemical_formula_sum   'Mg1 Mn5 O9 F1'
_cell_volume   192.64669938
_cell_formula_units_Z   1
loop_
 _symmetry_equiv_pos_site_id
 _symmetry_equiv_pos_as_xyz
  1  'x, y, z'
loop_
 _atom_site_type_symbol
 _atom_site_label
 _atom_site_symmetry_multiplicity
 _atom_site_fract_x
 _atom_site_fract_y
 _atom_site_fract_z
 _atom_site_occupancy
  Mg  Mg0  1  0.50562800  0.59008100  0.69506400  1
  Mn  Mn1  1  0.01690100  0.18981700  0.39504400  1
  Mn  Mn2  1  0.95313500  0.01545000  0.01366800  1
  Mn  Mn3  1  0.99552400  0.59680400  0.20279800  1
  Mn  Mn4  1  0.98907100  0.81192500  0.59588500  1
  Mn  Mn5  1  0.00161100  0.41232500  0.80254800  1
  O  O6  1  0.18047500  0.21298000  0.15839300  1
  O  O7  1  0.19297400  0.81317600  0.35996000  1
  O  O8  1  0.21458000  0.42793800  0.56789600  1
  O  O9  1  0.18833800  0.63499400  0.96001300  1
  O  O10  1  0.80728900  0.38784400  0.03567000  1
  O  O11  1  0.79850200  0.97271800  0.27051800  1
  O  O12  1  0.79625900  0.54994900  0.43504600  1
  O  O13  1  0.80185400  0.21551700  0.64308300  1
  O  O14  1  0.77389800  0.81334100  0.82707700  1
  F  F15  1  0.26859900  0.96787600  0.74239500  1
