# generated using pymatgen
data_K4MgMo2(SO3)2
_symmetry_space_group_name_H-M   'P 1'
_cell_length_a   6.48754900
_cell_length_b   6.82037728
_cell_length_c   8.72821154
_cell_angle_alpha   103.91982860
_cell_angle_beta   90.00000000
_cell_angle_gamma   118.39844767
_symmetry_Int_Tables_number   1
_chemical_formula_structural   K4MgMo2(SO3)2
_chemical_formula_sum   'K4 Mg1 Mo2 S2 O6'
_cell_volume   326.77632344
_cell_formula_units_Z   1
loop_
 _symmetry_equiv_pos_site_id
 _symmetry_equiv_pos_as_xyz
  1  'x, y, z'
loop_
 _atom_site_type_symbol
 _atom_site_label
 _atom_site_symmetry_multiplicity
 _atom_site_fract_x
 _atom_site_fract_y
 _atom_site_fract_z
 _atom_site_occupancy
  K  K0  1  0.49461600  0.94811800  0.16248800  1
  K  K1  1  0.54649800  0.05188200  0.83751200  1
  K  K2  1  0.20101000  0.38531900  0.80283300  1
  K  K3  1  0.81568900  0.61468100  0.19716700  1
  Mg  Mg4  1  0.76651700  0.00000000  0.50000000  1
  Mo  Mo5  1  0.14819100  0.29520600  0.22347200  1
  Mo  Mo6  1  0.85298500  0.70479400  0.77652800  1
  S  S7  1  0.34801400  0.66478200  0.41156100  1
  S  S8  1  0.68323000  0.33521800  0.58843900  1
  O  O9  1  0.94851100  0.06446500  0.32398100  1
  O  O10  1  0.88404600  0.93553500  0.67601900  1
  O  O11  1  0.93551800  0.29755000  0.08644800  1
  O  O12  1  0.37622200  0.25482000  0.12466000  1
  O  O13  1  0.12140100  0.74518000  0.87534000  1
  O  O14  1  0.63796800  0.70245000  0.91355200  1
