# generated using pymatgen
data_Na10Y7NbSi6(SO8)6
_symmetry_space_group_name_H-M   'P 1'
_cell_length_a   18.60524843
_cell_length_b   9.33394637
_cell_length_c   23.60357740
_cell_angle_alpha   90.04352785
_cell_angle_beta   89.86895420
_cell_angle_gamma   119.98667967
_symmetry_Int_Tables_number   1
_chemical_formula_structural   Na10Y7NbSi6(SO8)6
_chemical_formula_sum   'Na30 Y21 Nb3 Si18 S18 O144'
_cell_volume   3550.31049090
_cell_formula_units_Z   3
loop_
 _symmetry_equiv_pos_site_id
 _symmetry_equiv_pos_as_xyz
  1  'x, y, z'
loop_
 _atom_site_type_symbol
 _atom_site_label
 _atom_site_symmetry_multiplicity
 _atom_site_fract_x
 _atom_site_fract_y
 _atom_site_fract_z
 _atom_site_occupancy
  Na  Na0  1  0.32236846  0.01049092  0.24738220  1
  Na  Na1  1  0.82554401  0.00293212  0.25032514  1
  Na  Na2  1  0.18555723  0.35792282  0.24872239  1
  Na  Na3  1  0.68695457  0.37950215  0.23424134  1
  Na  Na4  1  0.99455784  0.62871641  0.24187471  1
  Na  Na5  1  0.49291326  0.61746984  0.25027128  1
  Na  Na6  1  0.30962284  0.61907026  0.74891173  1
  Na  Na7  1  0.80923635  0.62260230  0.74752597  1
  Na  Na8  1  0.99473271  0.34419502  0.74485540  1
  Na  Na9  1  0.69040896  0.01922318  0.75631621  1
  Na  Na10  1  0.16515226  0.34550155  0.58350923  1
  Na  Na11  1  0.00982047  0.69332662  0.58692773  1
  Na  Na12  1  0.32843129  0.96192574  0.58753705  1
  Na  Na13  1  0.83468106  0.97280553  0.58161553  1
  Na  Na14  1  0.82993460  0.67434096  0.07370681  1
  Na  Na15  1  0.17098271  0.31130832  0.90696285  1
  Na  Na16  1  0.67317404  0.31686341  0.91598697  1
  Na  Na17  1  0.35713873  0.66604568  0.41775852  1
  Na  Na18  1  0.99985847  0.99406449  0.49803789  1
  Na  Na19  1  0.50659937  0.96679437  0.49902377  1
  Na  Na20  1  0.98619049  0.96188311  0.99830951  1
  Na  Na21  1  0.48754955  0.95484278  0.00084249  1
  Na  Na22  1  0.32834157  0.33146993  0.83654965  1
  Na  Na23  1  0.82739709  0.33684068  0.83760873  1
  Na  Na24  1  0.34824042  0.34355926  0.33213741  1
  Na  Na25  1  0.84269981  0.34913539  0.32961233  1
  Na  Na26  1  0.15426986  0.66184790  0.16379671  1
  Na  Na27  1  0.64795208  0.63126767  0.15781789  1
  Na  Na28  1  0.16499508  0.66258467  0.66091862  1
  Na  Na29  1  0.66889390  0.62543423  0.66955040  1
  Y  Y30  1  0.99895163  0.99834715  0.34901240  1
  Y  Y31  1  0.50126485  0.99625339  0.35181079  1
  Y  Y32  1  0.99337890  0.99479733  0.85199638  1
  Y  Y33  1  0.49755496  0.99592253  0.85336565  1
  Y  Y34  1  0.50489121  0.00545374  0.64861928  1
  Y  Y35  1  0.32693048  0.32983392  0.68184532  1
  Y  Y36  1  0.82955113  0.33888945  0.68134698  1
  Y  Y37  1  0.33833900  0.34292223  0.18176750  1
  Y  Y38  1  0.83940882  0.34685549  0.17749885  1
  Y  Y39  1  0.34238491  0.36229338  0.98682193  1
  Y  Y40  1  0.83431654  0.35006918  0.98917986  1
  Y  Y41  1  0.33299283  0.34102651  0.48422376  1
  Y  Y42  1  0.83962793  0.34859929  0.48652743  1
  Y  Y43  1  0.16909425  0.67229312  0.01876725  1
  Y  Y44  1  0.66476870  0.66406501  0.01980922  1
  Y  Y45  1  0.16407896  0.66383992  0.51903048  1
  Y  Y46  1  0.66145719  0.65997373  0.51449255  1
  Y  Y47  1  0.16457999  0.66448670  0.30856071  1
  Y  Y48  1  0.66040061  0.65560919  0.31604439  1
  Y  Y49  1  0.16813543  0.66467625  0.81682538  1
  Y  Y50  1  0.67281982  0.66368746  0.81539643  1
  Nb  Nb51  1  0.00144372  0.01428592  0.64753173  1
  Nb  Nb52  1  0.99942445  0.98947024  0.15366701  1
  Nb  Nb53  1  0.49696739  0.00379142  0.14582311  1
  Si  Si54  1  0.14693724  0.00175468  0.25040914  1
  Si  Si55  1  0.35466828  0.71153546  0.24987120  1
  Si  Si56  1  0.85086794  0.70155944  0.25085828  1
  Si  Si57  1  0.99670178  0.28574002  0.24795730  1
  Si  Si58  1  0.50065429  0.28995556  0.24944284  1
  Si  Si59  1  0.14672803  0.29637202  0.75295655  1
  Si  Si60  1  0.65007755  0.29649379  0.75362256  1
  Si  Si61  1  0.85188944  0.00156318  0.74664416  1
  Si  Si62  1  0.98055660  0.32982388  0.58735045  1
  Si  Si63  1  0.18228945  0.03575280  0.58405373  1
  Si  Si64  1  0.33588219  0.64450182  0.58283685  1
  Si  Si65  1  0.83486067  0.64432497  0.58823435  1
  Si  Si66  1  0.48848629  0.64814952  0.08954029  1
  Si  Si67  1  0.98924591  0.65253998  0.08859023  1
  Si  Si68  1  0.67883527  0.32861671  0.08592595  1
  Si  Si69  1  0.31621212  0.66211690  0.91450381  1
  Si  Si70  1  0.81912037  0.66401864  0.91900531  1
  Si  Si71  1  0.51260636  0.66350335  0.41400390  1
  S  S72  1  0.64559530  -0.00005335  0.24656559  1
  S  S73  1  0.00166100  0.70973510  0.74639330  1
  S  S74  1  0.49952845  0.70279177  0.74962335  1
  S  S75  1  0.35119170  0.00020272  0.74908467  1
  S  S76  1  0.48161105  0.33249753  0.58471421  1
  S  S77  1  0.68453200  0.03465588  0.58186204  1
  S  S78  1  0.33664790  0.03464191  0.08540073  1
  S  S79  1  0.83972991  0.03357539  0.08601881  1
  S  S80  1  0.17693291  0.32154717  0.08468939  1
  S  S81  1  0.01751489  0.37018149  0.91674065  1
  S  S82  1  0.51707294  0.36970960  0.91619329  1
  S  S83  1  0.16852495  0.96935409  0.91743534  1
  S  S84  1  0.66793031  0.96938024  0.91454411  1
  S  S85  1  0.31394262  0.96245925  0.41596827  1
  S  S86  1  0.81637135  0.97000498  0.41722933  1
  S  S87  1  0.16573686  0.36692954  0.41603457  1
  S  S88  1  0.67066240  0.36704737  0.41583592  1
  S  S89  1  0.01583356  0.66609644  0.41646342  1
  O  O90  1  0.10824144  0.04080614  0.30513354  1
  O  O91  1  0.61077855  0.02860516  0.29878714  1
  O  O92  1  0.40767058  0.78221943  0.30791601  1
  O  O93  1  0.91231510  0.78438482  0.30378941  1
  O  O94  1  0.49029358  0.18146533  0.30508672  1
  O  O95  1  0.98068508  0.17353323  0.30367384  1
  O  O96  1  0.10665199  0.19993293  0.81144557  1
  O  O97  1  0.60699107  0.18945196  0.81123251  1
  O  O98  1  0.48445538  0.78133150  0.79948653  1
  O  O99  1  0.99351318  0.79336181  0.79688554  1
  O  O100  1  0.40173201  0.01053674  0.79860983  1
  O  O101  1  0.91037128  0.02551165  0.80019247  1
  O  O102  1  0.38894336  0.97861174  0.69625385  1
  O  O103  1  0.90501010  0.98524507  0.69040938  1
  O  O104  1  0.08543028  0.18221703  0.69759849  1
  O  O105  1  0.59655161  0.19462540  0.69816084  1
  O  O106  1  0.00910824  0.80510303  0.69385080  1
  O  O107  1  0.50769759  0.80042119  0.69807724  1
  O  O108  1  0.40990734  0.84027484  0.19676881  1
  O  O109  1  0.90466208  0.82219560  0.19324630  1
  O  O110  1  0.00581897  0.18143843  0.19226101  1
  O  O111  1  0.50833276  0.18587440  0.19388523  1
  O  O112  1  0.08318390  0.97913769  0.19469765  1
  O  O113  1  0.59215031  0.97954928  0.19707278  1
  O  O114  1  0.44354452  0.35438165  0.63637256  1
  O  O115  1  0.94558413  0.36864441  0.64467110  1
  O  O116  1  0.24713513  0.11080068  0.63649674  1
  O  O117  1  0.73175276  0.10899019  0.63494458  1
  O  O118  1  0.32330253  0.53020465  0.63927350  1
  O  O119  1  0.81928573  0.54354822  0.64728257  1
  O  O120  1  0.44959840  0.54173607  0.14709364  1
  O  O121  1  0.95172941  0.55537024  0.14832533  1
  O  O122  1  0.32689822  0.10739819  0.13828261  1
  O  O123  1  0.82957208  0.10632967  0.13923129  1
  O  O124  1  0.22774694  0.34285022  0.13568593  1
  O  O125  1  0.73430557  0.35043152  0.14202501  1
  O  O126  1  0.21776437  0.29979936  0.03345630  1
  O  O127  1  0.71868572  0.29547794  0.02909373  1
  O  O128  1  0.42807065  0.56223262  0.03455070  1
  O  O129  1  0.92064109  0.55961017  0.03827396  1
  O  O130  1  0.34556321  0.13849639  0.03598394  1
  O  O131  1  0.84923358  0.13911574  0.03682482  1
  O  O132  1  0.21803923  0.15989393  0.53012611  1
  O  O133  1  0.72723305  0.14227248  0.53305008  1
  O  O134  1  0.34343739  0.55409362  0.52561084  1
  O  O135  1  0.85756055  0.55592111  0.53630051  1
  O  O136  1  0.42911171  0.30960171  0.53456722  1
  O  O137  1  0.91497834  0.27790048  0.53546819  1
  O  O138  1  0.26208911  0.67130402  0.96710608  1
  O  O139  1  0.77057013  0.67299356  0.97565023  1
  O  O140  1  0.07020149  0.46538271  0.96492380  1
  O  O141  1  0.56717170  0.45368988  0.96665891  1
  O  O142  1  0.15847099  0.86819087  0.96789582  1
  O  O143  1  0.65923506  0.86282543  0.96278624  1
  O  O144  1  0.27143603  0.86193792  0.46721299  1
  O  O145  1  0.77234921  0.87216261  0.46851247  1
  O  O146  1  0.16108426  0.45312737  0.46756388  1
  O  O147  1  0.66489365  0.45713740  0.46563729  1
  O  O148  1  0.06174847  0.67109451  0.46824322  1
  O  O149  1  0.56993265  0.67099643  0.46756741  1
  O  O150  1  0.05967892  0.65833991  0.36507236  1
  O  O151  1  0.55648742  0.65882845  0.35348058  1
  O  O152  1  0.26494614  0.87738454  0.36458218  1
  O  O153  1  0.76981499  0.88295247  0.36509289  1
  O  O154  1  0.17109694  0.46547311  0.36479227  1
  O  O155  1  0.67937702  0.46210373  0.36301985  1
  O  O156  1  0.05352566  0.46393882  0.86270967  1
  O  O157  1  0.55503663  0.46982668  0.86473380  1
  O  O158  1  0.17321475  0.88428842  0.86541851  1
  O  O159  1  0.67003597  0.89108375  0.85981695  1
  O  O160  1  0.26410021  0.64049297  0.85424733  1
  O  O161  1  0.76459763  0.64762213  0.86136921  1
  O  O162  1  0.00762446  0.81602147  0.41730250  1
  O  O163  1  0.50059128  0.82738713  0.41850126  1
  O  O164  1  0.39593905  0.97091855  0.41410523  1
  O  O165  1  0.90034816  0.98671670  0.41789936  1
  O  O166  1  0.09174255  0.20031162  0.41572641  1
  O  O167  1  0.59501845  0.20215562  0.41467660  1
  O  O168  1  0.01969025  0.21203192  0.91521610  1
  O  O169  1  0.51556109  0.20826040  0.91259322  1
  O  O170  1  0.09603663  0.99657478  0.91496446  1
  O  O171  1  0.59469654  0.99604653  0.91534654  1
  O  O172  1  0.40954371  0.82312266  0.91416834  1
  O  O173  1  0.91257143  0.82531315  0.91665823  1
  O  O174  1  0.48639418  0.17812407  0.58858177  1
  O  O175  1  0.99425464  0.16495482  0.59480831  1
  O  O176  1  0.09021716  0.01916031  0.59874959  1
  O  O177  1  0.59961089  0.01016055  0.58467811  1
  O  O178  1  0.41277701  0.83564030  0.58605838  1
  O  O179  1  0.92432208  0.82797370  0.59558893  1
  O  O180  1  0.49188752  0.83147273  0.09760306  1
  O  O181  1  0.99204364  0.83752213  0.09270941  1
  O  O182  1  0.41437302  0.02127183  0.08839971  1
  O  O183  1  0.91550084  0.01502557  0.08888285  1
  O  O184  1  0.09375425  0.17120978  0.09014716  1
  O  O185  1  0.58485275  0.16448520  0.09757588  1
  O  O186  1  0.34353988  0.14973456  0.74760931  1
  O  O187  1  0.84322725  0.16586474  0.74100184  1
  O  O188  1  0.24211263  0.33389175  0.74587616  1
  O  O189  1  0.74413879  0.31672022  0.75147496  1
  O  O190  1  0.42637187  0.53373224  0.74549612  1
  O  O191  1  0.92536296  0.54302562  0.74483896  1
  O  O192  1  0.33708354  0.52246583  0.24231744  1
  O  O193  1  0.83400156  0.51265784  0.24471251  1
  O  O194  1  0.41791228  0.30807207  0.24384178  1
  O  O195  1  0.91462343  0.30611701  0.24277263  1
  O  O196  1  0.23874095  0.15654565  0.23934149  1
  O  O197  1  0.73083693  0.14359773  0.24050060  1
  O  O198  1  0.31724900  0.48465449  0.91841235  1
  O  O199  1  0.82002305  0.48649109  0.91962675  1
  O  O200  1  0.43107210  0.33906027  0.92154143  1
  O  O201  1  0.93222010  0.33870887  0.92220702  1
  O  O202  1  0.24518552  0.13483669  0.92091196  1
  O  O203  1  0.74456113  0.13404866  0.91797293  1
  O  O204  1  0.32314883  0.12820963  0.41957909  1
  O  O205  1  0.82281423  0.13527819  0.41871010  1
  O  O206  1  0.24388674  0.35989077  0.41666128  1
  O  O207  1  0.74534439  0.34842421  0.42003735  1
  O  O208  1  0.41795778  0.49929516  0.41619055  1
  O  O209  1  0.93238214  0.51297174  0.41679499  1
  O  O210  1  0.16768036  0.47040107  0.07955867  1
  O  O211  1  0.67453938  0.49917738  0.08154935  1
  O  O212  1  0.08153495  0.68044449  0.07959575  1
  O  O213  1  0.58237318  0.68467460  0.08110575  1
  O  O214  1  0.26500823  0.86543574  0.08036847  1
  O  O215  1  0.76716406  0.86434588  0.08060474  1
  O  O216  1  0.16087400  0.84455967  0.57545032  1
  O  O217  1  0.68084248  0.87269966  0.57656519  1
  O  O218  1  0.24982189  0.65775533  0.58080624  1
  O  O219  1  0.76090367  0.68621421  0.57713934  1
  O  O220  1  0.07320164  0.48280383  0.57618789  1
  O  O221  1  0.56660689  0.47671246  0.57932851  1
  O  O222  1  0.14551045  0.82536121  0.25147161  1
  O  O223  1  0.65156278  0.84663660  0.25077004  1
  O  O224  1  0.26589956  0.71012930  0.25101867  1
  O  O225  1  0.76470821  0.70760632  0.25225718  1
  O  O226  1  0.08297273  0.46560549  0.24971524  1
  O  O227  1  0.58624743  0.47250911  0.24951928  1
  O  O228  1  0.14662638  0.47511006  0.74875846  1
  O  O229  1  0.66191163  0.48316679  0.75297250  1
  O  O230  1  0.07503223  0.68712153  0.74956826  1
  O  O231  1  0.57774586  0.69966397  0.75542742  1
  O  O232  1  0.26752903  0.84680457  0.75279705  1
  O  O233  1  0.76025255  0.83506713  0.74794767  1
