# generated using pymatgen
data_Na8NbAl3Si5SO24
_symmetry_space_group_name_H-M   'P 1'
_cell_length_a   8.90092739
_cell_length_b   8.89954309
_cell_length_c   21.80983180
_cell_angle_alpha   89.74522611
_cell_angle_beta   89.94191454
_cell_angle_gamma   120.08208079
_symmetry_Int_Tables_number   1
_chemical_formula_structural   Na8NbAl3Si5SO24
_chemical_formula_sum   'Na24 Nb3 Al9 Si15 S3 O72'
_cell_volume   1494.92282821
_cell_formula_units_Z   3
loop_
 _symmetry_equiv_pos_site_id
 _symmetry_equiv_pos_as_xyz
  1  'x, y, z'
loop_
 _atom_site_type_symbol
 _atom_site_label
 _atom_site_symmetry_multiplicity
 _atom_site_fract_x
 _atom_site_fract_y
 _atom_site_fract_z
 _atom_site_occupancy
  Na  Na0  1  0.62231858  0.99883140  0.25150837  1
  Na  Na1  1  0.36651163  0.36081290  0.25310541  1
  Na  Na2  1  0.00769832  0.63973123  0.25021270  1
  Na  Na3  1  0.63594725  0.62275218  0.74686832  1
  Na  Na4  1  0.99695289  0.36591555  0.74268490  1
  Na  Na5  1  0.36034703  0.00535204  0.74518797  1
  Na  Na6  1  0.29889629  0.33702725  0.58256684  1
  Na  Na7  1  0.03717837  0.70161393  0.58285935  1
  Na  Na8  1  0.66495615  0.96359596  0.58034965  1
  Na  Na9  1  0.29966268  0.96138149  0.08383140  1
  Na  Na10  1  0.66288992  0.70019201  0.08173732  1
  Na  Na11  1  0.03668199  0.33591357  0.08207259  1
  Na  Na12  1  0.96887426  0.67243704  0.91516166  1
  Na  Na13  1  0.70104205  0.02846103  0.91745209  1
  Na  Na14  1  0.32743142  0.29694251  0.91460920  1
  Na  Na15  1  0.97220141  0.30185992  0.41874242  1
  Na  Na16  1  0.33127110  0.02922139  0.41681414  1
  Na  Na17  1  0.69892918  0.67141881  0.41864545  1
  Na  Na18  1  0.00011106  0.00075647  0.50170594  1
  Na  Na19  1  0.99945118  0.99895514  0.99988052  1
  Na  Na20  1  0.66503968  0.33901608  0.82992092  1
  Na  Na21  1  0.66020265  0.32787457  0.33471807  1
  Na  Na22  1  0.33231177  0.67223637  0.16375269  1
  Na  Na23  1  0.32871071  0.66259946  0.65865196  1
  Nb  Nb24  1  0.66633368  0.33307038  0.98258374  1
  Nb  Nb25  1  0.66739423  0.33426921  0.48140503  1
  Nb  Nb26  1  0.32239681  0.65712913  0.81372184  1
  Al  Al27  1  0.01901545  0.00592809  0.35996296  1
  Al  Al28  1  0.01315705  0.99513460  0.85482394  1
  Al  Al29  1  0.01755743  0.00519373  0.64223059  1
  Al  Al30  1  0.01135695  0.99404689  0.14207429  1
  Al  Al31  1  0.66460961  0.34484602  0.68065066  1
  Al  Al32  1  0.64918641  0.31848050  0.17799624  1
  Al  Al33  1  0.33416824  0.66709453  0.02096901  1
  Al  Al34  1  0.33401605  0.66669829  0.51926680  1
  Al  Al35  1  0.33099578  0.68161448  0.32395410  1
  Si  Si36  1  0.28990842  0.99959295  0.24983605  1
  Si  Si37  1  0.28746450  0.27835939  0.74840972  1
  Si  Si38  1  0.99164009  0.71303517  0.74843581  1
  Si  Si39  1  0.96143606  0.33238669  0.58805500  1
  Si  Si40  1  0.37609356  0.03785610  0.58753986  1
  Si  Si41  1  0.66633372  0.63375775  0.58617945  1
  Si  Si42  1  0.95987706  0.62394204  0.08878318  1
  Si  Si43  1  0.66849212  0.03375704  0.08736450  1
  Si  Si44  1  0.37013716  0.33722681  0.08664090  1
  Si  Si45  1  0.62846006  0.67558079  0.91858983  1
  Si  Si46  1  0.04224856  0.36729437  0.92059866  1
  Si  Si47  1  0.32969483  0.95271428  0.91918588  1
  Si  Si48  1  0.62696716  0.95145312  0.41533120  1
  Si  Si49  1  0.32994414  0.38608873  0.41458220  1
  Si  Si50  1  0.04973592  0.66989747  0.41645436  1
  S  S51  1  0.71228806  0.71155398  0.24948775  1
  S  S52  1  0.99969078  0.28792870  0.24941951  1
  S  S53  1  0.71604133  0.00219551  0.74974740  1
  O  O54  1  0.19659093  0.03500282  0.30856079  1
  O  O55  1  0.81988106  0.79316891  0.30447157  1
  O  O56  1  0.96818776  0.17734261  0.30467727  1
  O  O57  1  0.19763773  0.16678548  0.81081003  1
  O  O58  1  0.96322239  0.79822068  0.81049846  1
  O  O59  1  0.81970944  0.02751993  0.80639255  1
  O  O60  1  0.79102083  0.97026281  0.69566971  1
  O  O61  1  0.15883593  0.19945893  0.69042566  1
  O  O62  1  0.03488562  0.84051772  0.69017453  1
  O  O63  1  0.79302485  0.82340856  0.19397510  1
  O  O64  1  0.02531350  0.20481942  0.19413212  1
  O  O65  1  0.16302855  0.96506508  0.19045971  1
  O  O66  1  0.86414153  0.36641374  0.64528943  1
  O  O67  1  0.50541614  0.13320658  0.64523068  1
  O  O68  1  0.62666227  0.50333960  0.64408680  1
  O  O69  1  0.85965251  0.49183720  0.14584145  1
  O  O70  1  0.63028849  0.12778176  0.14383159  1
  O  O71  1  0.50120300  0.37564388  0.14365672  1
  O  O72  1  0.45910848  0.29361543  0.02600964  1
  O  O73  1  0.83331062  0.53662196  0.02651494  1
  O  O74  1  0.70864737  0.16470098  0.02590301  1
  O  O75  1  0.46435175  0.16628272  0.52574403  1
  O  O76  1  0.70616120  0.54188213  0.52557610  1
  O  O77  1  0.83442093  0.29640607  0.52607412  1
  O  O78  1  0.53496923  0.70436030  0.97677291  1
  O  O79  1  0.16937400  0.46303619  0.97695971  1
  O  O80  1  0.29698812  0.82798336  0.97714611  1
  O  O81  1  0.53981566  0.83148307  0.47549463  1
  O  O82  1  0.29655008  0.46891000  0.47537100  1
  O  O83  1  0.17166999  0.70627558  0.47582283  1
  O  O84  1  0.12424930  0.62454389  0.35496226  1
  O  O85  1  0.50458881  0.87453438  0.35466395  1
  O  O86  1  0.36746903  0.50786209  0.35296413  1
  O  O87  1  0.12581527  0.49659649  0.85860180  1
  O  O88  1  0.37227497  0.87088485  0.85724722  1
  O  O89  1  0.50144993  0.63277350  0.85728611  1
  O  O90  1  0.02048887  0.83679905  0.40831397  1
  O  O91  1  0.82168711  0.97823710  0.40395209  1
  O  O92  1  0.16047054  0.18956108  0.40893179  1
  O  O93  1  0.01811902  0.17790140  0.90802096  1
  O  O94  1  0.16074817  0.97545697  0.91199525  1
  O  O95  1  0.81867979  0.84530798  0.90873302  1
  O  O96  1  0.97187942  0.15514229  0.59219357  1
  O  O97  1  0.18822338  0.02744737  0.58871657  1
  O  O98  1  0.84136953  0.82210582  0.59292196  1
  O  O99  1  0.97079079  0.81246089  0.09089502  1
  O  O100  1  0.84416342  0.02145225  0.09536367  1
  O  O101  1  0.18125255  0.16127274  0.09157482  1
  O  O102  1  0.69244708  0.15575877  0.74643674  1
  O  O103  1  0.48386260  0.30449202  0.74406487  1
  O  O104  1  0.82767532  0.51265499  0.74433510  1
  O  O105  1  0.69704440  0.53661634  0.24489597  1
  O  O106  1  0.84392943  0.30981578  0.24507991  1
  O  O107  1  0.48789665  0.17771004  0.24267637  1
  O  O108  1  0.64338509  0.49747000  0.92152108  1
  O  O109  1  0.85242105  0.35711556  0.92121166  1
  O  O110  1  0.50541813  0.14708124  0.92132944  1
  O  O111  1  0.64559551  0.14706240  0.42075114  1
  O  O112  1  0.50288385  0.36003919  0.41950996  1
  O  O113  1  0.85262852  0.49591870  0.42044176  1
  O  O114  1  0.35612369  0.50956144  0.07716165  1
  O  O115  1  0.14773404  0.64068327  0.07844548  1
  O  O116  1  0.49378084  0.84876981  0.07726638  1
  O  O117  1  0.35906437  0.84972568  0.57788617  1
  O  O118  1  0.49144679  0.64443674  0.57677808  1
  O  O119  1  0.14860700  0.50639973  0.57784016  1
  O  O120  1  0.31114033  0.82324699  0.25624517  1
  O  O121  1  0.53508424  0.68914727  0.25301814  1
  O  O122  1  0.15875177  0.46239122  0.25314394  1
  O  O123  1  0.31380014  0.48095174  0.75469852  1
  O  O124  1  0.17291155  0.69550459  0.75461334  1
  O  O125  1  0.53631894  0.84272784  0.75441724  1
