# generated using pymatgen
data_NaAlGeP2SO12
_symmetry_space_group_name_H-M   'P 1'
_cell_length_a   8.30940348
_cell_length_b   8.34333462
_cell_length_c   21.77754891
_cell_angle_alpha   89.42413372
_cell_angle_beta   90.00000000
_cell_angle_gamma   119.86556042
_symmetry_Int_Tables_number   1
_chemical_formula_structural   NaAlGeP2SO12
_chemical_formula_sum   'Na6 Al6 Ge6 P12 S6 O72'
_cell_volume   1309.20216980
_cell_formula_units_Z   6
loop_
 _symmetry_equiv_pos_site_id
 _symmetry_equiv_pos_as_xyz
  1  'x, y, z'
loop_
 _atom_site_type_symbol
 _atom_site_label
 _atom_site_symmetry_multiplicity
 _atom_site_fract_x
 _atom_site_fract_y
 _atom_site_fract_z
 _atom_site_occupancy
  Na  Na0  1  0.99193435  0.99547091  0.50104169  1
  Na  Na1  1  0.00353656  0.99547091  0.00104169  1
  Na  Na2  1  0.65860135  0.32880391  0.83437469  1
  Na  Na3  1  0.67020356  0.32880391  0.33437469  1
  Na  Na4  1  0.32526735  0.66213791  0.16770869  1
  Na  Na5  1  0.33686956  0.66213791  0.66770869  1
  Al  Al6  1  0.99168759  0.00547670  0.64605572  1
  Al  Al7  1  0.01378911  0.00547670  0.14605572  1
  Al  Al8  1  0.65835459  0.33880970  0.97938872  1
  Al  Al9  1  0.68045611  0.33880970  0.47938872  1
  Al  Al10  1  0.32502059  0.67214370  0.31272272  1
  Al  Al11  1  0.34712211  0.67214370  0.81272272  1
  Ge  Ge12  1  0.99883841  0.00066225  0.35221365  1
  Ge  Ge13  1  0.00182384  0.00066225  0.85221365  1
  Ge  Ge14  1  0.66550541  0.33399525  0.68554665  1
  Ge  Ge15  1  0.66849084  0.33399525  0.18554665  1
  Ge  Ge16  1  0.33217141  0.66732925  0.01888065  1
  Ge  Ge17  1  0.33515684  0.66732925  0.51888065  1
  P  P18  1  0.28799129  0.00024751  0.24914526  1
  P  P19  1  0.00310766  0.28828905  0.24850920  1
  P  P20  1  0.28518139  0.28828905  0.74850920  1
  P  P21  1  0.71225622  0.00024751  0.74914526  1
  P  P22  1  0.95465829  0.33358051  0.58247826  1
  P  P23  1  0.66977466  0.62162205  0.58184220  1
  P  P24  1  0.95184839  0.62162205  0.08184220  1
  P  P25  1  0.37892322  0.33358051  0.08247826  1
  P  P26  1  0.62132429  0.66691451  0.91581226  1
  P  P27  1  0.33644066  0.95495605  0.91517620  1
  P  P28  1  0.61851439  0.95495605  0.41517620  1
  P  P29  1  0.04558922  0.66691451  0.41581226  1
  S  S30  1  0.71047305  0.71301101  0.24897719  1
  S  S31  1  0.00253797  0.71301101  0.74897719  1
  S  S32  1  0.37714005  0.04634401  0.58231019  1
  S  S33  1  0.66920497  0.04634401  0.08231019  1
  S  S34  1  0.04380605  0.37967801  0.91564419  1
  S  S35  1  0.33587097  0.37967801  0.41564419  1
  O  O36  1  0.20897227  0.04136396  0.30835891  1
  O  O37  1  0.82503123  0.78520626  0.30591665  1
  O  O38  1  0.95720144  0.16661666  0.30832973  1
  O  O39  1  0.20941523  0.16661666  0.80832973  1
  O  O40  1  0.96017504  0.78520626  0.80591665  1
  O  O41  1  0.83239168  0.04136396  0.80835891  1
  O  O42  1  0.79669218  0.96451794  0.69308708  1
  O  O43  1  0.16913427  0.19815371  0.69225311  1
  O  O44  1  0.03400302  0.82670575  0.69412079  1
  O  O45  1  0.79270273  0.82670575  0.19412079  1
  O  O46  1  0.02901944  0.19815371  0.19225311  1
  O  O47  1  0.16782576  0.96451794  0.19308708  1
  O  O48  1  0.87563927  0.37469696  0.64169191  1
  O  O49  1  0.49169823  0.11853926  0.63924965  1
  O  O50  1  0.62386844  0.49994966  0.64166273  1
  O  O51  1  0.87608223  0.49994966  0.14166273  1
  O  O52  1  0.62684204  0.11853926  0.13924965  1
  O  O53  1  0.49905868  0.37469696  0.14169191  1
  O  O54  1  0.46335918  0.29785094  0.02642008  1
  O  O55  1  0.83580127  0.53148671  0.02558611  1
  O  O56  1  0.70067002  0.16003875  0.02745379  1
  O  O57  1  0.45936973  0.16003875  0.52745379  1
  O  O58  1  0.69568644  0.53148671  0.52558611  1
  O  O59  1  0.83449276  0.29785094  0.52642008  1
  O  O60  1  0.54230527  0.70803096  0.97502591  1
  O  O61  1  0.15836423  0.45187326  0.97258365  1
  O  O62  1  0.29053444  0.83328366  0.97499673  1
  O  O63  1  0.54274823  0.83328366  0.47499673  1
  O  O64  1  0.29350804  0.45187326  0.47258365  1
  O  O65  1  0.16572468  0.70803096  0.47502591  1
  O  O66  1  0.13002518  0.63118494  0.35975408  1
  O  O67  1  0.50246727  0.86482071  0.35892011  1
  O  O68  1  0.36733602  0.49337275  0.36078779  1
  O  O69  1  0.12603573  0.49337275  0.86078779  1
  O  O70  1  0.36235244  0.86482071  0.85892011  1
  O  O71  1  0.50115876  0.63118494  0.85975408  1
  O  O72  1  0.02758847  0.84396740  0.40892922  1
  O  O73  1  0.81586275  0.97534907  0.40936163  1
  O  O74  1  0.16629694  0.19320285  0.41090582  1
  O  O75  1  0.02690592  0.19320285  0.91090582  1
  O  O76  1  0.15948631  0.97534907  0.90936163  1
  O  O77  1  0.81637893  0.84396740  0.90892922  1
  O  O78  1  0.97891366  0.16525784  0.59051555  1
  O  O79  1  0.19333036  0.02580607  0.59075425  1
  O  O80  1  0.84159649  0.81069506  0.59152454  1
  O  O81  1  0.96909857  0.81069506  0.09152454  1
  O  O82  1  0.83247571  0.02580607  0.09075425  1
  O  O83  1  0.18634418  0.16525784  0.09051555  1
  O  O84  1  0.69425547  0.17730040  0.74226222  1
  O  O85  1  0.48252975  0.30868207  0.74269463  1
  O  O86  1  0.83296394  0.52653585  0.74423882  1
  O  O87  1  0.69357292  0.52653585  0.24423882  1
  O  O88  1  0.82615331  0.30868207  0.24269463  1
  O  O89  1  0.48304593  0.17730040  0.24226222  1
  O  O90  1  0.64558066  0.49859084  0.92384855  1
  O  O91  1  0.85999736  0.35913907  0.92408725  1
  O  O92  1  0.50826349  0.14402806  0.92485754  1
  O  O93  1  0.63576557  0.14402806  0.42485754  1
  O  O94  1  0.49914271  0.35913907  0.42408725  1
  O  O95  1  0.85301118  0.49859084  0.42384855  1
  O  O96  1  0.36092147  0.51063440  0.07559622  1
  O  O97  1  0.14919575  0.64201607  0.07602863  1
  O  O98  1  0.49962994  0.85986985  0.07757282  1
  O  O99  1  0.36023892  0.85986985  0.57757282  1
  O  O100  1  0.49281931  0.64201607  0.57602863  1
  O  O101  1  0.14971193  0.51063440  0.57559622  1
  O  O102  1  0.31224666  0.83192484  0.25718255  1
  O  O103  1  0.52666336  0.69247307  0.25742125  1
  O  O104  1  0.17492949  0.47736206  0.25819154  1
  O  O105  1  0.30243157  0.47736206  0.75819154  1
  O  O106  1  0.16580871  0.69247307  0.75742125  1
  O  O107  1  0.51967718  0.83192484  0.75718255  1
