# generated using pymatgen
data_MgZn2(FeO2)4
_symmetry_space_group_name_H-M   'P 1'
_cell_length_a   6.24991045
_cell_length_b   6.12269187
_cell_length_c   6.01060654
_cell_angle_alpha   90.00246609
_cell_angle_beta   117.63679322
_cell_angle_gamma   119.37193043
_symmetry_Int_Tables_number   1
_chemical_formula_structural   MgZn2(FeO2)4
_chemical_formula_sum   'Mg1 Zn2 Fe4 O8'
_cell_volume   169.67996145
_cell_formula_units_Z   1
loop_
 _symmetry_equiv_pos_site_id
 _symmetry_equiv_pos_as_xyz
  1  'x, y, z'
loop_
 _atom_site_type_symbol
 _atom_site_label
 _atom_site_symmetry_multiplicity
 _atom_site_fract_x
 _atom_site_fract_y
 _atom_site_fract_z
 _atom_site_occupancy
  Mg  Mg0  1  0.30392100  0.65261700  0.91000700  1
  Zn  Zn1  1  0.19191500  0.09651300  0.84598100  1
  Zn  Zn2  1  0.87850900  0.93894200  0.19592100  1
  Fe  Fe3  1  0.50343600  0.99712900  0.49792200  1
  Fe  Fe4  1  0.50174400  0.50475200  0.49638400  1
  Fe  Fe5  1  0.89004400  0.44537000  0.98460700  1
  Fe  Fe6  1  0.92563100  0.46297600  0.43944400  1
  O  O7  1  0.06115200  0.74882600  0.28106700  1
  O  O8  1  0.54640100  0.77273300  0.76000100  1
  O  O9  1  0.55541200  0.77750600  0.28977400  1
  O  O10  1  0.96742900  0.70185900  0.72987500  1
  O  O11  1  0.46514100  0.23254800  0.70374300  1
  O  O12  1  0.47337900  0.23637800  0.25281100  1
  O  O13  1  0.06086900  0.31193300  0.27925200  1
  O  O14  1  0.96668800  0.26575000  0.72904300  1
