# generated using pymatgen
data_Na2Si5Sn8S7O48
_symmetry_space_group_name_H-M   'P 1'
_cell_length_a   17.65512865
_cell_length_b   8.83042016
_cell_length_c   23.04948402
_cell_angle_alpha   90.03268195
_cell_angle_beta   90.12988292
_cell_angle_gamma   120.12679572
_symmetry_Int_Tables_number   1
_chemical_formula_structural   Na2Si5Sn8S7O48
_chemical_formula_sum   'Na6 Si15 Sn24 S21 O144'
_cell_volume   3108.03445028
_cell_formula_units_Z   3
loop_
 _symmetry_equiv_pos_site_id
 _symmetry_equiv_pos_as_xyz
  1  'x, y, z'
loop_
 _atom_site_type_symbol
 _atom_site_label
 _atom_site_symmetry_multiplicity
 _atom_site_fract_x
 _atom_site_fract_y
 _atom_site_fract_z
 _atom_site_occupancy
  Na  Na0  1  0.99287104  0.99704922  0.49872260  1
  Na  Na1  1  0.49206375  0.98879945  0.99325383  1
  Na  Na2  1  0.34524672  0.35792549  0.83543570  1
  Na  Na3  1  0.83624581  0.34528095  0.82972573  1
  Na  Na4  1  0.33954133  0.33150574  0.33139491  1
  Na  Na5  1  0.83770855  0.33180572  0.34005630  1
  Si  Si6  1  0.14365307  0.00527190  0.24857923  1
  Si  Si7  1  0.50307419  0.28897035  0.25156855  1
  Si  Si8  1  0.64397611  0.27998530  0.74806731  1
  Si  Si9  1  0.00348491  0.71718422  0.75160848  1
  Si  Si10  1  0.49998623  0.71166595  0.75218334  1
  Si  Si11  1  0.97546634  0.32233539  0.58711377  1
  Si  Si12  1  0.33505112  0.63503754  0.58339558  1
  Si  Si13  1  0.47668349  0.62763473  0.08685006  1
  Si  Si14  1  0.83368894  0.03608689  0.08361366  1
  Si  Si15  1  0.31225571  0.67162520  0.91367773  1
  Si  Si16  1  0.01900886  0.37086355  0.91488422  1
  Si  Si17  1  0.52354692  0.37198880  0.91884016  1
  Si  Si18  1  0.81091259  0.95250321  0.41304829  1
  Si  Si19  1  0.02290361  0.66540785  0.41932015  1
  Si  Si20  1  0.51771341  0.66505739  0.41549807  1
  Sn  Sn21  1  0.00054947  0.98749686  0.35487022  1
  Sn  Sn22  1  0.49983020  0.00153133  0.35571976  1
  Sn  Sn23  1  0.99861095  0.99724711  0.85538169  1
  Sn  Sn24  1  0.49878288  0.00072588  0.85177824  1
  Sn  Sn25  1  0.99877180  0.99750650  0.64952141  1
  Sn  Sn26  1  0.50157920  0.99080803  0.64902181  1
  Sn  Sn27  1  0.00199608  0.00287284  0.14512661  1
  Sn  Sn28  1  0.49774620  0.00019950  0.14818785  1
  Sn  Sn29  1  0.34015747  0.35769037  0.68555471  1
  Sn  Sn30  1  0.83720202  0.34705865  0.68941876  1
  Sn  Sn31  1  0.33762746  0.32560826  0.18848114  1
  Sn  Sn32  1  0.83386836  0.32556689  0.18162537  1
  Sn  Sn33  1  0.34221335  0.36180409  0.97704496  1
  Sn  Sn34  1  0.83903110  0.32596597  0.97924800  1
  Sn  Sn35  1  0.34091438  0.35285225  0.48267926  1
  Sn  Sn36  1  0.84051999  0.32053964  0.47945857  1
  Sn  Sn37  1  0.16792139  0.65350140  0.01349978  1
  Sn  Sn38  1  0.65955382  0.66511515  0.02373347  1
  Sn  Sn39  1  0.15935352  0.65557230  0.52684629  1
  Sn  Sn40  1  0.66753679  0.68247529  0.51584325  1
  Sn  Sn41  1  0.16153126  0.67837222  0.31343509  1
  Sn  Sn42  1  0.65951164  0.65955858  0.31467380  1
  Sn  Sn43  1  0.16170776  0.66130171  0.81339103  1
  Sn  Sn44  1  0.65410867  0.63874860  0.80781640  1
  S  S45  1  0.64917464  0.00515949  0.24972069  1
  S  S46  1  0.35038077  0.70594411  0.25229760  1
  S  S47  1  0.85206357  0.69946314  0.24800313  1
  S  S48  1  0.99972649  0.29264817  0.25102115  1
  S  S49  1  0.14735069  0.29134781  0.75002101  1
  S  S50  1  0.35063062  0.00266952  0.74840501  1
  S  S51  1  0.85235207  0.99611737  0.75217218  1
  S  S52  1  0.48320991  0.33447354  0.58225736  1
  S  S53  1  0.19127325  0.05074855  0.58330838  1
  S  S54  1  0.68972264  0.04657473  0.58265889  1
  S  S55  1  0.82894672  0.62117035  0.58078212  1
  S  S56  1  0.98224697  0.62697761  0.08229900  1
  S  S57  1  0.32826566  0.03559363  0.08091604  1
  S  S58  1  0.19037367  0.33544033  0.08329778  1
  S  S59  1  0.68956790  0.33351337  0.08222107  1
  S  S60  1  0.81003860  0.66373693  0.91826246  1
  S  S61  1  0.16758514  0.96041540  0.91881589  1
  S  S62  1  0.66827959  0.95802825  0.91576626  1
  S  S63  1  0.31140562  0.95918520  0.41903442  1
  S  S64  1  0.16823175  0.37931776  0.41471260  1
  S  S65  1  0.66808875  0.37606523  0.41861197  1
  O  O66  1  0.10152282  0.04488761  0.30554165  1
  O  O67  1  0.60965998  0.03301414  0.30200866  1
  O  O68  1  0.40703684  0.78441964  0.30376639  1
  O  O69  1  0.90748800  0.77163985  0.30052913  1
  O  O70  1  0.48355334  0.16349885  0.30836820  1
  O  O71  1  0.98108813  0.18173756  0.30248760  1
  O  O72  1  0.10685160  0.18481462  0.80235196  1
  O  O73  1  0.60344338  0.16640256  0.80658643  1
  O  O74  1  0.47594736  0.78725660  0.80870801  1
  O  O75  1  0.98362991  0.80274174  0.80848622  1
  O  O76  1  0.40554649  0.04432538  0.80109323  1
  O  O77  1  0.91105720  0.03646352  0.80321379  1
  O  O78  1  0.38964267  0.97491185  0.69610704  1
  O  O79  1  0.89033090  0.96684467  0.69853421  1
  O  O80  1  0.09337444  0.21449039  0.69695760  1
  O  O81  1  0.58330616  0.20645786  0.68979351  1
  O  O82  1  0.01721147  0.83067405  0.69185434  1
  O  O83  1  0.51186997  0.81170868  0.69158917  1
  O  O84  1  0.38751212  0.81247373  0.19941227  1
  O  O85  1  0.89140401  0.80629387  0.19588247  1
  O  O86  1  0.00985286  0.21397803  0.19751530  1
  O  O87  1  0.51699508  0.20205656  0.19226453  1
  O  O88  1  0.08165700  0.96267200  0.19127688  1
  O  O89  1  0.59693722  0.97948704  0.19673812  1
  O  O90  1  0.44318367  0.36739725  0.63376955  1
  O  O91  1  0.93025250  0.35389033  0.64280621  1
  O  O92  1  0.24439368  0.13125962  0.63587691  1
  O  O93  1  0.74437460  0.12617267  0.63423002  1
  O  O94  1  0.30916980  0.50131375  0.63859965  1
  O  O95  1  0.81537074  0.51953018  0.63397586  1
  O  O96  1  0.43244895  0.50954382  0.14418832  1
  O  O97  1  0.94375382  0.51931016  0.13622184  1
  O  O98  1  0.31439260  0.10858919  0.13527958  1
  O  O99  1  0.81197957  0.11399526  0.14266753  1
  O  O100  1  0.24309127  0.36282767  0.13616553  1
  O  O101  1  0.74205865  0.36265891  0.13682017  1
  O  O102  1  0.22780292  0.30195851  0.03107964  1
  O  O103  1  0.73144098  0.30506998  0.03106942  1
  O  O104  1  0.41587858  0.55479967  0.02924500  1
  O  O105  1  0.92395364  0.54757668  0.03156505  1
  O  O106  1  0.34241936  0.14623388  0.02994694  1
  O  O107  1  0.85470806  0.16754331  0.02934773  1
  O  O108  1  0.23080511  0.15697916  0.52952959  1
  O  O109  1  0.72846801  0.15339930  0.52905350  1
  O  O110  1  0.35485504  0.55131399  0.52600934  1
  O  O111  1  0.84308434  0.53987574  0.52853954  1
  O  O112  1  0.42627927  0.29708576  0.52935640  1
  O  O113  1  0.91791589  0.27596203  0.52756600  1
  O  O114  1  0.27689389  0.71299313  0.97454971  1
  O  O115  1  0.77188060  0.69260386  0.97085682  1
  O  O116  1  0.07195800  0.44760405  0.97614474  1
  O  O117  1  0.58386476  0.45709354  0.97694722  1
  O  O118  1  0.15017526  0.84968420  0.97158942  1
  O  O119  1  0.65928514  0.86055512  0.97017068  1
  O  O120  1  0.27113524  0.84965457  0.46937893  1
  O  O121  1  0.77559809  0.83673082  0.47236885  1
  O  O122  1  0.15777298  0.46019461  0.46697339  1
  O  O123  1  0.65185206  0.45365864  0.47049621  1
  O  O124  1  0.08660237  0.70451039  0.47456224  1
  O  O125  1  0.57410660  0.69715629  0.47460920  1
  O  O126  1  0.05800348  0.61636120  0.36037007  1
  O  O127  1  0.55693567  0.62546979  0.35784051  1
  O  O128  1  0.26053026  0.88540458  0.36385713  1
  O  O129  1  0.75411902  0.86325213  0.35444679  1
  O  O130  1  0.18486498  0.48748508  0.36136494  1
  O  O131  1  0.68568152  0.48278035  0.36551251  1
  O  O132  1  0.06000243  0.49273038  0.85873131  1
  O  O133  1  0.56105688  0.49937373  0.86303603  1
  O  O134  1  0.18498719  0.88738894  0.86654830  1
  O  O135  1  0.68579939  0.88302960  0.86458747  1
  O  O136  1  0.25236867  0.64313495  0.85680569  1
  O  O137  1  0.75892112  0.63791579  0.86509124  1
  O  O138  1  0.01732779  0.84437837  0.41443717  1
  O  O139  1  0.50875896  0.83943622  0.40715878  1
  O  O140  1  0.39955872  0.98196813  0.41208042  1
  O  O141  1  0.91127994  0.98749992  0.40666705  1
  O  O142  1  0.08658388  0.20747408  0.40935457  1
  O  O143  1  0.58900522  0.20152066  0.41166324  1
  O  O144  1  0.00918540  0.17807774  0.90774890  1
  O  O145  1  0.51680359  0.18255994  0.91245790  1
  O  O146  1  0.08873016  0.97710758  0.91196258  1
  O  O147  1  0.58886202  0.97149760  0.91243125  1
  O  O148  1  0.41009311  0.83941102  0.91088523  1
  O  O149  1  0.89947911  0.81692024  0.91287311  1
  O  O150  1  0.49158631  0.17944041  0.58947545  1
  O  O151  1  0.98765245  0.14782370  0.59236561  1
  O  O152  1  0.10300054  0.03282180  0.58730721  1
  O  O153  1  0.60284819  0.02775408  0.58696215  1
  O  O154  1  0.41999529  0.82703513  0.59176132  1
  O  O155  1  0.90916338  0.79858568  0.58602870  1
  O  O156  1  0.48793651  0.82621280  0.09286597  1
  O  O157  1  0.98932760  0.79937844  0.08929123  1
  O  O158  1  0.40859286  0.01944223  0.08689327  1
  O  O159  1  0.92209733  0.02486392  0.09435993  1
  O  O160  1  0.10156133  0.17968974  0.08931759  1
  O  O161  1  0.60237949  0.17373193  0.08764288  1
  O  O162  1  0.33778527  0.15760720  0.74018825  1
  O  O163  1  0.84312922  0.15277814  0.74566998  1
  O  O164  1  0.23269100  0.29736271  0.74448890  1
  O  O165  1  0.73916357  0.28864197  0.74157537  1
  O  O166  1  0.41388550  0.50837550  0.74895426  1
  O  O167  1  0.91578682  0.52393604  0.74774305  1
  O  O168  1  0.34040857  0.53051100  0.24595161  1
  O  O169  1  0.84417437  0.52031784  0.24079810  1
  O  O170  1  0.41535419  0.30657741  0.24796388  1
  O  O171  1  0.92216352  0.32101591  0.24553007  1
  O  O172  1  0.23900700  0.18318106  0.24162514  1
  O  O173  1  0.73727970  0.17116380  0.24546559  1
  O  O174  1  0.31079981  0.48388147  0.91790110  1
  O  O175  1  0.81744263  0.50118762  0.92493424  1
  O  O176  1  0.42353390  0.34145051  0.92339878  1
  O  O177  1  0.92227245  0.35779600  0.91785584  1
  O  O178  1  0.24543911  0.13487879  0.92738683  1
  O  O179  1  0.74588110  0.14148566  0.92127078  1
  O  O180  1  0.31806254  0.13469021  0.42466336  1
  O  O181  1  0.81221769  0.13915497  0.41779446  1
  O  O182  1  0.24407866  0.34956943  0.41976642  1
  O  O183  1  0.74593933  0.35617546  0.42607504  1
  O  O184  1  0.42074517  0.48518468  0.41856100  1
  O  O185  1  0.92283502  0.49931891  0.42341501  1
  O  O186  1  0.18156850  0.49431876  0.07801495  1
  O  O187  1  0.68279848  0.49062062  0.07726427  1
  O  O188  1  0.06888508  0.64440256  0.07506764  1
  O  O189  1  0.57132068  0.64660167  0.07975605  1
  O  O190  1  0.24914962  0.85939332  0.07516138  1
  O  O191  1  0.75187865  0.84424015  0.07254038  1
  O  O192  1  0.18358135  0.87803743  0.57764035  1
  O  O193  1  0.68274375  0.87073026  0.57712842  1
  O  O194  1  0.25056711  0.65587279  0.57227719  1
  O  O195  1  0.74990867  0.63873041  0.57433298  1
  O  O196  1  0.06952166  0.49520851  0.58038764  1
  O  O197  1  0.57014415  0.49401876  0.57387933  1
  O  O198  1  0.15716658  0.83651689  0.25590552  1
  O  O199  1  0.66086674  0.85279732  0.25446996  1
  O  O200  1  0.26314674  0.68841364  0.26077974  1
  O  O201  1  0.76554238  0.67807831  0.25599940  1
  O  O202  1  0.08085420  0.46384020  0.25673678  1
  O  O203  1  0.59294314  0.47606049  0.25753098  1
  O  O204  1  0.15929976  0.46773226  0.75461444  1
  O  O205  1  0.66565702  0.48086187  0.75462704  1
  O  O206  1  0.09278757  0.70960005  0.75763883  1
  O  O207  1  0.59065445  0.70879364  0.75621591  1
  O  O208  1  0.26434698  0.84514590  0.75651822  1
  O  O209  1  0.76809438  0.83944442  0.76128047  1
