# generated using pymatgen
data_Na4La2Ti2Si3(SO8)3
_symmetry_space_group_name_H-M   'P 1'
_cell_length_a   9.32433390
_cell_length_b   9.37746555
_cell_length_c   23.28792940
_cell_angle_alpha   90.52845126
_cell_angle_beta   89.65132935
_cell_angle_gamma   119.67045832
_symmetry_Int_Tables_number   1
_chemical_formula_structural   Na4La2Ti2Si3(SO8)3
_chemical_formula_sum   'Na12 La6 Ti6 Si9 S9 O72'
_cell_volume   1769.20542198
_cell_formula_units_Z   3
loop_
 _symmetry_equiv_pos_site_id
 _symmetry_equiv_pos_as_xyz
  1  'x, y, z'
loop_
 _atom_site_type_symbol
 _atom_site_label
 _atom_site_symmetry_multiplicity
 _atom_site_fract_x
 _atom_site_fract_y
 _atom_site_fract_z
 _atom_site_occupancy
  Na  Na0  1  0.97436188  0.63966283  0.25162979  1
  Na  Na1  1  0.98967335  0.35294264  0.74459549  1
  Na  Na2  1  0.65199119  0.97438604  0.59170734  1
  Na  Na3  1  0.66319275  0.69561652  0.07743522  1
  Na  Na4  1  0.33559946  0.30683159  0.90575315  1
  Na  Na5  1  0.31551314  0.01671713  0.41678327  1
  Na  Na6  1  0.00852478  0.98352466  0.50867719  1
  Na  Na7  1  0.98674721  0.98859382  0.00232376  1
  Na  Na8  1  0.64632942  0.30201901  0.82490460  1
  Na  Na9  1  0.65533709  0.34150157  0.34006215  1
  Na  Na10  1  0.32433463  0.66669724  0.17470655  1
  Na  Na11  1  0.30229405  0.66966320  0.66302492  1
  La  La12  1  0.98888277  0.99570913  0.35248880  1
  La  La13  1  0.98695765  0.97907797  0.84924334  1
  La  La14  1  0.65310887  0.33555106  0.68376806  1
  La  La15  1  0.65251297  0.31787605  0.18667424  1
  La  La16  1  0.32323816  0.67816316  0.01581440  1
  La  La17  1  0.31233681  0.64964072  0.51846993  1
  Ti  Ti18  1  0.02635213  0.04875236  0.64747809  1
  Ti  Ti19  1  0.98386663  0.95716627  0.15659629  1
  Ti  Ti20  1  0.68534329  0.36932288  0.98093879  1
  Ti  Ti21  1  0.68552001  0.33821283  0.49126430  1
  Ti  Ti22  1  0.31589889  0.66761442  0.31100701  1
  Ti  Ti23  1  0.38485766  0.67384970  0.80505199  1
  Si  Si24  1  0.28437392  0.97777688  0.25480123  1
  Si  Si25  1  0.67952482  0.70003550  0.25189015  1
  Si  Si26  1  0.29395837  0.30514428  0.75736198  1
  Si  Si27  1  0.71285494  0.99654773  0.74521289  1
  Si  Si28  1  0.96073418  0.32277014  0.59074964  1
  Si  Si29  1  0.36555556  0.04960348  0.58048865  1
  Si  Si30  1  0.95752813  0.63838217  0.08841009  1
  Si  Si31  1  0.62859685  0.65792136  0.92085866  1
  Si  Si32  1  0.01851201  0.64351238  0.41517307  1
  S  S33  1  0.02331316  0.31045081  0.24778421  1
  S  S34  1  0.02819550  0.70598589  0.74824645  1
  S  S35  1  0.69267852  0.64487935  0.57816577  1
  S  S36  1  0.69050257  0.04541389  0.07856966  1
  S  S37  1  0.36370075  0.31873343  0.07668057  1
  S  S38  1  0.01456806  0.36786519  0.91699113  1
  S  S39  1  0.35887609  0.98695493  0.91435321  1
  S  S40  1  0.60833714  0.96972380  0.41614290  1
  S  S41  1  0.35484377  0.37806430  0.41146270  1
  O  O42  1  0.21930754  0.00748661  0.31440248  1
  O  O43  1  0.81063122  0.78853661  0.30167435  1
  O  O44  1  0.00228870  0.22547273  0.30232844  1
  O  O45  1  0.21022951  0.21585792  0.81642685  1
  O  O46  1  0.00792778  0.77150106  0.80393855  1
  O  O47  1  0.81080867  0.01697044  0.80353522  1
  O  O48  1  0.81482581  0.97675517  0.68890995  1
  O  O49  1  0.16559723  0.20476358  0.70036362  1
  O  O50  1  0.03632545  0.80721392  0.69953832  1
  O  O51  1  0.79169501  0.82486568  0.19192390  1
  O  O52  1  0.03055990  0.21460182  0.19771696  1
  O  O53  1  0.14287353  0.95160901  0.20059132  1
  O  O54  1  0.89028262  0.34324691  0.65052360  1
  O  O55  1  0.47964644  0.12110548  0.63593498  1
  O  O56  1  0.66707593  0.56206957  0.63331263  1
  O  O57  1  0.87203925  0.54066459  0.14520515  1
  O  O58  1  0.66793953  0.10967976  0.13389882  1
  O  O59  1  0.46122349  0.34148443  0.12857659  1
  O  O60  1  0.46034070  0.31029313  0.02480903  1
  O  O61  1  0.82572706  0.52826541  0.03060174  1
  O  O62  1  0.69019896  0.14530464  0.02982944  1
  O  O63  1  0.47693007  0.17752406  0.52390826  1
  O  O64  1  0.69220630  0.53382863  0.52989035  1
  O  O65  1  0.82690873  0.30780307  0.53639696  1
  O  O66  1  0.53633197  0.65745456  0.97914263  1
  O  O67  1  0.11942090  0.45266543  0.96738494  1
  O  O68  1  0.33625985  0.89781733  0.96872033  1
  O  O69  1  0.54794162  0.88319990  0.47059157  1
  O  O70  1  0.34539835  0.45220240  0.46665117  1
  O  O71  1  0.14770642  0.69077064  0.46618412  1
  O  O72  1  0.13207824  0.62944228  0.35619697  1
  O  O73  1  0.50009991  0.86889277  0.36687684  1
  O  O74  1  0.35340441  0.47696761  0.36203915  1
  O  O75  1  0.08342077  0.46051395  0.86428254  1
  O  O76  1  0.36380636  0.89172624  0.86466687  1
  O  O77  1  0.50318748  0.63589078  0.86364754  1
  O  O78  1  0.99816657  0.80542446  0.41033477  1
  O  O79  1  0.78118131  0.00817809  0.40940074  1
  O  O80  1  0.20848278  0.20814911  0.41111993  1
  O  O81  1  0.99568692  0.20195375  0.91608320  1
  O  O82  1  0.21736879  0.01994276  0.91285813  1
  O  O83  1  0.81479099  0.80523821  0.92006846  1
  O  O84  1  0.95524034  0.14018038  0.58983962  1
  O  O85  1  0.18280368  0.03997401  0.59344177  1
  O  O86  1  0.84949168  0.80083747  0.57671340  1
  O  O87  1  0.95704813  0.81895209  0.09212357  1
  O  O88  1  0.84542048  0.03499289  0.08013735  1
  O  O89  1  0.20173582  0.16812805  0.07895736  1
  O  O90  1  0.68048979  0.14990076  0.74454837  1
  O  O91  1  0.48071848  0.34486571  0.75367224  1
  O  O92  1  0.88607744  0.53573127  0.74511395  1
  O  O93  1  0.66534855  0.52227747  0.24400731  1
  O  O94  1  0.88672132  0.34807527  0.24331563  1
  O  O95  1  0.46898197  0.11662877  0.24226361  1
  O  O96  1  0.63418768  0.47697575  0.92664578  1
  O  O97  1  0.84638957  0.35375329  0.92818201  1
  O  O98  1  0.51348440  0.15155448  0.91765439  1
  O  O99  1  0.60570348  0.12895498  0.41780213  1
  O  O100  1  0.50534294  0.36267011  0.41108673  1
  O  O101  1  0.84065288  0.47076870  0.42847805  1
  O  O102  1  0.34692161  0.46844468  0.07347127  1
  O  O103  1  0.14288239  0.67353644  0.08151200  1
  O  O104  1  0.54955949  0.87167284  0.07502100  1
  O  O105  1  0.35072404  0.87042547  0.57275330  1
  O  O106  1  0.55511876  0.67919898  0.57054845  1
  O  O107  1  0.14862636  0.46440722  0.58372254  1
  O  O108  1  0.27685188  0.79428456  0.25738559  1
  O  O109  1  0.50298307  0.69674646  0.26050463  1
  O  O110  1  0.18177661  0.47463591  0.24990369  1
  O  O111  1  0.29770335  0.48924060  0.76057066  1
  O  O112  1  0.18413382  0.69380812  0.75135205  1
  O  O113  1  0.52912778  0.81618446  0.75504248  1
