# generated using pymatgen
data_Na2Ca3Ge(SO4)6
_symmetry_space_group_name_H-M   'P 1'
_cell_length_a   9.02380581
_cell_length_b   9.02380550
_cell_length_c   23.50657525
_cell_angle_alpha   90.00000000
_cell_angle_beta   90.00000000
_cell_angle_gamma   120.00000111
_symmetry_Int_Tables_number   1
_chemical_formula_structural   Na2Ca3Ge(SO4)6
_chemical_formula_sum   'Na6 Ca9 Ge3 S18 O72'
_cell_volume   1657.67525114
_cell_formula_units_Z   3
loop_
 _symmetry_equiv_pos_site_id
 _symmetry_equiv_pos_as_xyz
  1  'x, y, z'
loop_
 _atom_site_type_symbol
 _atom_site_label
 _atom_site_symmetry_multiplicity
 _atom_site_fract_x
 _atom_site_fract_y
 _atom_site_fract_z
 _atom_site_occupancy
  Na  Na0  1  0.00000000  0.00000000  0.50047201  1
  Na  Na1  1  0.00000000  0.00000000  0.99762966  1
  Na  Na2  1  0.66666700  0.33333300  0.83093320  1
  Na  Na3  1  0.66666700  0.33333300  0.33575102  1
  Na  Na4  1  0.33333300  0.66666700  0.16867711  1
  Na  Na5  1  0.33333300  0.66666700  0.65358063  1
  Ca  Ca6  1  0.00000000  0.00000000  0.64247065  1
  Ca  Ca7  1  0.00000000  0.00000000  0.14531148  1
  Ca  Ca8  1  0.66666700  0.33333300  0.68181101  1
  Ca  Ca9  1  0.66666700  0.33333300  0.18673547  1
  Ca  Ca10  1  0.66666700  0.33333300  0.98137762  1
  Ca  Ca11  1  0.66666700  0.33333300  0.48085863  1
  Ca  Ca12  1  0.33333300  0.66666700  0.51035692  1
  Ca  Ca13  1  0.33333300  0.66666700  0.31841605  1
  Ca  Ca14  1  0.33333300  0.66666700  0.81371993  1
  Ge  Ge15  1  0.00000000  0.00000000  0.34985877  1
  Ge  Ge16  1  0.00000000  0.00000000  0.84613288  1
  Ge  Ge17  1  0.33333300  0.66666700  0.01583403  1
  S  S18  1  0.28833919  0.00827811  0.25493430  1
  S  S19  1  0.71993892  0.71166081  0.25493430  1
  S  S20  1  0.99172189  0.28006108  0.25493430  1
  S  S21  1  0.28937991  0.27881206  0.75627469  1
  S  S22  1  0.98943215  0.71062009  0.75627469  1
  S  S23  1  0.72118794  0.01056785  0.75627469  1
  S  S24  1  0.97443848  0.34058098  0.58230765  1
  S  S25  1  0.36614350  0.02556152  0.58230765  1
  S  S26  1  0.65941902  0.63385650  0.58230765  1
  S  S27  1  0.98770786  0.63556182  0.07687221  1
  S  S28  1  0.64785495  0.01229214  0.07687221  1
  S  S29  1  0.36443818  0.35214505  0.07687221  1
  S  S30  1  0.64069729  0.68820725  0.91729227  1
  S  S31  1  0.04750896  0.35930271  0.91729227  1
  S  S32  1  0.31179275  0.95249104  0.91729227  1
  S  S33  1  0.65924729  0.97533258  0.41001039  1
  S  S34  1  0.31608429  0.34075271  0.41001039  1
  S  S35  1  0.02466742  0.68391571  0.41001039  1
  O  O36  1  0.19616398  0.02264365  0.30765026  1
  O  O37  1  0.82647966  0.80383602  0.30765026  1
  O  O38  1  0.97735635  0.17352034  0.30765026  1
  O  O39  1  0.19988906  0.17196226  0.81283897  1
  O  O40  1  0.97207320  0.80011094  0.81283897  1
  O  O41  1  0.82803774  0.02792680  0.81283897  1
  O  O42  1  0.81221003  0.00446551  0.70618904  1
  O  O43  1  0.19225548  0.18778997  0.70618904  1
  O  O44  1  -0.00446551  0.80774452  0.70618904  1
  O  O45  1  0.80539762  0.80487273  0.20257755  1
  O  O46  1  -0.00052489  0.19460238  0.20257755  1
  O  O47  1  0.19512727  0.00052489  0.20257755  1
  O  O48  1  0.88858296  0.34284890  0.63579516  1
  O  O49  1  0.45426694  0.11141704  0.63579516  1
  O  O50  1  0.65715110  0.54573306  0.63579516  1
  O  O51  1  0.91580542  0.53960548  0.13000351  1
  O  O52  1  0.62380106  0.08419458  0.13000351  1
  O  O53  1  0.46039452  0.37619894  0.13000351  1
  O  O54  1  0.44888418  0.33328111  0.02663483  1
  O  O55  1  0.88439794  0.55111582  0.02663483  1
  O  O56  1  0.66671889  0.11560206  0.02663483  1
  O  O57  1  0.45998941  0.12118412  0.53154387  1
  O  O58  1  0.66119571  0.54001059  0.53154387  1
  O  O59  1  0.87881588  0.33880429  0.53154387  1
  O  O60  1  0.55745195  0.71241292  0.97124445  1
  O  O61  1  0.15495997  0.44254805  0.97124445  1
  O  O62  1  0.28758708  0.84504003  0.97124445  1
  O  O63  1  0.58592542  0.87681323  0.46267752  1
  O  O64  1  0.29088681  0.41407458  0.46267752  1
  O  O65  1  0.12318677  0.70911319  0.46267752  1
  O  O66  1  0.10886497  0.66386135  0.35970458  1
  O  O67  1  0.55499538  0.89113503  0.35970458  1
  O  O68  1  0.33613865  0.44500462  0.35970458  1
  O  O69  1  0.12922943  0.46086250  0.86689915  1
  O  O70  1  0.33163207  0.87077057  0.86689915  1
  O  O71  1  0.53913750  0.66836793  0.86689915  1
  O  O72  1  0.01850504  0.85153123  0.40435740  1
  O  O73  1  0.83302619  0.98149496  0.40435740  1
  O  O74  1  0.14846877  0.16697381  0.40435740  1
  O  O75  1  0.03519307  0.18451253  0.91409509  1
  O  O76  1  0.14931947  0.96480693  0.91409509  1
  O  O77  1  0.81548747  0.85068053  0.91409509  1
  O  O78  1  0.99260462  0.18540093  0.58022709  1
  O  O79  1  0.19279631  0.00739538  0.58022709  1
  O  O80  1  0.81459907  0.80720369  0.58022709  1
  O  O81  1  0.02332516  0.81457230  0.08003984  1
  O  O82  1  0.79124714  0.97667484  0.08003984  1
  O  O83  1  0.18542770  0.20875286  0.08003984  1
  O  O84  1  0.70376443  0.16421433  0.75923788  1
  O  O85  1  0.46045090  0.29623557  0.75923788  1
  O  O86  1  0.83578567  0.53954910  0.75923788  1
  O  O87  1  0.70512665  0.54067389  0.25536806  1
  O  O88  1  0.83554824  0.29487335  0.25536806  1
  O  O89  1  0.45932611  0.16445176  0.25536806  1
  O  O90  1  0.66446831  0.53828896  0.92327137  1
  O  O91  1  0.87382165  0.33553169  0.92327137  1
  O  O92  1  0.46171104  0.12617835  0.92327137  1
  O  O93  1  0.69364901  0.15283701  0.41365365  1
  O  O94  1  0.45918900  0.30635099  0.41365365  1
  O  O95  1  0.84716299  0.54081100  0.41365365  1
  O  O96  1  0.35938876  0.52173896  0.07088327  1
  O  O97  1  0.16234921  0.64061124  0.07088327  1
  O  O98  1  0.47826104  0.83765079  0.07088327  1
  O  O99  1  0.34777066  0.85196556  0.58216100  1
  O  O100  1  0.50419390  0.65222934  0.58216100  1
  O  O101  1  0.14803444  0.49580610  0.58216100  1
  O  O102  1  0.30275620  0.85294765  0.25802499  1
  O  O103  1  0.55019045  0.69724380  0.25802499  1
  O  O104  1  0.14705235  0.44980955  0.25802499  1
  O  O105  1  0.29740961  0.44450278  0.76058759  1
  O  O106  1  0.14709217  0.70259039  0.76058759  1
  O  O107  1  0.55549722  0.85290783  0.76058759  1
