# generated using pymatgen
data_MgMnCoO4
_symmetry_space_group_name_H-M   'P 1'
_cell_length_a   5.22600290
_cell_length_b   2.95808877
_cell_length_c   5.20261079
_cell_angle_alpha   90.00002690
_cell_angle_beta   71.01971067
_cell_angle_gamma   90.00000837
_symmetry_Int_Tables_number   1
_chemical_formula_structural   MgMnCoO4
_chemical_formula_sum   'Mg1 Mn1 Co1 O4'
_cell_volume   76.05428134
_cell_formula_units_Z   1
loop_
 _symmetry_equiv_pos_site_id
 _symmetry_equiv_pos_as_xyz
  1  'x, y, z'
loop_
 _atom_site_type_symbol
 _atom_site_label
 _atom_site_symmetry_multiplicity
 _atom_site_fract_x
 _atom_site_fract_y
 _atom_site_fract_z
 _atom_site_occupancy
  Mg  Mg0  1  0.00000000  0.00000000  0.00000000  1
  Mn  Mn1  1  0.50000000  0.50000000  0.00000000  1
  Co  Co2  1  0.50000000  0.00000000  0.50000000  1
  O  O3  1  0.71030300  0.00000000  0.78869900  1
  O  O4  1  0.73303000  0.50000000  0.22104400  1
  O  O5  1  0.26697000  0.50000000  0.77895600  1
  O  O6  1  0.28969700  0.00000000  0.21130100  1
