# generated using pymatgen
data_Na3Ga2(PO4)3
_symmetry_space_group_name_H-M   'P 1'
_cell_length_a   15.14903750
_cell_length_b   8.75510475
_cell_length_c   8.75519441
_cell_angle_alpha   90.00000000
_cell_angle_beta   124.86214606
_cell_angle_gamma   90.00000000
_symmetry_Int_Tables_number   1
_chemical_formula_structural   Na3Ga2(PO4)3
_chemical_formula_sum   'Na12 Ga8 P12 O48'
_cell_volume   952.81039531
_cell_formula_units_Z   4
loop_
 _symmetry_equiv_pos_site_id
 _symmetry_equiv_pos_as_xyz
  1  'x, y, z'
loop_
 _atom_site_type_symbol
 _atom_site_label
 _atom_site_symmetry_multiplicity
 _atom_site_fract_x
 _atom_site_fract_y
 _atom_site_fract_z
 _atom_site_occupancy
  Na  Na0  1  0.24657657  0.77166975  0.99824677  1
  Na  Na1  1  0.74657657  0.72833025  0.49824677  1
  Na  Na2  1  0.74657657  0.27166975  0.99824677  1
  Na  Na3  1  0.24657657  0.22833025  0.49824677  1
  Na  Na4  1  0.50168224  0.11088400  0.74887247  1
  Na  Na5  1  0.50168224  0.88911600  0.24887247  1
  Na  Na6  1  0.00168224  0.61088400  0.74887247  1
  Na  Na7  1  0.00168224  0.38911600  0.24887247  1
  Na  Na8  1  0.81090543  0.93603470  0.21755294  1
  Na  Na9  1  0.81090543  0.06396530  0.71755294  1
  Na  Na10  1  0.31090543  0.43603470  0.21755294  1
  Na  Na11  1  0.31090543  0.56396530  0.71755294  1
  Ga  Ga12  1  0.10281392  0.75785453  0.55538334  1
  Ga  Ga13  1  0.89793588  0.74941212  0.94217583  1
  Ga  Ga14  1  0.89793588  0.25058788  0.44217583  1
  Ga  Ga15  1  0.10281392  0.24214547  0.05538334  1
  Ga  Ga16  1  0.60281392  0.25785453  0.55538334  1
  Ga  Ga17  1  0.39793588  0.24941212  0.94217583  1
  Ga  Ga18  1  0.39793588  0.75058788  0.44217583  1
  Ga  Ga19  1  0.60281392  0.74214547  0.05538334  1
  P  P20  1  0.00141046  0.95573826  0.74677760  1
  P  P21  1  0.00141046  0.04426174  0.24677760  1
  P  P22  1  0.50141046  0.45573826  0.74677760  1
  P  P23  1  0.50141046  0.54426174  0.24677760  1
  P  P24  1  0.35516775  0.89593239  0.75462388  1
  P  P25  1  0.64788307  0.89299181  0.74527059  1
  P  P26  1  0.64788307  0.10700819  0.24527059  1
  P  P27  1  0.35516775  0.10406761  0.25462388  1
  P  P28  1  0.85516775  0.39593239  0.75462388  1
  P  P29  1  0.14788307  0.39299181  0.74527059  1
  P  P30  1  0.14788307  0.60700819  0.24527059  1
  P  P31  1  0.85516775  0.60406761  0.25462388  1
  O  O32  1  0.15597127  0.57126726  0.73983389  1
  O  O33  1  0.84985338  0.57196858  0.76098756  1
  O  O34  1  0.84985338  0.42803142  0.26098756  1
  O  O35  1  0.15597127  0.42873274  0.23983389  1
  O  O36  1  0.65597127  0.07126726  0.73983389  1
  O  O37  1  0.34985338  0.07196858  0.76098756  1
  O  O38  1  0.34985338  0.92803142  0.26098756  1
  O  O39  1  0.65597127  0.92873274  0.23983389  1
  O  O40  1  0.42820130  0.55135182  0.56758027  1
  O  O41  1  0.56768004  0.55614679  0.92059672  1
  O  O42  1  0.56768004  0.44385321  0.42059672  1
  O  O43  1  0.42820130  0.44864818  0.06758027  1
  O  O44  1  0.92820130  0.05135182  0.56758027  1
  O  O45  1  0.06768004  0.05614679  0.92059672  1
  O  O46  1  0.06768004  0.94385321  0.42059672  1
  O  O47  1  0.92820130  0.94864818  0.06758027  1
  O  O48  1  0.25849158  0.81783241  0.73924797  1
  O  O49  1  0.74581486  0.82536651  0.75683926  1
  O  O50  1  0.74581486  0.17463349  0.25683926  1
  O  O51  1  0.25849158  0.18216759  0.23924797  1
  O  O52  1  0.75849158  0.31783241  0.73924797  1
  O  O53  1  0.24581486  0.32536651  0.75683926  1
  O  O54  1  0.24581486  0.67463349  0.25683926  1
  O  O55  1  0.75849158  0.68216759  0.23924797  1
  O  O56  1  0.35888753  0.85906810  0.58632220  1
  O  O57  1  0.64819337  0.86290245  0.92062591  1
  O  O58  1  0.64819337  0.13709755  0.42062591  1
  O  O59  1  0.35888753  0.14093190  0.08632220  1
  O  O60  1  0.85888753  0.35906810  0.58632220  1
  O  O61  1  0.14819337  0.36290245  0.92062591  1
  O  O62  1  0.14819337  0.63709755  0.42062591  1
  O  O63  1  0.85888753  0.64093190  0.08632220  1
  O  O64  1  0.45699053  0.83221144  0.93680729  1
  O  O65  1  0.54512741  0.83255746  0.56609643  1
  O  O66  1  0.54512741  0.16744254  0.06609643  1
  O  O67  1  0.45699053  0.16778856  0.43680729  1
  O  O68  1  0.95699053  0.33221144  0.93680729  1
  O  O69  1  0.04512741  0.33255746  0.56609643  1
  O  O70  1  0.04512741  0.66744254  0.06609643  1
  O  O71  1  0.95699053  0.66778856  0.43680729  1
  O  O72  1  0.08007494  0.84770138  0.74017336  1
  O  O73  1  0.92033845  0.85177325  0.75598572  1
  O  O74  1  0.92033845  0.14822675  0.25598572  1
  O  O75  1  0.08007494  0.15229862  0.24017336  1
  O  O76  1  0.58007494  0.34770138  0.74017336  1
  O  O77  1  0.42033845  0.35177325  0.75598572  1
  O  O78  1  0.42033845  0.64822675  0.25598572  1
  O  O79  1  0.58007494  0.65229862  0.24017336  1
