# generated using pymatgen
data_Na4La3NbSi3(SO8)3
_symmetry_space_group_name_H-M   'P 1'
_cell_length_a   9.48521514
_cell_length_b   9.48979232
_cell_length_c   24.43723372
_cell_angle_alpha   89.97776870
_cell_angle_beta   89.97305401
_cell_angle_gamma   119.91241544
_symmetry_Int_Tables_number   1
_chemical_formula_structural   Na4La3NbSi3(SO8)3
_chemical_formula_sum   'Na12 La9 Nb3 Si9 S9 O72'
_cell_volume   1906.64141917
_cell_formula_units_Z   3
loop_
 _symmetry_equiv_pos_site_id
 _symmetry_equiv_pos_as_xyz
  1  'x, y, z'
loop_
 _atom_site_type_symbol
 _atom_site_label
 _atom_site_symmetry_multiplicity
 _atom_site_fract_x
 _atom_site_fract_y
 _atom_site_fract_z
 _atom_site_occupancy
  Na  Na0  1  0.64440107  0.00328844  0.25318961  1
  Na  Na1  1  0.35703475  0.35294929  0.25308472  1
  Na  Na2  1  0.99844096  0.64226915  0.25408821  1
  Na  Na3  1  0.30985242  0.34579592  0.58383765  1
  Na  Na4  1  0.65962927  0.96262610  0.58317695  1
  Na  Na5  1  0.29250033  0.95789203  0.08367229  1
  Na  Na6  1  0.99931037  0.99025970  0.50357284  1
  Na  Na7  1  0.98466699  0.99877334  0.99208331  1
  Na  Na8  1  0.66568495  0.33239236  0.82770495  1
  Na  Na9  1  0.66744689  0.33371159  0.32971633  1
  Na  Na10  1  0.33265653  0.65490524  0.18232354  1
  Na  Na11  1  0.31826159  0.66492370  0.66448895  1
  La  La12  1  0.00187222  0.00137871  0.34795650  1
  La  La13  1  0.00239189  0.00119521  0.85366754  1
  La  La14  1  0.00112708  0.98784353  0.64470635  1
  La  La15  1  0.99136639  0.00111668  0.15181552  1
  La  La16  1  0.67199390  0.33917486  0.68342010  1
  La  La17  1  0.67286103  0.33926167  0.18400563  1
  La  La18  1  0.33434209  0.65876992  0.01319864  1
  La  La19  1  0.32138943  0.66603300  0.51678783  1
  La  La20  1  0.33342905  0.66857010  0.32153916  1
  Nb  Nb21  1  0.66774847  0.33393025  0.96900018  1
  Nb  Nb22  1  0.67202361  0.33721065  0.49074437  1
  Nb  Nb23  1  0.33438492  0.66742495  0.82813510  1
  Si  Si24  1  0.30093705  0.99638065  0.24536408  1
  Si  Si25  1  0.69498061  0.69920333  0.25095028  1
  Si  Si26  1  0.00413427  0.30513236  0.25070182  1
  Si  Si27  1  0.95858796  0.32599897  0.58290011  1
  Si  Si28  1  0.37927285  0.04847926  0.58214253  1
  Si  Si29  1  0.66672607  0.62721386  0.58077272  1
  Si  Si30  1  0.62537960  0.65754887  0.91749089  1
  Si  Si31  1  0.03295819  0.37571211  0.91741984  1
  Si  Si32  1  0.34210723  0.96490565  0.92110632  1
  S  S33  1  0.30402161  0.32476432  0.75313189  1
  S  S34  1  0.02159511  0.69604055  0.75543073  1
  S  S35  1  0.67564147  0.97930354  0.75343975  1
  S  S36  1  0.95450781  0.62790413  0.07581362  1
  S  S37  1  0.66901905  0.05228408  0.07564111  1
  S  S38  1  0.37949591  0.32372601  0.07640468  1
  S  S39  1  0.64395449  0.99453379  0.42143872  1
  S  S40  1  0.35189127  0.35688692  0.42126884  1
  S  S41  1  0.00210380  0.64870235  0.41872452  1
  O  O42  1  0.20905497  0.02890326  0.29598864  1
  O  O43  1  0.81284270  0.78319681  0.30324243  1
  O  O44  1  0.96863083  0.18692570  0.30310359  1
  O  O45  1  0.21236167  0.21483006  0.79839634  1
  O  O46  1  0.00265188  0.78385234  0.80158705  1
  O  O47  1  0.78563412  0.99680206  0.79854963  1
  O  O48  1  0.74285016  0.96033667  0.70029869  1
  O  O49  1  0.21850228  0.25578694  0.70003879  1
  O  O50  1  0.03882626  0.78491522  0.70317982  1
  O  O51  1  0.77504669  0.81253923  0.19634319  1
  O  O52  1  0.03605058  0.22471427  0.19595326  1
  O  O53  1  0.19971130  0.96880665  0.18741929  1
  O  O54  1  0.87909817  0.35144322  0.63690130  1
  O  O55  1  0.48321867  0.12637127  0.63658377  1
  O  O56  1  0.63544987  0.51882796  0.63455679  1
  O  O57  1  0.88241134  0.55153062  0.12940470  1
  O  O58  1  0.66546751  0.12493213  0.12926668  1
  O  O59  1  0.45649894  0.32924206  0.12990895  1
  O  O60  1  0.48681879  0.32757902  0.03059525  1
  O  O61  1  0.85215981  0.52292120  0.03012956  1
  O  O62  1  0.67200026  0.15942463  0.02993389  1
  O  O63  1  0.49289437  0.17198106  0.52859698  1
  O  O64  1  0.68134246  0.51546327  0.52769627  1
  O  O65  1  0.83787741  0.32399780  0.52893496  1
  O  O66  1  0.55110826  0.68241742  0.97221960  1
  O  O67  1  0.13107732  0.45172891  0.97205635  1
  O  O68  1  0.32104286  0.87489824  0.97804808  1
  O  O69  1  0.55361447  0.88955777  0.46846245  1
  O  O70  1  0.33650986  0.44641213  0.46840483  1
  O  O71  1  0.11102961  0.66340459  0.46424734  1
  O  O72  1  0.07208511  0.63204738  0.36602625  1
  O  O73  1  0.55317414  0.92125672  0.36954680  1
  O  O74  1  0.36696331  0.44694370  0.36940204  1
  O  O75  1  0.14388418  0.50773125  0.86503423  1
  O  O76  1  0.36438869  0.85211841  0.86910755  1
  O  O77  1  0.49177863  0.63377684  0.86523915  1
  O  O78  1  0.98253838  0.79283455  0.41909990  1
  O  O79  1  0.80771778  0.01337151  0.42002981  1
  O  O80  1  0.20777453  0.19232332  0.41998376  1
  O  O81  1  0.99173850  0.19444704  0.90560728  1
  O  O82  1  0.20241005  0.00486790  0.90663853  1
  O  O83  1  0.80571897  0.79788423  0.90494575  1
  O  O84  1  0.94983662  0.14854484  0.58187158  1
  O  O85  1  0.20915129  0.05395448  0.58114854  1
  O  O86  1  0.82904226  0.80724503  0.58113609  1
  O  O87  1  0.97049204  0.79229141  0.07235328  1
  O  O88  1  0.81267197  0.03155615  0.07202479  1
  O  O89  1  0.22201538  0.16740935  0.07277094  1
  O  O90  1  0.65386371  0.12375680  0.75258895  1
  O  O91  1  0.47048061  0.34681539  0.75263547  1
  O  O92  1  0.87816527  0.52987287  0.75369932  1
  O  O93  1  0.66927024  0.51521155  0.24644689  1
  O  O94  1  0.84656079  0.33225470  0.24643954  1
  O  O95  1  0.48634047  0.15379910  0.24408178  1
  O  O96  1  0.63015388  0.48018052  0.92667879  1
  O  O97  1  0.85017672  0.37025564  0.92628488  1
  O  O98  1  0.51999165  0.14949822  0.92769057  1
  O  O99  1  0.65554303  0.15807510  0.42754009  1
  O  O100  1  0.50415014  0.34603719  0.42713083  1
  O  O101  1  0.84057719  0.49620241  0.42618305  1
  O  O102  1  0.35335254  0.46439425  0.07530862  1
  O  O103  1  0.12229724  0.65111466  0.07562019  1
  O  O104  1  0.51426818  0.89302100  0.07454567  1
  O  O105  1  0.36644256  0.87295521  0.57374886  1
  O  O106  1  0.50690141  0.64630564  0.57168284  1
  O  O107  1  0.14624143  0.46988751  0.57569173  1
  O  O108  1  0.31647960  0.83231396  0.25516683  1
  O  O109  1  0.51292751  0.67963773  0.25755333  1
  O  O110  1  0.16727009  0.48587894  0.25756281  1
  O  O111  1  0.31442430  0.48786984  0.76187863  1
  O  O112  1  0.17485009  0.68565825  0.76300752  1
  O  O113  1  0.51137654  0.82763880  0.76275840  1
