# generated using pymatgen
data_Na2Hf4Mg4SiS11O48
_symmetry_space_group_name_H-M   'P 1'
_cell_length_a   17.58819718
_cell_length_b   8.80288177
_cell_length_c   22.85485004
_cell_angle_alpha   89.90824121
_cell_angle_beta   89.98222369
_cell_angle_gamma   119.98619000
_symmetry_Int_Tables_number   1
_chemical_formula_structural   Na2Hf4Mg4SiS11O48
_chemical_formula_sum   'Na6 Hf12 Mg12 Si3 S33 O144'
_cell_volume   3064.88869733
_cell_formula_units_Z   3
loop_
 _symmetry_equiv_pos_site_id
 _symmetry_equiv_pos_as_xyz
  1  'x, y, z'
loop_
 _atom_site_type_symbol
 _atom_site_label
 _atom_site_symmetry_multiplicity
 _atom_site_fract_x
 _atom_site_fract_y
 _atom_site_fract_z
 _atom_site_occupancy
  Na  Na0  1  0.99588934  0.98400322  0.49121549  1
  Na  Na1  1  0.49830361  0.00365986  0.99975168  1
  Na  Na2  1  0.33203536  0.32592600  0.83719123  1
  Na  Na3  1  0.84172066  0.34310915  0.83194749  1
  Na  Na4  1  0.33772669  0.33248047  0.32990211  1
  Na  Na5  1  0.84084114  0.34262657  0.34114954  1
  Hf  Hf6  1  0.49974674  0.00839482  0.35602812  1
  Hf  Hf7  1  0.49683108  0.00523658  0.85465695  1
  Hf  Hf8  1  0.99988020  0.99598718  0.64879773  1
  Hf  Hf9  1  0.50031080  0.00189971  0.63964350  1
  Hf  Hf10  1  0.00044513  0.00110441  0.14498906  1
  Hf  Hf11  1  0.50046106  0.00909175  0.14929120  1
  Hf  Hf12  1  0.16329685  0.66457988  0.01911686  1
  Hf  Hf13  1  0.66437234  0.65535205  0.02191836  1
  Hf  Hf14  1  0.16054594  0.66605163  0.52086864  1
  Hf  Hf15  1  0.15840244  0.66158112  0.31294080  1
  Hf  Hf16  1  0.66648492  0.66247142  0.31172365  1
  Hf  Hf17  1  0.66444594  0.65979220  0.81156868  1
  Mg  Mg18  1  0.99798721  0.99221350  0.35599202  1
  Mg  Mg19  1  0.00403446  0.00315677  0.85471648  1
  Mg  Mg20  1  0.33135739  0.33154458  0.68399135  1
  Mg  Mg21  1  0.83570423  0.33758989  0.68159010  1
  Mg  Mg22  1  0.33552174  0.33114394  0.18639499  1
  Mg  Mg23  1  0.83481974  0.33477118  0.18534446  1
  Mg  Mg24  1  0.33344076  0.32840944  0.97909447  1
  Mg  Mg25  1  0.83807535  0.33800612  0.98160421  1
  Mg  Mg26  1  0.33604964  0.33772646  0.48271089  1
  Mg  Mg27  1  0.83581032  0.33728654  0.47978758  1
  Mg  Mg28  1  0.66891973  0.67154559  0.52264894  1
  Mg  Mg29  1  0.16190266  0.66284848  0.81046176  1
  Si  Si30  1  0.49472617  0.29518622  0.25090617  1
  Si  Si31  1  0.51555548  0.37570199  0.91698247  1
  Si  Si32  1  0.01242781  0.66619582  0.41729868  1
  S  S33  1  0.14515451  0.00629246  0.25094867  1
  S  S34  1  0.64817256  0.00612116  0.25033905  1
  S  S35  1  0.35428456  0.70587079  0.25081425  1
  S  S36  1  0.85744729  0.70800629  0.25067387  1
  S  S37  1  0.99677328  0.28405966  0.25109569  1
  S  S38  1  0.14748443  0.29211292  0.75214799  1
  S  S39  1  0.64736757  0.28708642  0.74898111  1
  S  S40  1  0.99788265  0.70465026  0.75286804  1
  S  S41  1  0.49791268  0.70764657  0.74929914  1
  S  S42  1  0.35245855  -0.00044772  0.74864675  1
  S  S43  1  0.85659240  0.00771057  0.75225755  1
  S  S44  1  0.47794827  0.34172858  0.58310469  1
  S  S45  1  0.97622391  0.32860664  0.58379499  1
  S  S46  1  0.19066236  0.04880232  0.58336345  1
  S  S47  1  0.69298640  0.04568140  0.58306133  1
  S  S48  1  0.33186022  0.61637100  0.58330116  1
  S  S49  1  0.83137112  0.62036276  0.58337913  1
  S  S50  1  0.47600299  0.62225984  0.08246615  1
  S  S51  1  0.97579605  0.61932198  0.08366109  1
  S  S52  1  0.33249672  0.04383436  0.08227936  1
  S  S53  1  0.83296183  0.04856836  0.08359887  1
  S  S54  1  0.19201880  0.33534679  0.08324286  1
  S  S55  1  0.69140091  0.32988928  0.08295269  1
  S  S56  1  0.30840465  0.66008162  0.91526962  1
  S  S57  1  0.81452672  0.66814053  0.91637367  1
  S  S58  1  0.01951811  0.37375142  0.91434933  1
  S  S59  1  0.16622084  0.95711232  0.91413156  1
  S  S60  1  0.66952741  0.96081298  0.91660778  1
  S  S61  1  0.31034338  0.95899191  0.41715910  1
  S  S62  1  0.81128614  0.95792106  0.41819710  1
  S  S63  1  0.16890684  0.37620356  0.41661811  1
  S  S64  1  0.66849491  0.37969121  0.41912218  1
  S  S65  1  0.52083915  0.66194118  0.41807067  1
  O  O66  1  0.10301843  0.02917676  0.30206400  1
  O  O67  1  0.60389617  0.02767552  0.30234975  1
  O  O68  1  0.41114093  0.79059662  0.30274308  1
  O  O69  1  0.91161466  0.79055899  0.30157206  1
  O  O70  1  0.48582086  0.16605140  0.30619583  1
  O  O71  1  0.98562617  0.17834545  0.30251008  1
  O  O72  1  0.10537388  0.17870177  0.80299812  1
  O  O73  1  0.60344287  0.17732129  0.80220022  1
  O  O74  1  0.48698425  0.79333137  0.80266118  1
  O  O75  1  0.98312025  0.78915864  0.80330532  1
  O  O76  1  0.41157274  0.02808685  0.80189171  1
  O  O77  1  0.91053558  0.03097582  0.80342073  1
  O  O78  1  0.39890619  0.97713197  0.69759745  1
  O  O79  1  0.89665042  0.97783830  0.69835240  1
  O  O80  1  0.09086626  0.20254306  0.69816814  1
  O  O81  1  0.59071329  0.20404113  0.69782292  1
  O  O82  1  0.00979751  0.81652479  0.69849938  1
  O  O83  1  0.51102280  0.81999922  0.69776925  1
  O  O84  1  0.39786298  0.81740411  0.19785636  1
  O  O85  1  0.89818380  0.81835520  0.19653934  1
  O  O86  1  0.00990293  0.20080467  0.19723166  1
  O  O87  1  0.51307144  0.20037823  0.19391696  1
  O  O88  1  0.08874811  0.97352306  0.19713661  1
  O  O89  1  0.59207265  0.97353205  0.19729294  1
  O  O90  1  0.43722430  0.36374211  0.63605769  1
  O  O91  1  0.93974399  0.35817981  0.63688178  1
  O  O92  1  0.24121907  0.12564660  0.63622190  1
  O  O93  1  0.74418403  0.12539287  0.63636576  1
  O  O94  1  0.31864059  0.51308607  0.63597430  1
  O  O95  1  0.82054144  0.51921430  0.63707024  1
  O  O96  1  0.43906255  0.51977142  0.13541469  1
  O  O97  1  0.93838092  0.51338643  0.13605573  1
  O  O98  1  0.31865076  0.11717080  0.13531627  1
  O  O99  1  0.81822353  0.12437092  0.13609305  1
  O  O100  1  0.24433027  0.36578843  0.13589217  1
  O  O101  1  0.74100740  0.35171491  0.13598370  1
  O  O102  1  0.22862892  0.30221836  0.03090997  1
  O  O103  1  0.72997765  0.30518230  0.02980290  1
  O  O104  1  0.42344797  0.54560055  0.02999828  1
  O  O105  1  0.92310578  0.54674216  0.03118538  1
  O  O106  1  0.34924825  0.15099747  0.03002698  1
  O  O107  1  0.84943298  0.15549485  0.03117807  1
  O  O108  1  0.22782727  0.15347430  0.53047390  1
  O  O109  1  0.72877506  0.15709084  0.53142074  1
  O  O110  1  0.34917377  0.54371907  0.53100701  1
  O  O111  1  0.85085400  0.54725338  0.53182074  1
  O  O112  1  0.42180625  0.30025458  0.53134475  1
  O  O113  1  0.92381212  0.29792115  0.53158605  1
  O  O114  1  0.27059253  0.69467009  0.96914826  1
  O  O115  1  0.77056237  0.69313150  0.96921747  1
  O  O116  1  0.07534244  0.46270696  0.96888289  1
  O  O117  1  0.58104695  0.46854997  0.97335692  1
  O  O118  1  0.15548085  0.84467135  0.96877301  1
  O  O119  1  0.65554998  0.85131510  0.96915912  1
  O  O120  1  0.27049273  0.84951604  0.46968444  1
  O  O121  1  0.77004854  0.84585368  0.46930225  1
  O  O122  1  0.15910368  0.46564721  0.46940090  1
  O  O123  1  0.65204845  0.45743160  0.46959053  1
  O  O124  1  0.07971117  0.68766626  0.47279963  1
  O  O125  1  0.57421898  0.69064316  0.46941576  1
  O  O126  1  0.06766365  0.64292479  0.36038386  1
  O  O127  1  0.56371197  0.63859042  0.36409953  1
  O  O128  1  0.25744264  0.87328988  0.36391539  1
  O  O129  1  0.75709168  0.87001835  0.36381065  1
  O  O130  1  0.18353774  0.49057368  0.36354733  1
  O  O131  1  0.68031664  0.48683689  0.36463715  1
  O  O132  1  0.06167860  0.48811923  0.86398219  1
  O  O133  1  0.56968952  0.49574265  0.85968539  1
  O  O134  1  0.18206627  0.87360482  0.86383036  1
  O  O135  1  0.68150664  0.87757079  0.86342293  1
  O  O136  1  0.25804459  0.64453864  0.86332375  1
  O  O137  1  0.75591633  0.64094680  0.86418103  1
  O  O138  1  0.01354815  0.84828615  0.41377562  1
  O  O139  1  0.51166070  0.81960172  0.40656085  1
  O  O140  1  0.39754221  0.97038097  0.41032159  1
  O  O141  1  0.89961712  0.98111720  0.40976805  1
  O  O142  1  0.08835353  0.20868698  0.40985764  1
  O  O143  1  0.58844813  0.20136393  0.40872477  1
  O  O144  1  0.01271016  0.20259632  0.90944764  1
  O  O145  1  0.51281725  0.18412488  0.91033693  1
  O  O146  1  0.08591450  0.96604927  0.90956387  1
  O  O147  1  0.58728772  0.97082890  0.90929172  1
  O  O148  1  0.39990815  0.82252711  0.91050371  1
  O  O149  1  0.89881858  0.82287720  0.90814068  1
  O  O150  1  0.48722611  0.17799884  0.59334285  1
  O  O151  1  0.98912994  0.17203303  0.59194726  1
  O  O152  1  0.09892403  0.02180368  0.59055318  1
  O  O153  1  0.60126353  0.02606103  0.59397472  1
  O  O154  1  0.41135835  0.79749070  0.59243782  1
  O  O155  1  0.91346314  0.80477119  0.59245130  1
  O  O156  1  0.48965747  0.80513069  0.08916138  1
  O  O157  1  0.98859142  0.79954607  0.09291840  1
  O  O158  1  0.41127059  0.01605585  0.08910332  1
  O  O159  1  0.91138753  0.02495294  0.09321365  1
  O  O160  1  0.10107845  0.18007483  0.09331332  1
  O  O161  1  0.59978223  0.17145289  0.08789676  1
  O  O162  1  0.34753976  0.16034065  0.74302580  1
  O  O163  1  0.84467409  0.15975975  0.74347022  1
  O  O164  1  0.23477964  0.30903068  0.74278839  1
  O  O165  1  0.73387967  0.30553404  0.74371802  1
  O  O166  1  0.42177863  0.53323019  0.74329255  1
  O  O167  1  0.91923957  0.52998895  0.74356894  1
  O  O168  1  0.34368420  0.53283522  0.24324166  1
  O  O169  1  0.84510899  0.53182298  0.24144791  1
  O  O170  1  0.40939043  0.31144510  0.24638833  1
  O  O171  1  0.92106139  0.30917648  0.24236967  1
  O  O172  1  0.23137001  0.16002471  0.24123462  1
  O  O173  1  0.73410895  0.16209053  0.24294243  1
  O  O174  1  0.31870186  0.50744282  0.92412760  1
  O  O175  1  0.81858568  0.50559135  0.92302687  1
  O  O176  1  0.42117452  0.35482428  0.92008488  1
  O  O177  1  0.93224451  0.35807342  0.92372031  1
  O  O178  1  0.24332763  0.13142964  0.92410232  1
  O  O179  1  0.74540968  0.13605951  0.92292226  1
  O  O180  1  0.32090713  0.13356339  0.42302184  1
  O  O181  1  0.81509060  0.12832780  0.42261045  1
  O  O182  1  0.24750116  0.35893856  0.42284202  1
  O  O183  1  0.74437639  0.35547517  0.42303918  1
  O  O184  1  0.43244226  0.50587230  0.42204863  1
  O  O185  1  0.92152262  0.48643064  0.42029344  1
  O  O186  1  0.17831189  0.48902951  0.07319638  1
  O  O187  1  0.68030090  0.48784822  0.07694501  1
  O  O188  1  0.06593798  0.64424543  0.07468444  1
  O  O189  1  0.56717835  0.64844020  0.07415796  1
  O  O190  1  0.25529122  0.86382133  0.07312152  1
  O  O191  1  0.75642667  0.86918463  0.07423045  1
  O  O192  1  0.18063925  0.87053396  0.57627083  1
  O  O193  1  0.67772307  0.86856519  0.57516013  1
  O  O194  1  0.25617302  0.64364248  0.57445679  1
  O  O195  1  0.75649598  0.64655852  0.57538522  1
  O  O196  1  0.06715417  0.48284435  0.57601063  1
  O  O197  1  0.56593382  0.48927372  0.57452742  1
  O  O198  1  0.15460593  0.84629297  0.25652538  1
  O  O199  1  0.65607279  0.84830260  0.25827483  1
  O  O200  1  0.26931136  0.69839269  0.25843580  1
  O  O201  1  0.77004098  0.69590995  0.25671883  1
  O  O202  1  0.07936174  0.45956001  0.25521085  1
  O  O203  1  0.58553078  0.48011478  0.26079393  1
  O  O204  1  0.15406853  0.46359338  0.75763234  1
  O  O205  1  0.65480798  0.46204175  0.75677619  1
  O  O206  1  0.07759543  0.69324291  0.75742075  1
  O  O207  1  0.57996762  0.69871487  0.75665692  1
  O  O208  1  0.26892780  0.84338900  0.75782140  1
  O  O209  1  0.76830631  0.84543410  0.75885165  1
