# generated using pymatgen
data_Na2LaAlP2SO12
_symmetry_space_group_name_H-M   'P 1'
_cell_length_a   8.95421581
_cell_length_b   8.93217582
_cell_length_c   22.96082405
_cell_angle_alpha   91.36134076
_cell_angle_beta   88.95529882
_cell_angle_gamma   120.42977288
_symmetry_Int_Tables_number   1
_chemical_formula_structural   Na2LaAlP2SO12
_chemical_formula_sum   'Na12 La6 Al6 P12 S6 O72'
_cell_volume   1582.96738000
_cell_formula_units_Z   6
loop_
 _symmetry_equiv_pos_site_id
 _symmetry_equiv_pos_as_xyz
  1  'x, y, z'
loop_
 _atom_site_type_symbol
 _atom_site_label
 _atom_site_symmetry_multiplicity
 _atom_site_fract_x
 _atom_site_fract_y
 _atom_site_fract_z
 _atom_site_occupancy
  Na  Na0  1  0.99330077  0.63660499  0.26283470  1
  Na  Na1  1  0.37123699  0.01174857  0.74176061  1
  Na  Na2  1  0.66313631  0.95083658  0.58877403  1
  Na  Na3  1  0.04354714  0.33931468  0.09733824  1
  Na  Na4  1  0.32686637  0.30877010  0.92163247  1
  Na  Na5  1  0.68932230  0.66721585  0.41869386  1
  Na  Na6  1  0.04193244  0.99695845  0.49919626  1
  Na  Na7  1  0.01425116  0.97389964  0.00566545  1
  Na  Na8  1  0.69231081  0.32375722  0.82675228  1
  Na  Na9  1  0.66594163  0.30355020  0.33784621  1
  Na  Na10  1  0.36305692  0.65802381  0.18237190  1
  Na  Na11  1  0.33819944  0.63833416  0.65697542  1
  La  La12  1  0.98727860  0.00390636  0.84097697  1
  La  La13  1  0.00237170  0.99944001  0.17257300  1
  La  La14  1  0.67124163  0.32161225  0.98410098  1
  La  La15  1  0.33680491  0.69490996  0.02747426  1
  La  La16  1  0.32202025  0.66968903  0.50918163  1
  La  La17  1  0.34123366  0.66024316  0.80493358  1
  Al  Al18  1  0.97783250  0.99687756  0.34575354  1
  Al  Al19  1  0.00449536  0.98731359  0.64273566  1
  Al  Al20  1  0.65694538  0.33521474  0.67620951  1
  Al  Al21  1  0.65920234  0.35633248  0.18948116  1
  Al  Al22  1  0.66966640  0.32936152  0.48469525  1
  Al  Al23  1  0.33083837  0.66930341  0.32558247  1
  P  P24  1  0.67648006  0.68959536  0.25642359  1
  P  P25  1  0.00815011  0.31517844  0.25615735  1
  P  P26  1  0.30159140  0.28682406  0.73552521  1
  P  P27  1  0.70858091  0.01991599  0.72977849  1
  P  P28  1  0.37793850  0.06563310  0.58177549  1
  P  P29  1  0.68622350  0.62184134  0.58068435  1
  P  P30  1  0.95804208  0.62812550  0.09919844  1
  P  P31  1  0.37404917  0.33466901  0.09224485  1
  P  P32  1  0.03492372  0.36134915  0.92005668  1
  P  P33  1  0.33133501  0.97806734  0.90639276  1
  P  P34  1  0.63832837  0.97488855  0.41713359  1
  P  P35  1  0.02279251  0.67864456  0.41175921  1
  S  S36  1  0.31478589  0.99138290  0.25717323  1
  S  S37  1  0.98004197  0.68753085  0.73475140  1
  S  S38  1  0.93913792  0.32130429  0.58102855  1
  S  S39  1  0.66341347  0.04606343  0.10261697  1
  S  S40  1  0.64705388  0.67209433  0.91698809  1
  S  S41  1  0.31690728  0.34927882  0.41238423  1
  O  O42  1  0.20399650  0.01441005  0.30092467  1
  O  O43  1  0.83249587  0.79745612  0.29919920  1
  O  O44  1  0.98471198  0.16074797  0.29387375  1
  O  O45  1  0.24720950  0.21136631  0.79797901  1
  O  O46  1  0.95920796  0.74574053  0.79388091  1
  O  O47  1  0.78756407  0.03381180  0.79021311  1
  O  O48  1  0.81861411  0.00111570  0.68012618  1
  O  O49  1  0.17135261  0.15225400  0.69177415  1
  O  O50  1  0.98696306  0.80678600  0.69005056  1
  O  O51  1  0.71840666  0.78258966  0.19794904  1
  O  O52  1  0.04892925  0.27860503  0.19334981  1
  O  O53  1  0.22164849  0.93447735  0.20043623  1
  O  O54  1  0.84294555  0.32619034  0.63266141  1
  O  O55  1  0.48699476  0.15027264  0.63643159  1
  O  O56  1  0.67126083  0.51004680  0.63226281  1
  O  O57  1  0.85070967  0.52922987  0.15377348  1
  O  O58  1  0.68085967  0.17487483  0.14777131  1
  O  O59  1  0.48636875  0.32959071  0.14218780  1
  O  O60  1  0.44476033  0.32675491  0.03069784  1
  O  O61  1  0.87225953  0.53051405  0.04220228  1
  O  O62  1  0.64424262  0.09712075  0.04306027  1
  O  O63  1  0.47051194  0.17447189  0.52689085  1
  O  O64  1  0.69902570  0.53484867  0.52181088  1
  O  O65  1  0.84432751  0.31278121  0.52654357  1
  O  O66  1  0.54163687  0.65915537  0.96900777  1
  O  O67  1  0.11430844  0.45196744  0.97924038  1
  O  O68  1  0.35005573  0.88325044  0.95869246  1
  O  O69  1  0.60181105  0.87136075  0.47468573  1
  O  O70  1  0.27092399  0.39009124  0.47082490  1
  O  O71  1  0.12497058  0.72831098  0.46916993  1
  O  O72  1  0.12796776  0.65272896  0.36220832  1
  O  O73  1  0.49063885  0.85839621  0.37426562  1
  O  O74  1  0.35017045  0.49180258  0.37195912  1
  O  O75  1  0.16216171  0.45831129  0.86945220  1
  O  O76  1  0.32249585  0.88722868  0.84705682  1
  O  O77  1  0.57380039  0.70004199  0.86348871  1
  O  O78  1  0.98960922  0.83115794  0.39784843  1
  O  O79  1  0.81440512  0.00062975  0.39452570  1
  O  O80  1  0.17218583  0.17799701  0.39350356  1
  O  O81  1  0.01369217  0.17861157  0.92325161  1
  O  O82  1  0.16822354  0.99225049  0.91626088  1
  O  O83  1  0.82474955  0.81733613  0.92526844  1
  O  O84  1  0.95692438  0.16406846  0.58031337  1
  O  O85  1  0.19089683  0.03560551  0.58799780  1
  O  O86  1  0.84964586  0.81103964  0.58697176  1
  O  O87  1  0.98428680  0.81110549  0.09558682  1
  O  O88  1  0.82513924  0.03834536  0.09967781  1
  O  O89  1  0.18767729  0.17575379  0.09530086  1
  O  O90  1  0.68518748  0.18037557  0.72622379  1
  O  O91  1  0.48781521  0.31763075  0.72890519  1
  O  O92  1  0.83409552  0.50922773  0.72703576  1
  O  O93  1  0.66588683  0.50847181  0.24903562  1
  O  O94  1  0.84360275  0.33261160  0.25590855  1
  O  O95  1  0.48392155  0.15478584  0.25057718  1
  O  O96  1  0.64420955  0.50557360  0.90837405  1
  O  O97  1  0.86097221  0.34784246  0.90723056  1
  O  O98  1  0.48810912  0.16540418  0.90320017  1
  O  O99  1  0.64900474  0.15282961  0.42889972  1
  O  O100  1  0.48256379  0.34721235  0.41613282  1
  O  O101  1  0.84161053  0.50844163  0.41975122  1
  O  O102  1  0.36217301  0.50181226  0.09730317  1
  O  O103  1  0.13430435  0.63461134  0.10421289  1
  O  O104  1  0.51066638  0.87504597  0.11406157  1
  O  O105  1  0.36750894  0.88547187  0.57754019  1
  O  O106  1  0.52593715  0.64678148  0.57892515  1
  O  O107  1  0.11392016  0.47882741  0.58201117  1
  O  O108  1  0.34181605  0.84530698  0.27286564  1
  O  O109  1  0.50500199  0.66706897  0.27960588  1
  O  O110  1  0.16569624  0.49397887  0.27474760  1
  O  O111  1  0.30493208  0.45964364  0.73036006  1
  O  O112  1  0.14788303  0.68996352  0.73156757  1
  O  O113  1  0.52252777  0.85697095  0.72730288  1
