# generated using pymatgen
data_Na2HfZn3(SO4)6
_symmetry_space_group_name_H-M   'P 1'
_cell_length_a   8.70306335
_cell_length_b   8.70306307
_cell_length_c   22.93240810
_cell_angle_alpha   90.00000000
_cell_angle_beta   90.00000000
_cell_angle_gamma   120.00000109
_symmetry_Int_Tables_number   1
_chemical_formula_structural   Na2HfZn3(SO4)6
_chemical_formula_sum   'Na6 Hf3 Zn9 S18 O72'
_cell_volume   1504.26574012
_cell_formula_units_Z   3
loop_
 _symmetry_equiv_pos_site_id
 _symmetry_equiv_pos_as_xyz
  1  'x, y, z'
loop_
 _atom_site_type_symbol
 _atom_site_label
 _atom_site_symmetry_multiplicity
 _atom_site_fract_x
 _atom_site_fract_y
 _atom_site_fract_z
 _atom_site_occupancy
  Na  Na0  1  -0.00000000  -0.00000000  0.51075257  1
  Na  Na1  1  -0.00000000  -0.00000000  0.00870786  1
  Na  Na2  1  0.66666700  0.33333300  0.82584197  1
  Na  Na3  1  0.66666700  0.33333300  0.33821835  1
  Na  Na4  1  0.33333300  0.66666700  0.18036647  1
  Na  Na5  1  0.33333300  0.66666700  0.65796213  1
  Hf  Hf6  1  -0.00000000  -0.00000000  0.35282942  1
  Hf  Hf7  1  -0.00000000  -0.00000000  0.84974076  1
  Hf  Hf8  1  0.33333300  0.66666700  0.02019034  1
  Zn  Zn9  1  -0.00000000  -0.00000000  0.64619731  1
  Zn  Zn10  1  -0.00000000  -0.00000000  0.15486584  1
  Zn  Zn11  1  0.66666700  0.33333300  0.67370725  1
  Zn  Zn12  1  0.66666700  0.33333300  0.18679215  1
  Zn  Zn13  1  0.66666700  0.33333300  0.98687162  1
  Zn  Zn14  1  0.66666700  0.33333300  0.48940915  1
  Zn  Zn15  1  0.33333300  0.66666700  0.51843312  1
  Zn  Zn16  1  0.33333300  0.66666700  0.32147582  1
  Zn  Zn17  1  0.33333300  0.66666700  0.81221216  1
  S  S18  1  0.29727510  0.99831623  0.24812292  1
  S  S19  1  0.70104113  0.70272490  0.24812292  1
  S  S20  1  0.00168377  0.29895887  0.24812292  1
  S  S21  1  0.29809682  0.29738035  0.74845306  1
  S  S22  1  0.99928353  0.70190318  0.74845306  1
  S  S23  1  0.70261965  0.00071647  0.74845306  1
  S  S24  1  0.96590520  0.33486986  0.58342661  1
  S  S25  1  0.36896566  0.03409480  0.58342661  1
  S  S26  1  0.66513014  0.63103434  0.58342661  1
  S  S27  1  0.95649216  0.62956953  0.08315880  1
  S  S28  1  0.67307837  0.04350784  0.08315880  1
  S  S29  1  0.37043047  0.32692163  0.08315880  1
  S  S30  1  0.62546669  0.66192373  0.91544788  1
  S  S31  1  0.03645604  0.37453331  0.91544788  1
  S  S32  1  0.33807627  0.96354396  0.91544788  1
  S  S33  1  0.62352722  0.96356828  0.41627423  1
  S  S34  1  0.34004006  0.37647278  0.41627423  1
  S  S35  1  0.03643172  0.65995994  0.41627423  1
  O  O36  1  0.19935142  0.01436129  0.30005275  1
  O  O37  1  0.81500987  0.80064858  0.30005275  1
  O  O38  1  0.98563871  0.18499013  0.30005275  1
  O  O39  1  0.20261865  0.18571686  0.80376104  1
  O  O40  1  0.98309821  0.79738135  0.80376104  1
  O  O41  1  0.81428314  0.01690179  0.80376104  1
  O  O42  1  0.79012163  0.98011257  0.69743078  1
  O  O43  1  0.18999094  0.20987837  0.69743078  1
  O  O44  1  0.01988743  0.81000906  0.69743078  1
  O  O45  1  0.78114785  0.80538905  0.19426763  1
  O  O46  1  0.02424120  0.21885215  0.19426763  1
  O  O47  1  0.19461095  0.97575880  0.19426763  1
  O  O48  1  0.88621436  0.35800885  0.63789775  1
  O  O49  1  0.47179550  0.11378564  0.63789775  1
  O  O50  1  0.64199115  0.52820450  0.63789775  1
  O  O51  1  0.88059950  0.52058451  0.13506881  1
  O  O52  1  0.63998601  0.11940050  0.13506881  1
  O  O53  1  0.47941549  0.36001399  0.13506881  1
  O  O54  1  0.44946930  0.30542337  0.02894788  1
  O  O55  1  0.85595507  0.55053070  0.02894788  1
  O  O56  1  0.69457663  0.14404493  0.02894788  1
  O  O57  1  0.45320158  0.14117963  0.53077736  1
  O  O58  1  0.68797905  0.54679842  0.53077736  1
  O  O59  1  0.85882037  0.31202095  0.53077736  1
  O  O60  1  0.53899385  0.68730735  0.96879827  1
  O  O61  1  0.14831250  0.46100615  0.96879827  1
  O  O62  1  0.31269265  0.85168750  0.96879827  1
  O  O63  1  0.54806137  0.85392025  0.46808135  1
  O  O64  1  0.30585788  0.45193863  0.46808135  1
  O  O65  1  0.14607975  0.69414212  0.46808135  1
  O  O66  1  0.11534306  0.63821958  0.36207548  1
  O  O67  1  0.52287552  0.88465694  0.36207548  1
  O  O68  1  0.36178042  0.47712448  0.36207548  1
  O  O69  1  0.12168876  0.47779681  0.86337130  1
  O  O70  1  0.35610705  0.87831124  0.86337130  1
  O  O71  1  0.52220319  0.64389295  0.86337130  1
  O  O72  1  0.01842947  0.82603472  0.40824649  1
  O  O73  1  0.80760525  0.98157053  0.40824649  1
  O  O74  1  0.17396528  0.19239475  0.40824649  1
  O  O75  1  0.02496549  0.19557174  0.91292553  1
  O  O76  1  0.17060625  0.97503451  0.91292553  1
  O  O77  1  0.80442826  0.82939375  0.91292553  1
  O  O78  1  0.98240048  0.17266519  0.58729341  1
  O  O79  1  0.19026471  0.01759952  0.58729341  1
  O  O80  1  0.82733481  0.80973529  0.58729341  1
  O  O81  1  0.98364180  0.81032168  0.08837263  1
  O  O82  1  0.82667987  0.01635820  0.08837263  1
  O  O83  1  0.18967832  0.17332013  0.08837263  1
  O  O84  1  0.69156641  0.16363619  0.74797591  1
  O  O85  1  0.47207078  0.30843359  0.74797591  1
  O  O86  1  0.83636381  0.52792922  0.74797591  1
  O  O87  1  0.69297232  0.52895175  0.24737016  1
  O  O88  1  0.83598043  0.30702768  0.24737016  1
  O  O89  1  0.47104825  0.16401957  0.24737016  1
  O  O90  1  0.64944213  0.50784454  0.92317540  1
  O  O91  1  0.85840341  0.35055787  0.92317540  1
  O  O92  1  0.49215546  0.14159659  0.92317540  1
  O  O93  1  0.65059730  0.14402459  0.42191412  1
  O  O94  1  0.49342829  0.34940270  0.42191412  1
  O  O95  1  0.85597541  0.50657171  0.42191412  1
  O  O96  1  0.35191585  0.49269528  0.07549995  1
  O  O97  1  0.14077843  0.64808415  0.07549995  1
  O  O98  1  0.50730472  0.85922157  0.07549995  1
  O  O99  1  0.35127829  0.85580819  0.57898947  1
  O  O100  1  0.50452890  0.64872171  0.57898947  1
  O  O101  1  0.14419181  0.49547110  0.57898947  1
  O  O102  1  0.31468634  0.83947341  0.25538341  1
  O  O103  1  0.52478608  0.68531366  0.25538341  1
  O  O104  1  0.16052659  0.47521392  0.25538341  1
  O  O105  1  0.31353488  0.47311594  0.75591485  1
  O  O106  1  0.15958005  0.68646512  0.75591485  1
  O  O107  1  0.52688406  0.84041995  0.75591485  1
