# generated using pymatgen
data_Na6Al4Si5Sn4S7O48
_symmetry_space_group_name_H-M   'P 1'
_cell_length_a   17.42231669
_cell_length_b   8.73939422
_cell_length_c   22.45999928
_cell_angle_alpha   90.04931131
_cell_angle_beta   90.03001698
_cell_angle_gamma   120.34839410
_symmetry_Int_Tables_number   1
_chemical_formula_structural   Na6Al4Si5Sn4S7O48
_chemical_formula_sum   'Na18 Al12 Si15 Sn12 S21 O144'
_cell_volume   2951.15342591
_cell_formula_units_Z   3
loop_
 _symmetry_equiv_pos_site_id
 _symmetry_equiv_pos_as_xyz
  1  'x, y, z'
loop_
 _atom_site_type_symbol
 _atom_site_label
 _atom_site_symmetry_multiplicity
 _atom_site_fract_x
 _atom_site_fract_y
 _atom_site_fract_z
 _atom_site_occupancy
  Na  Na0  1  0.00066603  0.63060436  0.25386492  1
  Na  Na1  1  0.49637121  0.63734529  0.25120261  1
  Na  Na2  1  0.99586866  0.35793493  0.75017513  1
  Na  Na3  1  0.50259719  0.36328971  0.75197100  1
  Na  Na4  1  0.66407003  0.29996186  0.91703841  1
  Na  Na5  1  0.16544610  0.02807911  0.42573507  1
  Na  Na6  1  0.99947556  0.99359960  0.50288389  1
  Na  Na7  1  0.50640356  0.99921049  0.50290465  1
  Na  Na8  1  0.00518520  0.01140281  0.99901521  1
  Na  Na9  1  0.50138722  0.00963296  0.99800294  1
  Na  Na10  1  0.32972061  0.32393688  0.83481712  1
  Na  Na11  1  0.83239458  0.33317307  0.82532238  1
  Na  Na12  1  0.33983589  0.34270155  0.32927183  1
  Na  Na13  1  0.82666870  0.33176847  0.33650450  1
  Na  Na14  1  0.18031415  0.66419405  0.16797736  1
  Na  Na15  1  0.67145680  0.65504733  0.16455282  1
  Na  Na16  1  0.17203022  0.68904882  0.66658897  1
  Na  Na17  1  0.67908966  0.68490297  0.67275690  1
  Al  Al18  1  0.99733222  0.98996248  0.35378708  1
  Al  Al19  1  0.50290470  0.01689564  0.85113716  1
  Al  Al20  1  0.32309815  0.33587514  0.67815507  1
  Al  Al21  1  0.82110440  0.30584991  0.69766569  1
  Al  Al22  1  0.33307621  0.35382777  0.19019361  1
  Al  Al23  1  0.82013589  0.30881887  0.17485986  1
  Al  Al24  1  0.82668989  0.31338419  0.98640806  1
  Al  Al25  1  0.33218656  0.34324110  0.49361904  1
  Al  Al26  1  0.17062271  0.66359057  0.31792396  1
  Al  Al27  1  0.66215055  0.64297357  0.31504490  1
  Al  Al28  1  0.16615072  0.68805526  0.81288106  1
  Al  Al29  1  0.66687324  0.65468222  0.81027695  1
  Si  Si30  1  0.34812562  0.70760701  0.25152419  1
  Si  Si31  1  0.49833080  0.30541702  0.24838009  1
  Si  Si32  1  0.64436898  0.28960125  0.75237755  1
  Si  Si33  1  0.00005742  0.69206463  0.74788411  1
  Si  Si34  1  0.84957965  0.98983067  0.75187417  1
  Si  Si35  1  0.18933142  0.05282703  0.58346366  1
  Si  Si36  1  0.69526911  0.05070697  0.58500366  1
  Si  Si37  1  0.33372273  0.62159356  0.58330681  1
  Si  Si38  1  0.83115217  0.04708668  0.08177043  1
  Si  Si39  1  0.19539690  0.33997127  0.08533039  1
  Si  Si40  1  0.68911224  0.32902816  0.08229495  1
  Si  Si41  1  0.52298474  0.37910437  0.91208687  1
  Si  Si42  1  0.16287997  0.95034789  0.91539151  1
  Si  Si43  1  0.66444879  0.37680443  0.41530606  1
  Si  Si44  1  0.02400906  0.66737197  0.41086113  1
  Sn  Sn45  1  0.49943569  0.01353930  0.34892757  1
  Sn  Sn46  1  0.99934501  0.98406310  0.84840521  1
  Sn  Sn47  1  0.00192911  0.98930512  0.65057704  1
  Sn  Sn48  1  0.50485991  0.99884029  0.64546493  1
  Sn  Sn49  1  0.99905772  0.01005982  0.14261500  1
  Sn  Sn50  1  0.50169381  0.01471488  0.14971073  1
  Sn  Sn51  1  0.32913024  0.32336944  0.97541693  1
  Sn  Sn52  1  0.83027978  0.33765615  0.47716510  1
  Sn  Sn53  1  0.16731823  0.66486152  0.01823015  1
  Sn  Sn54  1  0.66674752  0.65757914  0.02204020  1
  Sn  Sn55  1  0.16591152  0.67606655  0.52425904  1
  Sn  Sn56  1  0.66690711  0.66790595  0.52027102  1
  S  S57  1  0.14419750  0.00090320  0.25184020  1
  S  S58  1  0.65574257  0.00500049  0.25121791  1
  S  S59  1  0.85449628  0.71107818  0.25182088  1
  S  S60  1  0.99938266  0.28941782  0.25442145  1
  S  S61  1  0.15566308  0.30678664  0.75150923  1
  S  S62  1  0.49712774  0.70501359  0.75387125  1
  S  S63  1  0.35292822  0.99706433  0.75146241  1
  S  S64  1  0.47276977  0.33372198  0.58449181  1
  S  S65  1  0.97467031  0.32752687  0.58473457  1
  S  S66  1  0.83373099  0.62141119  0.58533868  1
  S  S67  1  0.47484554  0.62155257  0.08524001  1
  S  S68  1  0.97325516  0.61058325  0.08526125  1
  S  S69  1  0.33272263  0.04702645  0.08586899  1
  S  S70  1  0.31446607  0.67725914  0.91033793  1
  S  S71  1  0.81316391  0.66235018  0.91706788  1
  S  S72  1  0.01659723  0.37327300  0.91531861  1
  S  S73  1  0.66637690  0.95508371  0.91466458  1
  S  S74  1  0.31230820  0.96074073  0.41624615  1
  S  S75  1  0.81350693  0.95139020  0.41026031  1
  S  S76  1  0.16567878  0.37413353  0.41349317  1
  S  S77  1  0.51737379  0.66051090  0.41508967  1
  O  O78  1  0.10122444  0.03009560  0.30465550  1
  O  O79  1  0.61657958  0.04066708  0.30453557  1
  O  O80  1  0.42001649  0.78742074  0.30778649  1
  O  O81  1  0.91579508  0.80247957  0.30292201  1
  O  O82  1  0.47470620  0.18260733  0.30775341  1
  O  O83  1  0.98643870  0.17182666  0.30546643  1
  O  O84  1  0.11673150  0.19256768  0.80466647  1
  O  O85  1  0.59787910  0.16266230  0.81019119  1
  O  O86  1  0.48092250  0.79069377  0.80496006  1
  O  O87  1  0.97689880  0.76727966  0.80770216  1
  O  O88  1  0.41201704  0.02726843  0.80335959  1
  O  O89  1  0.92236989  0.05464953  0.80789545  1
  O  O90  1  0.38756449  0.96306206  0.69596865  1
  O  O91  1  0.89418805  0.95568833  0.69186287  1
  O  O92  1  0.09595295  0.23432948  0.69824674  1
  O  O93  1  0.57325038  0.21076837  0.69498880  1
  O  O94  1  0.03213944  0.83004749  0.69190318  1
  O  O95  1  0.51208819  0.80640762  0.69767455  1
  O  O96  1  0.39372619  0.82918376  0.19175620  1
  O  O97  1  0.89311092  0.81626614  0.19625587  1
  O  O98  1  0.01593967  0.21711983  0.19868406  1
  O  O99  1  0.52927792  0.23252235  0.19201194  1
  O  O100  1  0.08301448  0.95511639  0.19861458  1
  O  O101  1  0.59540718  0.95722886  0.19835409  1
  O  O102  1  0.43261472  0.35496681  0.63985515  1
  O  O103  1  0.93581802  0.35540117  0.63762898  1
  O  O104  1  0.24993142  0.14158752  0.64162455  1
  O  O105  1  0.75607183  0.14831778  0.64119735  1
  O  O106  1  0.32350803  0.51116551  0.64300699  1
  O  O107  1  0.82608762  0.51839158  0.63702086  1
  O  O108  1  0.43504586  0.51511154  0.13933605  1
  O  O109  1  0.93299496  0.50984103  0.14173794  1
  O  O110  1  0.32466698  0.13476580  0.13856832  1
  O  O111  1  0.82392861  0.13347549  0.14382734  1
  O  O112  1  0.25358302  0.36017209  0.14302548  1
  O  O113  1  0.74781420  0.36143400  0.14211066  1
  O  O114  1  0.23232911  0.30989625  0.02278370  1
  O  O115  1  0.73416010  0.31143508  0.02068564  1
  O  O116  1  0.42371906  0.54397283  0.02987663  1
  O  O117  1  0.92123117  0.52962423  0.03131326  1
  O  O118  1  0.34750410  0.14609015  0.02953118  1
  O  O119  1  0.85078182  0.16893547  0.02366605  1
  O  O120  1  0.23362015  0.15689025  0.51997284  1
  O  O121  1  0.73089083  0.15111205  0.52077414  1
  O  O122  1  0.35226410  0.54105312  0.52331045  1
  O  O123  1  0.84903243  0.55473889  0.52765738  1
  O  O124  1  0.42113975  0.31571657  0.52961041  1
  O  O125  1  0.92536754  0.30392948  0.52774131  1
  O  O126  1  0.28177168  0.71004198  0.96847598  1
  O  O127  1  0.77713108  0.69601828  0.97226366  1
  O  O128  1  0.07194520  0.44815807  0.97104091  1
  O  O129  1  0.58541123  0.45237412  0.97246586  1
  O  O130  1  0.14701334  0.84014083  0.97848094  1
  O  O131  1  0.65194182  0.85386535  0.97098617  1
  O  O132  1  0.27470200  0.85413429  0.47071775  1
  O  O133  1  0.78095394  0.85191356  0.46726127  1
  O  O134  1  0.14876209  0.44421988  0.46838755  1
  O  O135  1  0.64775571  0.45727237  0.47706801  1
  O  O136  1  0.08854983  0.71970358  0.46968923  1
  O  O137  1  0.57297923  0.69511659  0.46958182  1
  O  O138  1  0.07302714  0.64412311  0.35245341  1
  O  O139  1  0.56237007  0.64504591  0.36079474  1
  O  O140  1  0.25455102  0.87428500  0.36349003  1
  O  O141  1  0.75389250  0.86162833  0.35960783  1
  O  O142  1  0.18082591  0.48978852  0.36170264  1
  O  O143  1  0.67901754  0.50096563  0.35883073  1
  O  O144  1  0.06208092  0.48015678  0.86203849  1
  O  O145  1  0.57234306  0.50470756  0.85560825  1
  O  O146  1  0.17806112  0.85366249  0.86016777  1
  O  O147  1  0.68156986  0.87223951  0.86334116  1
  O  O148  1  0.25333009  0.64530684  0.86066355  1
  O  O149  1  0.75614223  0.63228447  0.86485422  1
  O  O150  1  0.01444019  0.84592218  0.40251322  1
  O  O151  1  0.50697863  0.81808335  0.41074278  1
  O  O152  1  0.40009372  0.97431865  0.41187745  1
  O  O153  1  0.90374985  0.97337244  0.40202471  1
  O  O154  1  0.08502109  0.19282259  0.40377767  1
  O  O155  1  0.57718554  0.17429305  0.41229783  1
  O  O156  1  0.00603235  0.19467843  0.91171505  1
  O  O157  1  0.51033008  0.17895714  0.90603193  1
  O  O158  1  0.07692746  0.98028160  0.91260280  1
  O  O159  1  0.58547769  0.97385887  0.90871912  1
  O  O160  1  0.40415157  0.83414751  0.90212625  1
  O  O161  1  0.90173806  0.82469842  0.91295353  1
  O  O162  1  0.48032324  0.17318421  0.58573761  1
  O  O163  1  0.98455861  0.16820312  0.58799666  1
  O  O164  1  0.09129728  0.04134641  0.58527578  1
  O  O165  1  0.59567263  0.02587689  0.58669944  1
  O  O166  1  0.41774143  0.82570925  0.58844179  1
  O  O167  1  0.91166510  0.80665079  0.58590206  1
  O  O168  1  0.48367445  0.79922139  0.08986910  1
  O  O169  1  0.98386483  0.79087614  0.08978934  1
  O  O170  1  0.41047442  0.01883278  0.08716033  1
  O  O171  1  0.91604229  0.01234474  0.08513658  1
  O  O172  1  0.09641622  0.16029914  0.08890872  1
  O  O173  1  0.59089490  0.14178716  0.08532507  1
  O  O174  1  0.34752478  0.16175679  0.74606916  1
  O  O175  1  0.84601983  0.16924297  0.74420283  1
  O  O176  1  0.24285672  0.31842376  0.74242194  1
  O  O177  1  0.74011170  0.31082216  0.74405769  1
  O  O178  1  0.41891554  0.52005681  0.74660735  1
  O  O179  1  0.91442369  0.50063197  0.73483139  1
  O  O180  1  0.34128586  0.51576918  0.24423031  1
  O  O181  1  0.84932046  0.53658234  0.24675370  1
  O  O182  1  0.41070397  0.32254863  0.23626696  1
  O  O183  1  0.92078429  0.31190666  0.24832685  1
  O  O184  1  0.23171467  0.15815196  0.24399490  1
  O  O185  1  0.74313029  0.16865224  0.24203341  1
  O  O186  1  0.32243350  0.51663866  0.91600877  1
  O  O187  1  0.82202843  0.50184414  0.92342404  1
  O  O188  1  0.42744555  0.37054404  0.92010055  1
  O  O189  1  0.93004612  0.36645453  0.92256366  1
  O  O190  1  0.25195582  0.14686107  0.91582361  1
  O  O191  1  0.74610766  0.14098494  0.92127694  1
  O  O192  1  0.32112120  0.13826230  0.42125014  1
  O  O193  1  0.82406494  0.12964354  0.41520301  1
  O  O194  1  0.24442158  0.35007848  0.41844776  1
  O  O195  1  0.75318498  0.35853947  0.41630799  1
  O  O196  1  0.43040969  0.49387842  0.42137023  1
  O  O197  1  0.92812325  0.48671598  0.41900108  1
  O  O198  1  0.18162254  0.51575952  0.07978413  1
  O  O199  1  0.67591529  0.50133277  0.08237520  1
  O  O200  1  0.06361301  0.63099015  0.08272035  1
  O  O201  1  0.56419386  0.64114017  0.08090760  1
  O  O202  1  0.24987467  0.86823428  0.08235440  1
  O  O203  1  0.73922361  0.85456537  0.07792374  1
  O  O204  1  0.17611714  0.85364416  0.58278833  1
  O  O205  1  0.68256598  0.84706518  0.57976818  1
  O  O206  1  0.24067234  0.62618015  0.57734849  1
  O  O207  1  0.75085881  0.63319097  0.58105331  1
  O  O208  1  0.06542456  0.48787812  0.57930244  1
  O  O209  1  0.56283959  0.49564173  0.58126328  1
  O  O210  1  0.15204570  0.84028347  0.25833077  1
  O  O211  1  0.66528005  0.84871291  0.26133553  1
  O  O212  1  0.25208340  0.69137291  0.26362803  1
  O  O213  1  0.76688334  0.69499611  0.25938841  1
  O  O214  1  0.07968093  0.46870663  0.26024745  1
  O  O215  1  0.58359390  0.50816933  0.25886316  1
  O  O216  1  0.16544163  0.48243449  0.76154529  1
  O  O217  1  0.65059212  0.48219544  0.75855430  1
  O  O218  1  0.08583127  0.66241990  0.75847521  1
  O  O219  1  0.57772101  0.69001915  0.76045943  1
  O  O220  1  0.26386884  0.83801064  0.76000625  1
  O  O221  1  0.75333497  0.82035332  0.76462752  1
