# generated using pymatgen
data_Na8Ca3ZrSi3(SO8)3
_symmetry_space_group_name_H-M   'P 1'
_cell_length_a   9.50578368
_cell_length_b   9.50630974
_cell_length_c   23.17211375
_cell_angle_alpha   90.07522184
_cell_angle_beta   89.85093652
_cell_angle_gamma   119.87532872
_symmetry_Int_Tables_number   1
_chemical_formula_structural   Na8Ca3ZrSi3(SO8)3
_chemical_formula_sum   'Na24 Ca9 Zr3 Si9 S9 O72'
_cell_volume   1815.67838298
_cell_formula_units_Z   3
loop_
 _symmetry_equiv_pos_site_id
 _symmetry_equiv_pos_as_xyz
  1  'x, y, z'
loop_
 _atom_site_type_symbol
 _atom_site_label
 _atom_site_symmetry_multiplicity
 _atom_site_fract_x
 _atom_site_fract_y
 _atom_site_fract_z
 _atom_site_occupancy
  Na  Na0  1  0.62918209  0.99558867  0.26446473  1
  Na  Na1  1  0.37146309  0.36879365  0.23919777  1
  Na  Na2  1  0.00061304  0.62393451  0.25357133  1
  Na  Na3  1  0.64303433  0.66097290  0.72825819  1
  Na  Na4  1  0.96953108  0.32925294  0.75379571  1
  Na  Na5  1  0.38558118  0.01262796  0.73542278  1
  Na  Na6  1  0.32662557  0.33582279  0.58283507  1
  Na  Na7  1  0.04697807  0.72465198  0.56604318  1
  Na  Na8  1  0.64593766  0.93907854  0.58005044  1
  Na  Na9  1  0.27616669  0.95273639  0.06938473  1
  Na  Na10  1  0.66183357  0.67194784  0.08480956  1
  Na  Na11  1  0.06333729  0.35908297  0.07343035  1
  Na  Na12  1  0.00401833  0.68112206  0.92433937  1
  Na  Na13  1  0.71234565  0.04969505  0.90303721  1
  Na  Na14  1  0.29825342  0.28184245  0.92464065  1
  Na  Na15  1  0.96273734  0.31028165  0.41590066  1
  Na  Na16  1  0.32415279  0.98978981  0.42856763  1
  Na  Na17  1  0.71327847  0.69878578  0.43259007  1
  Na  Na18  1  0.98910171  0.97430431  0.50101678  1
  Na  Na19  1  0.02882800  0.01529094  -0.00024337  1
  Na  Na20  1  0.66682760  0.30241462  0.83357088  1
  Na  Na21  1  0.68417530  0.33308912  0.34591015  1
  Na  Na22  1  0.31124911  0.64679201  0.15383774  1
  Na  Na23  1  0.36438805  0.69675374  0.65273938  1
  Ca  Ca24  1  0.99776419  0.99486139  0.35160211  1
  Ca  Ca25  1  0.99810053  0.00397429  0.84846311  1
  Ca  Ca26  1  0.98463480  0.98747313  0.64711141  1
  Ca  Ca27  1  0.00667481  0.99909099  0.14361575  1
  Ca  Ca28  1  0.66205346  0.32884758  0.67929337  1
  Ca  Ca29  1  0.66866396  0.33930079  0.17845015  1
  Ca  Ca30  1  0.32701480  0.66585250  0.01442597  1
  Ca  Ca31  1  0.34008375  0.67666409  0.51249800  1
  Ca  Ca32  1  0.33014022  0.67835126  0.32919653  1
  Zr  Zr33  1  0.66853898  0.33685901  0.98377662  1
  Zr  Zr34  1  0.66078666  0.33081260  0.48706651  1
  Zr  Zr35  1  0.33101773  0.67871381  0.82197229  1
  Si  Si36  1  0.68521568  0.99232980  0.75391901  1
  Si  Si37  1  0.35973704  0.03021573  0.58564761  1
  Si  Si38  1  0.66351386  0.63176044  0.58586738  1
  Si  Si39  1  0.96704220  0.63414107  0.08501005  1
  Si  Si40  1  0.36868619  0.33662994  0.08513723  1
  Si  Si41  1  0.02864642  0.36653774  0.91834226  1
  Si  Si42  1  0.33936585  0.97881221  0.92110734  1
  Si  Si43  1  0.64634881  0.98527787  0.41538877  1
  Si  Si44  1  0.01381438  0.65670560  0.41614789  1
  S  S45  1  0.30495223  0.99787090  0.24924377  1
  S  S46  1  0.69198840  0.69588281  0.24946176  1
  S  S47  1  0.00267026  0.30216250  0.24878461  1
  S  S48  1  0.30502357  0.31515462  0.75293914  1
  S  S49  1  0.00780296  0.69511713  0.75364553  1
  S  S50  1  0.96418027  0.33331562  0.58292567  1
  S  S51  1  0.66920206  0.04003768  0.08243804  1
  S  S52  1  0.62715698  0.65804722  0.91685314  1
  S  S53  1  0.34091926  0.36248985  0.41568651  1
  O  O54  1  0.22384693  0.01457003  0.30159775  1
  O  O55  1  0.78975126  0.78483394  0.30065433  1
  O  O56  1  0.99813991  0.21030253  0.30126158  1
  O  O57  1  0.22518169  0.21234097  0.80446933  1
  O  O58  1  0.99002754  0.77243389  0.80648436  1
  O  O59  1  0.78798609  0.00962393  0.81173071  1
  O  O60  1  0.76334033  0.95717980  0.69628349  1
  O  O61  1  0.20684565  0.23826325  0.70042119  1
  O  O62  1  0.03235066  0.79657001  0.70230403  1
  O  O63  1  0.77092609  0.78909060  0.19605691  1
  O  O64  1  0.00737761  0.21519473  0.19609327  1
  O  O65  1  0.21026978  0.98919432  0.19719502  1
  O  O66  1  0.89477458  0.35419521  0.63732007  1
  O  O67  1  0.45760305  0.11071831  0.64486303  1
  O  O68  1  0.66115063  0.54461170  0.64635832  1
  O  O69  1  0.88937544  0.53649514  0.14480320  1
  O  O70  1  0.64803795  0.11064956  0.13640263  1
  O  O71  1  0.45638571  0.34256398  0.14594105  1
  O  O72  1  0.48330214  0.32696445  0.02968066  1
  O  O73  1  0.84876144  0.51717155  0.02889668  1
  O  O74  1  0.67904913  0.14443538  0.03155322  1
  O  O75  1  0.47613171  0.14667949  0.53026434  1
  O  O76  1  0.66723080  0.51549580  0.53160874  1
  O  O77  1  0.85871728  0.32328670  0.53272570  1
  O  O78  1  0.56113296  0.68574945  0.97015904  1
  O  O79  1  0.13694945  0.44351405  0.97507652  1
  O  O80  1  0.31894138  0.87740383  0.97877122  1
  O  O81  1  0.56014183  0.85733026  0.46782154  1
  O  O82  1  0.31543559  0.43972873  0.46686373  1
  O  O83  1  0.13164901  0.67835328  0.46995896  1
  O  O84  1  0.07979108  0.61669591  0.35565496  1
  O  O85  1  0.53963294  0.91608445  0.35565662  1
  O  O86  1  0.36398736  0.46043912  0.36272018  1
  O  O87  1  0.13236994  0.49007580  0.86181790  1
  O  O88  1  0.35705066  0.86887081  0.86583152  1
  O  O89  1  0.51953705  0.64245531  0.86655726  1
  O  O90  1  0.99835476  0.82171595  0.41457596  1
  O  O91  1  0.83591359  0.02669718  0.41170498  1
  O  O92  1  0.20153226  0.19536740  0.40976422  1
  O  O93  1  0.99738410  0.18271684  0.91216231  1
  O  O94  1  0.17923287  0.99656139  0.91266258  1
  O  O95  1  0.79548324  0.79157637  0.90811264  1
  O  O96  1  0.96956260  0.17951769  0.58321837  1
  O  O97  1  0.18845819  0.03416083  0.58051471  1
  O  O98  1  0.82744639  0.81048756  0.57741063  1
  O  O99  1  0.96084316  0.80398798  0.07815529  1
  O  O100  1  0.82384408  0.03582759  0.08276850  1
  O  O101  1  0.18851231  0.17367791  0.07757620  1
  O  O102  1  0.66787756  0.15727421  0.75165111  1
  O  O103  1  0.47285021  0.33917093  0.74914814  1
  O  O104  1  0.86814400  0.52809697  0.74868854  1
  O  O105  1  0.67883454  0.53146974  0.24949060  1
  O  O106  1  0.85246513  0.31728848  0.24969815  1
  O  O107  1  0.47393012  0.14125733  0.24729540  1
  O  O108  1  0.62864421  0.50001651  0.91919843  1
  O  O109  1  0.84992091  0.36382301  0.91980986  1
  O  O110  1  0.51155104  0.15785052  0.91987211  1
  O  O111  1  0.65405051  0.16428646  0.42577135  1
  O  O112  1  0.49211490  0.35009024  0.42238451  1
  O  O113  1  0.82764874  0.49649580  0.42605884  1
  O  O114  1  0.36351361  0.50590820  0.08100525  1
  O  O115  1  0.15219307  0.66560159  0.08130317  1
  O  O116  1  0.53026902  0.87371590  0.07612005  1
  O  O117  1  0.33159796  0.84619387  0.58108643  1
  O  O118  1  0.49513587  0.63900072  0.58148027  1
  O  O119  1  0.13010563  0.47336995  0.57543427  1
  O  O120  1  0.31612310  0.84573326  0.25129431  1
  O  O121  1  0.52424655  0.67333285  0.25306895  1
  O  O122  1  0.15164518  0.46749703  0.24898120  1
  O  O123  1  0.31838606  0.47901082  0.75960640  1
  O  O124  1  0.16086797  0.68074952  0.75850415  1
  O  O125  1  0.49675419  0.82296228  0.75937459  1
