# generated using pymatgen
data_CsPbI2Br
_symmetry_space_group_name_H-M   'P 1'
_cell_length_a   5.96222000
_cell_length_b   6.37529600
_cell_length_c   6.37529600
_cell_angle_alpha   90.00000000
_cell_angle_beta   90.00000000
_cell_angle_gamma   90.00000000
_symmetry_Int_Tables_number   1
_chemical_formula_structural   CsPbI2Br
_chemical_formula_sum   'Cs1 Pb1 I2 Br1'
_cell_volume   242.33084913
_cell_formula_units_Z   1
loop_
 _symmetry_equiv_pos_site_id
 _symmetry_equiv_pos_as_xyz
  1  'x, y, z'
loop_
 _atom_site_type_symbol
 _atom_site_label
 _atom_site_symmetry_multiplicity
 _atom_site_fract_x
 _atom_site_fract_y
 _atom_site_fract_z
 _atom_site_occupancy
  Cs  Cs0  1  0.50000000  0.50000000  0.50000000  1
  Pb  Pb1  1  0.00000000  0.00000000  0.00000000  1
  I  I2  1  0.00000000  0.00000000  0.50000000  1
  I  I3  1  0.00000000  0.50000000  0.00000000  1
  Br  Br4  1  0.50000000  0.00000000  0.00000000  1
