# generated using pymatgen
data_Lu2MgV2O8
_symmetry_space_group_name_H-M   'P 1'
_cell_length_a   5.85968312
_cell_length_b   6.19177218
_cell_length_c   5.85968265
_cell_angle_alpha   103.86019892
_cell_angle_beta   107.03936152
_cell_angle_gamma   115.43584847
_symmetry_Int_Tables_number   1
_chemical_formula_structural   Lu2MgV2O8
_chemical_formula_sum   'Lu2 Mg1 V2 O8'
_cell_volume   166.31506156
_cell_formula_units_Z   1
loop_
 _symmetry_equiv_pos_site_id
 _symmetry_equiv_pos_as_xyz
  1  'x, y, z'
loop_
 _atom_site_type_symbol
 _atom_site_label
 _atom_site_symmetry_multiplicity
 _atom_site_fract_x
 _atom_site_fract_y
 _atom_site_fract_z
 _atom_site_occupancy
  Lu  Lu0  1  0.16221300  0.94056100  0.30682700  1
  Lu  Lu1  1  0.86626600  0.05943900  0.72165200  1
  Mg  Mg2  1  0.74649200  0.50000000  0.74649200  1
  V  V3  1  0.34479300  0.64485500  0.75742200  1
  V  V4  1  0.61256600  0.35514500  0.19993800  1
  O  O5  1  0.83724400  0.71479500  0.45657800  1
  O  O6  1  0.38205700  0.79011100  0.53491900  1
  O  O7  1  0.73955600  0.79658100  0.94929500  1
  O  O8  1  0.76477800  0.31178700  0.98734900  1
  O  O9  1  0.65271400  0.20341900  0.44297400  1
  O  O10  1  0.24178300  0.28520500  0.62244900  1
  O  O11  1  0.17556300  0.68821300  0.95299100  1
  O  O12  1  0.24480800  0.20988900  0.09194600  1
