# generated using pymatgen
data_Na2Mg4SiGe4S11O48
_symmetry_space_group_name_H-M   'P 1'
_cell_length_a   16.99971532
_cell_length_b   8.49510800
_cell_length_c   22.16587401
_cell_angle_alpha   90.17991627
_cell_angle_beta   90.01691069
_cell_angle_gamma   120.14778399
_symmetry_Int_Tables_number   1
_chemical_formula_structural   Na2Mg4SiGe4S11O48
_chemical_formula_sum   'Na6 Mg12 Si3 Ge12 S33 O144'
_cell_volume   2768.05184492
_cell_formula_units_Z   3
loop_
 _symmetry_equiv_pos_site_id
 _symmetry_equiv_pos_as_xyz
  1  'x, y, z'
loop_
 _atom_site_type_symbol
 _atom_site_label
 _atom_site_symmetry_multiplicity
 _atom_site_fract_x
 _atom_site_fract_y
 _atom_site_fract_z
 _atom_site_occupancy
  Na  Na0  1  0.99829466  0.99019263  0.49659492  1
  Na  Na1  1  0.49893443  0.00234446  0.99976888  1
  Na  Na2  1  0.33347777  0.32938624  0.83605607  1
  Na  Na3  1  0.83763208  0.33892649  0.83281746  1
  Na  Na4  1  0.33639350  0.33180658  0.33088897  1
  Na  Na5  1  0.83787082  0.33984765  0.33715539  1
  Mg  Mg6  1  0.00011551  0.99408443  0.35606740  1
  Mg  Mg7  1  0.00270201  0.00205727  0.85608863  1
  Mg  Mg8  1  0.33174763  0.33280637  0.68413670  1
  Mg  Mg9  1  0.83548934  0.33571018  0.68340333  1
  Mg  Mg10  1  0.33582739  0.33121203  0.18674585  1
  Mg  Mg11  1  0.83411185  0.33372740  0.18471172  1
  Mg  Mg12  1  0.33534871  0.33171415  0.98025450  1
  Mg  Mg13  1  0.83562108  0.33577573  0.98255515  1
  Mg  Mg14  1  0.33502005  0.33450911  0.48206047  1
  Mg  Mg15  1  0.83526212  0.33734335  0.47988046  1
  Mg  Mg16  1  0.66631266  0.66678945  0.52198748  1
  Mg  Mg17  1  0.16371695  0.66424517  0.81008761  1
  Si  Si18  1  0.50054981  0.29235135  0.25236499  1
  Si  Si19  1  0.52257313  0.38077363  0.91475710  1
  Si  Si20  1  0.02002549  0.66606691  0.41737576  1
  Ge  Ge21  1  0.49986837  0.00791619  0.35359835  1
  Ge  Ge22  1  0.49688945  0.00736771  0.85310480  1
  Ge  Ge23  1  0.99949678  0.99468608  0.64981103  1
  Ge  Ge24  1  0.50057928  0.00406566  0.64159864  1
  Ge  Ge25  1  0.00092167  0.00035873  0.14891569  1
  Ge  Ge26  1  0.50082909  0.01022020  0.15094017  1
  Ge  Ge27  1  0.16401799  0.66616059  0.01770493  1
  Ge  Ge28  1  0.66383730  0.65271058  0.02026467  1
  Ge  Ge29  1  0.16211345  0.66697068  0.51957013  1
  Ge  Ge30  1  0.15974959  0.66160906  0.31463936  1
  Ge  Ge31  1  0.66562088  0.65848484  0.31355802  1
  Ge  Ge32  1  0.66612930  0.66336597  0.81428847  1
  S  S33  1  0.14438902  0.99823325  0.25107885  1
  S  S34  1  0.64441425  0.99780535  0.25124035  1
  S  S35  1  0.35337773  0.71239038  0.25204889  1
  S  S36  1  0.85506044  0.71146155  0.25082773  1
  S  S37  1  0.00128194  0.29027519  0.25119256  1
  S  S38  1  0.14461887  0.28733893  0.75018859  1
  S  S39  1  0.64415080  0.28970348  0.75067994  1
  S  S40  1  0.99890850  0.71000469  0.75086907  1
  S  S41  1  0.50219592  0.71704011  0.75102454  1
  S  S42  1  0.35633741  0.99890651  0.74860998  1
  S  S43  1  0.85321079  0.99673461  0.75231006  1
  S  S44  1  0.47900756  0.33360262  0.58479964  1
  S  S45  1  0.98158940  0.33203557  0.58393135  1
  S  S46  1  0.18650681  0.03778590  0.58349354  1
  S  S47  1  0.68729647  0.04221371  0.58478391  1
  S  S48  1  0.33158459  0.62769766  0.58296924  1
  S  S49  1  0.83364067  0.62717895  0.58517522  1
  S  S50  1  0.48153418  0.63079504  0.08394706  1
  S  S51  1  0.98157215  0.63051211  0.08359773  1
  S  S52  1  0.33180786  0.03494278  0.08277897  1
  S  S53  1  0.83273315  0.03522709  0.08305780  1
  S  S54  1  0.18580476  0.33447766  0.08340096  1
  S  S55  1  0.68681936  0.33305610  0.08323025  1
  S  S56  1  0.31014198  0.66576689  0.91506079  1
  S  S57  1  0.81089914  0.66844425  0.91691531  1
  S  S58  1  0.02179585  0.37816003  0.91618461  1
  S  S59  1  0.16631108  0.95382827  0.91610835  1
  S  S60  1  0.66672284  0.95411517  0.91566692  1
  S  S61  1  0.31204922  0.95302562  0.41597197  1
  S  S62  1  0.80871122  0.95091167  0.41615568  1
  S  S63  1  0.16830141  0.38259734  0.41651575  1
  S  S64  1  0.66473580  0.37372119  0.41627845  1
  S  S65  1  0.52203786  0.67247282  0.41473499  1
  O  O66  1  0.10328858  0.02830439  0.30322382  1
  O  O67  1  0.60308103  0.03121337  0.30580396  1
  O  O68  1  0.41300337  0.79146143  0.30654707  1
  O  O69  1  0.91152269  0.79298131  0.30296669  1
  O  O70  1  0.48174305  0.15761941  0.31037889  1
  O  O71  1  0.98687428  0.17943458  0.30358639  1
  O  O72  1  0.10332046  0.17220689  0.80249025  1
  O  O73  1  0.60298758  0.17174703  0.80581827  1
  O  O74  1  0.48470861  0.79932595  0.80725760  1
  O  O75  1  0.98219511  0.79318388  0.80297523  1
  O  O76  1  0.41635058  0.03813472  0.80487230  1
  O  O77  1  0.90881718  0.02634523  0.80508236  1
  O  O78  1  0.40021260  0.96546603  0.69472350  1
  O  O79  1  0.89046750  0.95885617  0.69575808  1
  O  O80  1  0.08505772  0.20460881  0.69269085  1
  O  O81  1  0.58536306  0.20998572  0.69650219  1
  O  O82  1  0.01662582  0.82619167  0.69349672  1
  O  O83  1  0.51872012  0.83168600  0.69649618  1
  O  O84  1  0.39337831  0.82673653  0.19637626  1
  O  O85  1  0.89400288  0.82677508  0.19337409  1
  O  O86  1  0.01878282  0.21123055  0.19367305  1
  O  O87  1  0.52249777  0.20377819  0.19169846  1
  O  O88  1  0.08563251  0.95727828  0.19384118  1
  O  O89  1  0.58571606  0.95725199  0.19544473  1
  O  O90  1  0.43824315  0.35990875  0.63912204  1
  O  O91  1  0.94411657  0.36531815  0.63798145  1
  O  O92  1  0.24001612  0.11557564  0.63776223  1
  O  O93  1  0.74020767  0.12311014  0.63954406  1
  O  O94  1  0.31557409  0.52009213  0.63723262  1
  O  O95  1  0.82120144  0.52176165  0.63955430  1
  O  O96  1  0.44347159  0.52208149  0.13741868  1
  O  O97  1  0.94341926  0.51878123  0.13711961  1
  O  O98  1  0.31625107  0.11040807  0.13693022  1
  O  O99  1  0.81498884  0.11089542  0.13704627  1
  O  O100  1  0.24094909  0.36928961  0.13747406  1
  O  O101  1  0.73994375  0.36227065  0.13738754  1
  O  O102  1  0.22358339  0.29877076  0.02956354  1
  O  O103  1  0.72448885  0.30059640  0.02851793  1
  O  O104  1  0.42687641  0.55852517  0.02929671  1
  O  O105  1  0.92625226  0.55563103  0.02955180  1
  O  O106  1  0.35084817  0.14609956  0.02895772  1
  O  O107  1  0.84955048  0.14576304  0.02931050  1
  O  O108  1  0.22328256  0.14775728  0.52918246  1
  O  O109  1  0.72367167  0.15674907  0.53137043  1
  O  O110  1  0.34994012  0.55331286  0.52910836  1
  O  O111  1  0.85450212  0.55504927  0.53133047  1
  O  O112  1  0.42158731  0.29132473  0.53107201  1
  O  O113  1  0.92668843  0.29511578  0.52974353  1
  O  O114  1  0.27446492  0.70822217  0.97191405  1
  O  O115  1  0.76998121  0.70480899  0.97220886  1
  O  O116  1  0.08065744  0.45922412  0.97393328  1
  O  O117  1  0.58790873  0.46468581  0.97529517  1
  O  O118  1  0.14927542  0.83760276  0.97402489  1
  O  O119  1  0.64922113  0.84099680  0.97069971  1
  O  O120  1  0.27414692  0.83978708  0.47095484  1
  O  O121  1  0.76770210  0.83737664  0.46869798  1
  O  O122  1  0.15324812  0.46487074  0.47254334  1
  O  O123  1  0.64692695  0.45256817  0.46838607  1
  O  O124  1  0.08917560  0.70611687  0.47641922  1
  O  O125  1  0.57710432  0.70689124  0.46800446  1
  O  O126  1  0.06684365  0.62474034  0.35657675  1
  O  O127  1  0.56229897  0.63756839  0.35894925  1
  O  O128  1  0.25556094  0.87304910  0.36007113  1
  O  O129  1  0.74960401  0.86724123  0.35772979  1
  O  O130  1  0.18844071  0.49949816  0.36039902  1
  O  O131  1  0.68304871  0.48862087  0.35995403  1
  O  O132  1  0.06330421  0.49420991  0.86420401  1
  O  O133  1  0.56974664  0.50764665  0.85480838  1
  O  O134  1  0.18367752  0.87133503  0.86402884  1
  O  O135  1  0.68503697  0.87725950  0.85985994  1
  O  O136  1  0.25721966  0.64161469  0.86179431  1
  O  O137  1  0.75144595  0.63047331  0.86098778  1
  O  O138  1  0.01762794  0.84958748  0.41367370  1
  O  O139  1  0.51340732  0.84044919  0.40493985  1
  O  O140  1  0.40241184  0.96436164  0.40939298  1
  O  O141  1  0.89833974  0.97180834  0.40757816  1
  O  O142  1  0.08562746  0.20867129  0.41001364  1
  O  O143  1  0.58077027  0.18835021  0.40792871  1
  O  O144  1  0.01393440  0.20058920  0.91124981  1
  O  O145  1  0.51615381  0.17782783  0.90747178  1
  O  O146  1  0.08440137  0.96565030  0.91156802  1
  O  O147  1  0.58176762  0.96447567  0.90823934  1
  O  O148  1  0.40543431  0.83519617  0.90998723  1
  O  O149  1  0.89793572  0.82899526  0.90929896  1
  O  O150  1  0.48690813  0.16117799  0.59223345  1
  O  O151  1  0.99142958  0.16291573  0.59177171  1
  O  O152  1  0.09232916  0.01622067  0.59060374  1
  O  O153  1  0.59159709  0.02417900  0.59263248  1
  O  O154  1  0.41568846  0.81451282  0.59156979  1
  O  O155  1  0.92136506  0.82000093  0.59239788  1
  O  O156  1  0.49202115  0.82111217  0.09195373  1
  O  O157  1  0.99166126  0.81723925  0.09223295  1
  O  O158  1  0.41563640  0.01200350  0.08970925  1
  O  O159  1  0.91571237  0.01535103  0.09189329  1
  O  O160  1  0.09151992  0.16725262  0.09203793  1
  O  O161  1  0.59256548  0.16391650  0.08843029  1
  O  O162  1  0.35095271  0.16453508  0.74343429  1
  O  O163  1  0.84158322  0.15482655  0.74358826  1
  O  O164  1  0.23441466  0.30380447  0.74154832  1
  O  O165  1  0.73324219  0.30726302  0.74528111  1
  O  O166  1  0.42185379  0.53727554  0.74539693  1
  O  O167  1  0.91724977  0.52958648  0.74251391  1
  O  O168  1  0.34311831  0.53363197  0.24400748  1
  O  O169  1  0.84370835  0.53014873  0.24136045  1
  O  O170  1  0.41289277  0.31001740  0.24612624  1
  O  O171  1  0.92206774  0.31280220  0.24203155  1
  O  O172  1  0.23325036  0.15916556  0.24150066  1
  O  O173  1  0.73310755  0.16094596  0.24371608  1
  O  O174  1  0.32056753  0.50738570  0.92421339  1
  O  O175  1  0.81545046  0.50138134  0.92315161  1
  O  O176  1  0.42525934  0.35813418  0.92034423  1
  O  O177  1  0.93214442  0.36279516  0.92492238  1
  O  O178  1  0.24696485  0.13355398  0.92536679  1
  O  O179  1  0.74611470  0.13479428  0.92225883  1
  O  O180  1  0.32158875  0.13302260  0.42228322  1
  O  O181  1  0.81387457  0.12765686  0.42012693  1
  O  O182  1  0.24952882  0.36569869  0.42292539  1
  O  O183  1  0.74376038  0.35060458  0.42075510  1
  O  O184  1  0.43100019  0.51090791  0.41981680  1
  O  O185  1  0.92478978  0.48357168  0.42092069  1
  O  O186  1  0.17545357  0.50087533  0.07424983  1
  O  O187  1  0.67782894  0.50051414  0.07740202  1
  O  O188  1  0.07462207  0.65105717  0.07525321  1
  O  O189  1  0.57552142  0.65567325  0.07565696  1
  O  O190  1  0.24956137  0.84780261  0.07421550  1
  O  O191  1  0.74876186  0.84796109  0.07377863  1
  O  O192  1  0.17888184  0.85395968  0.57719555  1
  O  O193  1  0.67298295  0.86015438  0.57700261  1
  O  O194  1  0.25004730  0.65129831  0.57423929  1
  O  O195  1  0.75657364  0.65396879  0.57710204  1
  O  O196  1  0.07572546  0.49479048  0.57694855  1
  O  O197  1  0.56965062  0.48796059  0.57672403  1
  O  O198  1  0.15471784  0.83260129  0.25576468  1
  O  O199  1  0.65272076  0.83427223  0.25886042  1
  O  O200  1  0.26310484  0.70028219  0.25991162  1
  O  O201  1  0.76435598  0.69821604  0.25648212  1
  O  O202  1  0.08743962  0.47369365  0.25470520  1
  O  O203  1  0.59324277  0.48989866  0.26200857  1
  O  O204  1  0.15237196  0.46509144  0.75522044  1
  O  O205  1  0.65245742  0.47239122  0.75772036  1
  O  O206  1  0.08058760  0.69660024  0.75524496  1
  O  O207  1  0.58652263  0.70619774  0.75804251  1
  O  O208  1  0.26980557  0.83732216  0.75682486  1
  O  O209  1  0.75898874  0.82494553  0.75869492  1
