# generated using pymatgen
data_MgCr4(WO6)2
_symmetry_space_group_name_H-M   'P 1'
_cell_length_a   4.77225500
_cell_length_b   4.77224000
_cell_length_c   9.25078200
_cell_angle_alpha   90.00019515
_cell_angle_beta   90.00014636
_cell_angle_gamma   90.00002401
_symmetry_Int_Tables_number   1
_chemical_formula_structural   MgCr4(WO6)2
_chemical_formula_sum   'Mg1 Cr4 W2 O12'
_cell_volume   210.68051190
_cell_formula_units_Z   1
loop_
 _symmetry_equiv_pos_site_id
 _symmetry_equiv_pos_as_xyz
  1  'x, y, z'
loop_
 _atom_site_type_symbol
 _atom_site_label
 _atom_site_symmetry_multiplicity
 _atom_site_fract_x
 _atom_site_fract_y
 _atom_site_fract_z
 _atom_site_occupancy
  Mg  Mg0  1  0.99998600  0.49999000  0.75000300  1
  Cr  Cr1  1  0.00001400  0.00000500  0.33459500  1
  Cr  Cr2  1  0.49999700  0.50000900  0.16540400  1
  Cr  Cr3  1  0.49999800  0.49999800  0.84151900  1
  Cr  Cr4  1  0.99999800  0.99999800  0.65847900  1
  W  W5  1  0.00000200  0.99999900  0.00873100  1
  W  W6  1  0.49999900  0.49999900  0.49127000  1
  O  O7  1  0.29056900  0.30042300  0.99576200  1
  O  O8  1  0.19958000  0.79057300  0.50423600  1
  O  O9  1  0.80041700  0.20942500  0.50423600  1
  O  O10  1  0.70943700  0.69957800  0.99576100  1
  O  O11  1  0.69425300  0.69769000  0.66773900  1
  O  O12  1  0.30574300  0.30230800  0.66773800  1
  O  O13  1  0.69220700  0.69425800  0.33192800  1
  O  O14  1  0.19425900  0.80779300  0.16807200  1
  O  O15  1  0.80574400  0.19221000  0.16807200  1
  O  O16  1  0.80230000  0.19424700  0.83226400  1
  O  O17  1  0.30779400  0.30574300  0.33192700  1
  O  O18  1  0.19770100  0.80575400  0.83226300  1
