# generated using pymatgen
data_Na4Si3(GeO6)2
_symmetry_space_group_name_H-M   'P 1'
_cell_length_a   8.76136121
_cell_length_b   8.76136094
_cell_length_c   21.69817919
_cell_angle_alpha   90.00000000
_cell_angle_beta   90.00000000
_cell_angle_gamma   120.00000107
_symmetry_Int_Tables_number   1
_chemical_formula_structural   Na4Si3(GeO6)2
_chemical_formula_sum   'Na24 Si18 Ge12 O72'
_cell_volume   1442.43773770
_cell_formula_units_Z   6
loop_
 _symmetry_equiv_pos_site_id
 _symmetry_equiv_pos_as_xyz
  1  'x, y, z'
loop_
 _atom_site_type_symbol
 _atom_site_label
 _atom_site_symmetry_multiplicity
 _atom_site_fract_x
 _atom_site_fract_y
 _atom_site_fract_z
 _atom_site_occupancy
  Na  Na0  1  0.63238739  0.00000000  0.25000000  1
  Na  Na1  1  0.36761261  0.36761261  0.25000000  1
  Na  Na2  1  1.00000000  0.63238739  0.25000000  1
  Na  Na3  1  0.63238739  0.63238739  0.75000000  1
  Na  Na4  1  0.00000000  0.36761261  0.75000000  1
  Na  Na5  1  0.36761261  0.00000000  0.75000000  1
  Na  Na6  1  0.29905439  0.33333300  0.58333300  1
  Na  Na7  1  0.03427961  0.70094561  0.58333300  1
  Na  Na8  1  0.66666700  0.96572039  0.58333300  1
  Na  Na9  1  0.29905439  0.96572039  0.08333300  1
  Na  Na10  1  0.66666700  0.70094561  0.08333300  1
  Na  Na11  1  0.03427961  0.33333300  0.08333300  1
  Na  Na12  1  0.96572039  0.66666700  0.91666700  1
  Na  Na13  1  0.70094561  0.03427961  0.91666700  1
  Na  Na14  1  0.33333300  0.29905439  0.91666700  1
  Na  Na15  1  0.96572039  0.29905439  0.41666700  1
  Na  Na16  1  0.33333300  0.03427961  0.41666700  1
  Na  Na17  1  0.70094561  0.66666700  0.41666700  1
  Na  Na18  1  -0.00000000  0.00000000  0.50000000  1
  Na  Na19  1  -0.00000000  0.00000000  -0.00000000  1
  Na  Na20  1  0.66666700  0.33333300  0.83333300  1
  Na  Na21  1  0.66666700  0.33333300  0.33333300  1
  Na  Na22  1  0.33333300  0.66666700  0.16666700  1
  Na  Na23  1  0.33333300  0.66666700  0.66666700  1
  Si  Si24  1  0.28778736  0.00000000  0.25000000  1
  Si  Si25  1  0.71221264  0.71221264  0.25000000  1
  Si  Si26  1  1.00000000  0.28778736  0.25000000  1
  Si  Si27  1  0.28778736  0.28778736  0.75000000  1
  Si  Si28  1  0.00000000  0.71221264  0.75000000  1
  Si  Si29  1  0.71221264  0.00000000  0.75000000  1
  Si  Si30  1  0.95445436  0.33333300  0.58333300  1
  Si  Si31  1  0.37887964  0.04554564  0.58333300  1
  Si  Si32  1  0.66666700  0.62112036  0.58333300  1
  Si  Si33  1  0.95445436  0.62112036  0.08333300  1
  Si  Si34  1  0.66666700  0.04554564  0.08333300  1
  Si  Si35  1  0.37887964  0.33333300  0.08333300  1
  Si  Si36  1  0.62112036  0.66666700  0.91666700  1
  Si  Si37  1  0.04554564  0.37887964  0.91666700  1
  Si  Si38  1  0.33333300  0.95445436  0.91666700  1
  Si  Si39  1  0.62112036  0.95445436  0.41666700  1
  Si  Si40  1  0.33333300  0.37887964  0.41666700  1
  Si  Si41  1  0.04554564  0.66666700  0.41666700  1
  Ge  Ge42  1  -0.00000000  0.00000000  0.35284767  1
  Ge  Ge43  1  -0.00000000  0.00000000  0.85284767  1
  Ge  Ge44  1  -0.00000000  0.00000000  0.64715233  1
  Ge  Ge45  1  -0.00000000  0.00000000  0.14715233  1
  Ge  Ge46  1  0.66666700  0.33333300  0.68618067  1
  Ge  Ge47  1  0.66666700  0.33333300  0.18618067  1
  Ge  Ge48  1  0.66666700  0.33333300  0.98048533  1
  Ge  Ge49  1  0.66666700  0.33333300  0.48048533  1
  Ge  Ge50  1  0.33333300  0.66666700  0.01951467  1
  Ge  Ge51  1  0.33333300  0.66666700  0.51951467  1
  Ge  Ge52  1  0.33333300  0.66666700  0.31381933  1
  Ge  Ge53  1  0.33333300  0.66666700  0.81381933  1
  O  O54  1  0.20423521  0.04221650  0.31057064  1
  O  O55  1  0.83798129  0.79576479  0.31057064  1
  O  O56  1  0.95778350  0.16201871  0.31057064  1
  O  O57  1  0.20423521  0.16201871  0.81057064  1
  O  O58  1  0.95778350  0.79576479  0.81057064  1
  O  O59  1  0.83798129  0.04221650  0.81057064  1
  O  O60  1  0.79576479  0.95778350  0.68942936  1
  O  O61  1  0.16201871  0.20423521  0.68942936  1
  O  O62  1  0.04221650  0.83798129  0.68942936  1
  O  O63  1  0.79576479  0.83798129  0.18942936  1
  O  O64  1  0.04221650  0.20423521  0.18942936  1
  O  O65  1  0.16201871  0.95778350  0.18942936  1
  O  O66  1  0.87090221  0.37554950  0.64390364  1
  O  O67  1  0.50464829  0.12909779  0.64390364  1
  O  O68  1  0.62445050  0.49535171  0.64390364  1
  O  O69  1  0.87090221  0.49535171  0.14390364  1
  O  O70  1  0.62445050  0.12909779  0.14390364  1
  O  O71  1  0.50464829  0.37554950  0.14390364  1
  O  O72  1  0.46243179  0.29111650  0.02276236  1
  O  O73  1  0.82868571  0.53756821  0.02276236  1
  O  O74  1  0.70888350  0.17131429  0.02276236  1
  O  O75  1  0.46243179  0.17131429  0.52276236  1
  O  O76  1  0.70888350  0.53756821  0.52276236  1
  O  O77  1  0.82868571  0.29111650  0.52276236  1
  O  O78  1  0.53756821  0.70888350  0.97723764  1
  O  O79  1  0.17131429  0.46243179  0.97723764  1
  O  O80  1  0.29111650  0.82868571  0.97723764  1
  O  O81  1  0.53756821  0.82868571  0.47723764  1
  O  O82  1  0.29111650  0.46243179  0.47723764  1
  O  O83  1  0.17131429  0.70888350  0.47723764  1
  O  O84  1  0.12909779  0.62445050  0.35609636  1
  O  O85  1  0.49535171  0.87090221  0.35609636  1
  O  O86  1  0.37554950  0.50464829  0.35609636  1
  O  O87  1  0.12909779  0.50464829  0.85609636  1
  O  O88  1  0.37554950  0.87090221  0.85609636  1
  O  O89  1  0.49535171  0.62445050  0.85609636  1
  O  O90  1  0.02549887  0.84251582  0.41029320  1
  O  O91  1  0.81701694  0.97450113  0.41029320  1
  O  O92  1  0.15748418  0.18298306  0.41029320  1
  O  O93  1  0.02549887  0.18298306  0.91029320  1
  O  O94  1  0.15748418  0.97450113  0.91029320  1
  O  O95  1  0.81701694  0.84251582  0.91029320  1
  O  O96  1  0.97450113  0.15748418  0.58970680  1
  O  O97  1  0.18298306  0.02549887  0.58970680  1
  O  O98  1  0.84251582  0.81701694  0.58970680  1
  O  O99  1  0.97450113  0.81701694  0.08970680  1
  O  O100  1  0.84251582  0.02549887  0.08970680  1
  O  O101  1  0.18298306  0.15748418  0.08970680  1
  O  O102  1  0.69216587  0.17584882  0.74362620  1
  O  O103  1  0.48368394  0.30783413  0.74362620  1
  O  O104  1  0.82415118  0.51631606  0.74362620  1
  O  O105  1  0.69216587  0.51631606  0.24362620  1
  O  O106  1  0.82415118  0.30783413  0.24362620  1
  O  O107  1  0.48368394  0.17584882  0.24362620  1
  O  O108  1  0.64116813  0.49081718  0.92303980  1
  O  O109  1  0.84965006  0.35883187  0.92303980  1
  O  O110  1  0.50918282  0.15034994  0.92303980  1
  O  O111  1  0.64116813  0.15034994  0.42303980  1
  O  O112  1  0.50918282  0.35883187  0.42303980  1
  O  O113  1  0.84965006  0.49081718  0.42303980  1
  O  O114  1  0.35883187  0.50918282  0.07696020  1
  O  O115  1  0.15034994  0.64116813  0.07696020  1
  O  O116  1  0.49081718  0.84965006  0.07696020  1
  O  O117  1  0.35883187  0.84965006  0.57696020  1
  O  O118  1  0.49081718  0.64116813  0.57696020  1
  O  O119  1  0.15034994  0.50918282  0.57696020  1
  O  O120  1  0.30783413  0.82415118  0.25637380  1
  O  O121  1  0.51631606  0.69216587  0.25637380  1
  O  O122  1  0.17584882  0.48368394  0.25637380  1
  O  O123  1  0.30783413  0.48368394  0.75637380  1
  O  O124  1  0.17584882  0.69216587  0.75637380  1
  O  O125  1  0.51631606  0.82415118  0.75637380  1
