# generated using pymatgen
data_MgFe6(OF)6
_symmetry_space_group_name_H-M   'P 1'
_cell_length_a   8.14659572
_cell_length_b   5.98122725
_cell_length_c   5.77138373
_cell_angle_alpha   68.43353444
_cell_angle_beta   66.70994277
_cell_angle_gamma   64.49323866
_symmetry_Int_Tables_number   1
_chemical_formula_structural   MgFe6(OF)6
_chemical_formula_sum   'Mg1 Fe6 O6 F6'
_cell_volume   226.42877943
_cell_formula_units_Z   1
loop_
 _symmetry_equiv_pos_site_id
 _symmetry_equiv_pos_as_xyz
  1  'x, y, z'
loop_
 _atom_site_type_symbol
 _atom_site_label
 _atom_site_symmetry_multiplicity
 _atom_site_fract_x
 _atom_site_fract_y
 _atom_site_fract_z
 _atom_site_occupancy
  Mg  Mg0  1  0.99794900  0.49503500  0.01127200  1
  Fe  Fe1  1  0.81067000  0.64702200  0.62771200  1
  Fe  Fe2  1  0.64868300  0.30587200  0.33220900  1
  Fe  Fe3  1  0.34522100  0.70247300  0.62673100  1
  Fe  Fe4  1  0.21287100  0.35152300  0.39073700  1
  Fe  Fe5  1  0.51098800  0.95669800  0.99913400  1
  Fe  Fe6  1  0.00844300  0.98955200  0.99830200  1
  O  O7  1  0.65319000  0.00290500  0.62826000  1
  O  O8  1  0.38569300  0.47173100  0.40359800  1
  O  O9  1  0.35497700  0.01208100  0.33876000  1
  O  O10  1  0.70624000  0.61541700  0.02954500  1
  O  O11  1  0.02405400  0.33131600  0.73301400  1
  O  O12  1  0.99455900  0.65005900  0.27663100  1
  F  F13  1  0.29454600  0.38611600  0.95016000  1
  F  F14  1  0.31867900  0.88021600  0.91766000  1
  F  F15  1  0.94114500  0.19580400  0.27258200  1
  F  F16  1  0.64507200  0.51368700  0.58125000  1
  F  F17  1  0.03972600  0.79508100  0.73559800  1
  F  F18  1  0.69896100  0.11407900  0.07541700  1
