# generated using pymatgen
data_Na3YTiSi2SO12
_symmetry_space_group_name_H-M   'P 1'
_cell_length_a   9.27878743
_cell_length_b   9.27878709
_cell_length_c   22.42725642
_cell_angle_alpha   87.65397830
_cell_angle_beta   92.34602174
_cell_angle_gamma   119.57428683
_symmetry_Int_Tables_number   1
_chemical_formula_structural   Na3YTiSi2SO12
_chemical_formula_sum   'Na18 Y6 Ti6 Si12 S6 O72'
_cell_volume   1677.44587279
_cell_formula_units_Z   6
loop_
 _symmetry_equiv_pos_site_id
 _symmetry_equiv_pos_as_xyz
  1  'x, y, z'
loop_
 _atom_site_type_symbol
 _atom_site_label
 _atom_site_symmetry_multiplicity
 _atom_site_fract_x
 _atom_site_fract_y
 _atom_site_fract_z
 _atom_site_occupancy
  Na  Na0  1  0.63884645  0.99997339  0.24184007  1
  Na  Na1  1  0.99442671  0.63361136  0.24906917  1
  Na  Na2  1  0.00002661  0.36115355  0.74184007  1
  Na  Na3  1  0.36638864  0.00557329  0.74906917  1
  Na  Na4  1  0.30551345  0.33330639  0.57517307  1
  Na  Na5  1  0.66109371  0.96694436  0.58240217  1
  Na  Na6  1  0.66669361  0.69448655  0.07517307  1
  Na  Na7  1  0.03305564  0.33890629  0.08240217  1
  Na  Na8  1  0.97217945  0.66664039  0.90850707  1
  Na  Na9  1  0.32775971  0.30027836  0.91573617  1
  Na  Na10  1  0.33335961  0.02782055  0.40850707  1
  Na  Na11  1  0.69972164  0.67224029  0.41573617  1
  Na  Na12  1  0.99834817  0.02854725  0.49909450  1
  Na  Na13  1  0.97145275  0.00165183  0.99909450  1
  Na  Na14  1  0.66501517  0.36188025  0.83242750  1
  Na  Na15  1  0.63811975  0.33498483  0.33242750  1
  Na  Na16  1  0.33168117  0.69521425  0.16576150  1
  Na  Na17  1  0.30478575  0.66831883  0.66576150  1
  Y  Y18  1  0.00837000  0.01322718  0.35165468  1
  Y  Y19  1  0.98677282  0.99163000  0.85165468  1
  Y  Y20  1  0.67503700  0.34656018  0.68498768  1
  Y  Y21  1  0.65343982  0.32496300  0.18498768  1
  Y  Y22  1  0.34170300  0.67989418  0.01832168  1
  Y  Y23  1  0.32010582  0.65829700  0.51832168  1
  Ti  Ti24  1  0.03969068  0.01617803  0.64598382  1
  Ti  Ti25  1  0.98382197  0.96030932  0.14598382  1
  Ti  Ti26  1  0.70635768  0.34951103  0.97931682  1
  Ti  Ti27  1  0.65048897  0.29364232  0.47931682  1
  Ti  Ti28  1  0.37302368  0.68284503  0.31265082  1
  Ti  Ti29  1  0.31715497  0.62697632  0.81265082  1
  Si  Si30  1  0.28976153  0.98485865  0.25442928  1
  Si  Si31  1  0.70208378  0.70115027  0.25236637  1
  Si  Si32  1  0.29884973  0.29791622  0.75236637  1
  Si  Si33  1  0.01514135  0.71023847  0.75442928  1
  Si  Si34  1  0.95642853  0.31819165  0.58776228  1
  Si  Si35  1  0.36875078  0.03448327  0.58569937  1
  Si  Si36  1  0.96551673  0.63124922  0.08569937  1
  Si  Si37  1  0.68180835  0.04357147  0.08776228  1
  Si  Si38  1  0.62309453  0.65152565  0.92109628  1
  Si  Si39  1  0.03541678  0.36781727  0.91903337  1
  Si  Si40  1  0.63218273  0.96458322  0.41903337  1
  Si  Si41  1  0.34847435  0.37690547  0.42109628  1
  S  S42  1  0.01715318  0.31378635  0.24539192  1
  S  S43  1  0.68621365  0.98284682  0.74539192  1
  S  S44  1  0.68382018  0.64711935  0.57872492  1
  S  S45  1  0.35288065  0.31617982  0.07872492  1
  S  S46  1  0.35048618  0.98045335  0.91205892  1
  S  S47  1  0.01954665  0.64951382  0.41205892  1
  O  O48  1  0.21564394  0.00319165  0.31529217  1
  O  O49  1  0.80618567  0.79323168  0.31082497  1
  O  O50  1  0.00178982  0.21081457  0.29898098  1
  O  O51  1  0.20676832  0.19381433  0.81082497  1
  O  O52  1  0.99680835  0.78435606  0.81529217  1
  O  O53  1  0.78918543  0.99821018  0.79898098  1
  O  O54  1  0.76769847  0.97636095  0.69115330  1
  O  O55  1  0.17645015  0.20036403  0.69138669  1
  O  O56  1  0.03322613  0.84825137  0.69773233  1
  O  O57  1  0.79963597  0.82354985  0.19138669  1
  O  O58  1  0.02363905  0.23230153  0.19115330  1
  O  O59  1  0.15174863  0.96677387  0.19773233  1
  O  O60  1  0.88231094  0.33652465  0.64862517  1
  O  O61  1  0.47285267  0.12656468  0.64415797  1
  O  O62  1  0.66845682  0.54414757  0.63231398  1
  O  O63  1  0.87343532  0.52714733  0.14415797  1
  O  O64  1  0.66347535  0.11768906  0.14862517  1
  O  O65  1  0.45585243  0.33154318  0.13231398  1
  O  O66  1  0.43436547  0.30969395  0.02448630  1
  O  O67  1  0.84311715  0.53369703  0.02471969  1
  O  O68  1  0.69989313  0.18158437  0.03106533  1
  O  O69  1  0.46630297  0.15688285  0.52471969  1
  O  O70  1  0.69030605  0.56563453  0.52448630  1
  O  O71  1  0.81841563  0.30010687  0.53106533  1
  O  O72  1  0.54897694  0.66985865  0.98195917  1
  O  O73  1  0.13951867  0.45989868  0.97749197  1
  O  O74  1  0.33512282  0.87748157  0.96564798  1
  O  O75  1  0.54010132  0.86048133  0.47749197  1
  O  O76  1  0.33014135  0.45102306  0.48195917  1
  O  O77  1  0.12251843  0.66487718  0.46564798  1
  O  O78  1  0.10103147  0.64302795  0.35782030  1
  O  O79  1  0.50978315  0.86703103  0.35805369  1
  O  O80  1  0.36655913  0.51491837  0.36439933  1
  O  O81  1  0.13296897  0.49021685  0.85805369  1
  O  O82  1  0.35697205  0.89896853  0.85782030  1
  O  O83  1  0.48508163  0.63344087  0.86439933  1
  O  O84  1  0.00057960  0.80086104  0.41318078  1
  O  O85  1  0.81395584  0.98473420  0.41572376  1
  O  O86  1  0.19905547  0.18735042  0.41513435  1
  O  O87  1  0.01526580  0.18604416  0.91572376  1
  O  O88  1  0.19913896  0.99942040  0.91318078  1
  O  O89  1  0.81264958  0.80094453  0.91513435  1
  O  O90  1  0.96067792  0.13861577  0.58994278  1
  O  O91  1  0.18741482  0.03455760  0.58728106  1
  O  O92  1  0.83272875  0.81442130  0.58353703  1
  O  O93  1  0.96544240  0.81258518  0.08728106  1
  O  O94  1  0.86138423  0.03932208  0.08994278  1
  O  O95  1  0.18557870  0.16727125  0.08353703  1
  O  O96  1  0.66724660  0.13419404  0.74651378  1
  O  O97  1  0.48062284  0.31806720  0.74905676  1
  O  O98  1  0.86572247  0.52068342  0.74846735  1
  O  O99  1  0.68193280  0.51937716  0.24905676  1
  O  O100  1  0.86580596  0.33275340  0.24651378  1
  O  O101  1  0.47931658  0.13427753  0.24846735  1
  O  O102  1  0.62734492  0.47194877  0.92327578  1
  O  O103  1  0.85408182  0.36789060  0.92061406  1
  O  O104  1  0.49939575  0.14775430  0.91687003  1
  O  O105  1  0.63210940  0.14591818  0.42061406  1
  O  O106  1  0.52805123  0.37265508  0.42327578  1
  O  O107  1  0.85224570  0.50060425  0.41687003  1
  O  O108  1  0.33391260  0.46752804  0.07984778  1
  O  O109  1  0.14728884  0.65140120  0.08239076  1
  O  O110  1  0.53238847  0.85401742  0.08180135  1
  O  O111  1  0.34859880  0.85271116  0.58239076  1
  O  O112  1  0.53247196  0.66608740  0.57984778  1
  O  O113  1  0.14598258  0.46761153  0.58180135  1
  O  O114  1  0.29401092  0.80528277  0.25660978  1
  O  O115  1  0.52074782  0.70122460  0.25394806  1
  O  O116  1  0.16606175  0.48108830  0.25020403  1
  O  O117  1  0.29877540  0.47925218  0.75394806  1
  O  O118  1  0.19471723  0.70598908  0.75660978  1
  O  O119  1  0.51891170  0.83393825  0.75020403  1
