# generated using pymatgen
data_Nb2Zn4(SO4)9
_symmetry_space_group_name_H-M   'P 1'
_cell_length_a   8.74038391
_cell_length_b   8.74038363
_cell_length_c   22.52397231
_cell_angle_alpha   90.00000000
_cell_angle_beta   90.00000000
_cell_angle_gamma   120.00000109
_symmetry_Int_Tables_number   1
_chemical_formula_structural   Nb2Zn4(SO4)9
_chemical_formula_sum   'Nb4 Zn8 S18 O72'
_cell_volume   1490.17274365
_cell_formula_units_Z   2
loop_
 _symmetry_equiv_pos_site_id
 _symmetry_equiv_pos_as_xyz
  1  'x, y, z'
loop_
 _atom_site_type_symbol
 _atom_site_label
 _atom_site_symmetry_multiplicity
 _atom_site_fract_x
 _atom_site_fract_y
 _atom_site_fract_z
 _atom_site_occupancy
  Nb  Nb0  1  0.66666700  0.33333300  0.98152333  1
  Nb  Nb1  1  0.66666700  0.33333300  0.48152333  1
  Nb  Nb2  1  0.33333300  0.66666700  0.30801272  1
  Nb  Nb3  1  0.33333300  0.66666700  0.80801272  1
  Zn  Zn4  1  -0.00000000  0.00000000  0.35202288  1
  Zn  Zn5  1  -0.00000000  0.00000000  0.85202288  1
  Zn  Zn6  1  -0.00000000  0.00000000  0.64571527  1
  Zn  Zn7  1  -0.00000000  0.00000000  0.14571527  1
  Zn  Zn8  1  0.66666700  0.33333300  0.68679855  1
  Zn  Zn9  1  0.66666700  0.33333300  0.18679855  1
  Zn  Zn10  1  0.33333300  0.66666700  0.02146851  1
  Zn  Zn11  1  0.33333300  0.66666700  0.52146851  1
  S  S12  1  0.29044861  0.00810084  0.24980912  1
  S  S13  1  0.71765224  0.70955139  0.24980912  1
  S  S14  1  0.99189916  0.28234776  0.24980912  1
  S  S15  1  0.29044861  0.28234776  0.74980912  1
  S  S16  1  0.99189916  0.70955139  0.74980912  1
  S  S17  1  0.71765224  0.00810084  0.74980912  1
  S  S18  1  0.96164738  0.33452998  0.58575889  1
  S  S19  1  0.37288360  0.03835262  0.58575889  1
  S  S20  1  0.66547002  0.62711640  0.58575889  1
  S  S21  1  0.96164738  0.62711640  0.08575889  1
  S  S22  1  0.66547002  0.03835262  0.08575889  1
  S  S23  1  0.37288360  0.33452998  0.08575889  1
  S  S24  1  0.62484799  0.67118573  0.91761148  1
  S  S25  1  0.04633674  0.37515201  0.91761148  1
  S  S26  1  0.32881427  0.95366326  0.91761148  1
  S  S27  1  0.62484799  0.95366326  0.41761148  1
  S  S28  1  0.32881427  0.37515201  0.41761148  1
  S  S29  1  0.04633674  0.67118573  0.41761148  1
  O  O30  1  0.21260624  0.02938109  0.30423990  1
  O  O31  1  0.81677484  0.78739376  0.30423990  1
  O  O32  1  0.97061891  0.18322516  0.30423990  1
  O  O33  1  0.21260624  0.18322516  0.80423990  1
  O  O34  1  0.97061891  0.78739376  0.80423990  1
  O  O35  1  0.81677484  0.02938109  0.80423990  1
  O  O36  1  0.78188589  0.96105024  0.69713474  1
  O  O37  1  0.17916436  0.21811411  0.69713474  1
  O  O38  1  0.03894976  0.82083564  0.69713474  1
  O  O39  1  0.78188589  0.82083564  0.19713474  1
  O  O40  1  0.03894976  0.21811411  0.19713474  1
  O  O41  1  0.17916436  0.96105024  0.19713474  1
  O  O42  1  0.87650399  0.36511865  0.63615367  1
  O  O43  1  0.48861566  0.12349601  0.63615367  1
  O  O44  1  0.63488135  0.51138434  0.63615367  1
  O  O45  1  0.87650399  0.51138434  0.13615367  1
  O  O46  1  0.63488135  0.12349601  0.13615367  1
  O  O47  1  0.48861566  0.36511865  0.13615367  1
  O  O48  1  0.46793730  0.30653565  0.02945186  1
  O  O49  1  0.83859935  0.53206270  0.02945186  1
  O  O50  1  0.69346435  0.16140065  0.02945186  1
  O  O51  1  0.46793730  0.16140065  0.52945186  1
  O  O52  1  0.69346435  0.53206270  0.52945186  1
  O  O53  1  0.83859935  0.30653565  0.52945186  1
  O  O54  1  0.54304900  0.69587048  0.96984881  1
  O  O55  1  0.15282047  0.45695100  0.96984881  1
  O  O56  1  0.30412952  0.84717953  0.96984881  1
  O  O57  1  0.54304900  0.84717953  0.46984881  1
  O  O58  1  0.30412952  0.45695100  0.46984881  1
  O  O59  1  0.15282047  0.69587048  0.46984881  1
  O  O60  1  0.12753557  0.63502296  0.36335154  1
  O  O61  1  0.50748639  0.87246443  0.36335154  1
  O  O62  1  0.36497704  0.49251361  0.36335154  1
  O  O63  1  0.12753557  0.49251361  0.86335154  1
  O  O64  1  0.36497704  0.87246443  0.86335154  1
  O  O65  1  0.50748639  0.63502296  0.86335154  1
  O  O66  1  0.02113189  0.82085816  0.40733874  1
  O  O67  1  0.79972627  0.97886811  0.40733874  1
  O  O68  1  0.17914184  0.20027373  0.40733874  1
  O  O69  1  0.02113189  0.20027373  0.90733874  1
  O  O70  1  0.17914184  0.97886811  0.90733874  1
  O  O71  1  0.79972627  0.82085816  0.90733874  1
  O  O72  1  0.96974870  0.17232280  0.58884927  1
  O  O73  1  0.20257410  0.03025130  0.58884927  1
  O  O74  1  0.82767720  0.79742590  0.58884927  1
  O  O75  1  0.96974870  0.79742590  0.08884927  1
  O  O76  1  0.82767720  0.03025130  0.08884927  1
  O  O77  1  0.20257410  0.17232280  0.08884927  1
  O  O78  1  0.68410176  0.15381620  0.74247664  1
  O  O79  1  0.46971544  0.31589824  0.74247664  1
  O  O80  1  0.84618380  0.53028456  0.74247664  1
  O  O81  1  0.68410176  0.53028456  0.24247664  1
  O  O82  1  0.84618380  0.31589824  0.24247664  1
  O  O83  1  0.46971544  0.15381620  0.24247664  1
  O  O84  1  0.63860770  0.50528438  0.92485674  1
  O  O85  1  0.86667768  0.36139230  0.92485674  1
  O  O86  1  0.49471562  0.13332232  0.92485674  1
  O  O87  1  0.63860770  0.13332232  0.42485674  1
  O  O88  1  0.49471562  0.36139230  0.42485674  1
  O  O89  1  0.86667768  0.50528438  0.42485674  1
  O  O90  1  0.36045017  0.49102362  0.07353993  1
  O  O91  1  0.13057245  0.63954983  0.07353993  1
  O  O92  1  0.50897638  0.86942755  0.07353993  1
  O  O93  1  0.36045017  0.86942755  0.57353993  1
  O  O94  1  0.50897638  0.63954983  0.57353993  1
  O  O95  1  0.13057245  0.49102362  0.57353993  1
  O  O96  1  0.30919623  0.83907857  0.26106492  1
  O  O97  1  0.52988134  0.69080377  0.26106492  1
  O  O98  1  0.16092143  0.47011866  0.26106492  1
  O  O99  1  0.30919623  0.47011866  0.76106492  1
  O  O100  1  0.16092143  0.69080377  0.76106492  1
  O  O101  1  0.52988134  0.83907857  0.76106492  1
