# generated using pymatgen
data_Na2Mg(MoO3)2
_symmetry_space_group_name_H-M   'P 1'
_cell_length_a   6.00401500
_cell_length_b   5.52847583
_cell_length_c   6.60805892
_cell_angle_alpha   55.33920206
_cell_angle_beta   55.30607695
_cell_angle_gamma   55.96943704
_symmetry_Int_Tables_number   1
_chemical_formula_structural   Na2Mg(MoO3)2
_chemical_formula_sum   'Na2 Mg1 Mo2 O6'
_cell_volume   139.01968503
_cell_formula_units_Z   1
loop_
 _symmetry_equiv_pos_site_id
 _symmetry_equiv_pos_as_xyz
  1  'x, y, z'
loop_
 _atom_site_type_symbol
 _atom_site_label
 _atom_site_symmetry_multiplicity
 _atom_site_fract_x
 _atom_site_fract_y
 _atom_site_fract_z
 _atom_site_occupancy
  Na  Na0  1  0.23004332  0.26848361  0.09348233  1
  Na  Na1  1  0.75046561  0.71376342  0.85192816  1
  Mg  Mg2  1  0.41190961  0.16187828  0.42471389  1
  Mo  Mo3  1  0.01256698  0.98260031  -0.00246236  1
  Mo  Mo4  1  0.58165011  0.47738304  0.52858818  1
  O  O5  1  0.63362592  0.86778005  0.21667741  1
  O  O6  1  0.23098556  0.59847553  0.20364514  1
  O  O7  1  0.80027316  0.22834059  0.24972744  1
  O  O8  1  0.77841024  0.35278273  0.73829123  1
  O  O9  1  0.36037632  0.18275690  0.74045791  1
  O  O10  1  0.21907217  0.80608655  0.70062566  1
