# generated using pymatgen
data_Na3Mg4Nb8P15(SO24)3
_symmetry_space_group_name_H-M   'P 1'
_cell_length_a   8.75346094
_cell_length_b   8.74625468
_cell_length_c   22.74619957
_cell_angle_alpha   90.02112902
_cell_angle_beta   90.05481202
_cell_angle_gamma   119.85508309
_symmetry_Int_Tables_number   1
_chemical_formula_structural   Na3Mg4Nb8P15(SO24)3
_chemical_formula_sum   'Na3 Mg4 Nb8 P15 S3 O72'
_cell_volume   1510.33515069
_cell_formula_units_Z   1
loop_
 _symmetry_equiv_pos_site_id
 _symmetry_equiv_pos_as_xyz
  1  'x, y, z'
loop_
 _atom_site_type_symbol
 _atom_site_label
 _atom_site_symmetry_multiplicity
 _atom_site_fract_x
 _atom_site_fract_y
 _atom_site_fract_z
 _atom_site_occupancy
  Na  Na0  1  0.99980210  0.99577767  0.99200867  1
  Na  Na1  1  0.66240996  0.33306975  0.84097557  1
  Na  Na2  1  0.66164426  0.33457727  0.33840094  1
  Mg  Mg3  1  0.99921333  0.99487728  0.85450560  1
  Mg  Mg4  1  0.66132543  0.33249692  0.97872880  1
  Mg  Mg5  1  0.66186581  0.33278371  0.48153100  1
  Mg  Mg6  1  0.33517716  0.66260721  0.30850573  1
  Nb  Nb7  1  0.00492557  0.00604769  0.35688627  1
  Nb  Nb8  1  0.00267241  0.00043078  0.64494487  1
  Nb  Nb9  1  0.00002736  0.99880039  0.14614121  1
  Nb  Nb10  1  0.66466811  0.33239986  0.68753949  1
  Nb  Nb11  1  0.66649446  0.33555192  0.18758351  1
  Nb  Nb12  1  0.34005831  0.67501880  0.02304052  1
  Nb  Nb13  1  0.33044418  0.65662161  0.52440611  1
  Nb  Nb14  1  0.34215715  0.67387118  0.81021413  1
  P  P15  1  0.28833090  0.99687484  0.25119033  1
  P  P16  1  0.71170455  0.71456718  0.25146290  1
  P  P17  1  0.00144131  0.29004732  0.25075647  1
  P  P18  1  0.28373987  0.28340227  0.75257739  1
  P  P19  1  0.99857604  0.71346213  0.75198920  1
  P  P20  1  0.72003270  0.00392549  0.75185522  1
  P  P21  1  0.94653671  0.32893961  0.58114709  1
  P  P22  1  0.38142814  0.04767959  0.58083846  1
  P  P23  1  0.67114649  0.61989853  0.58140538  1
  P  P24  1  0.95078539  0.61755248  0.08070495  1
  P  P25  1  0.67056225  0.05242696  0.08130734  1
  P  P26  1  0.37932053  0.33180191  0.08115422  1
  P  P27  1  0.62709104  0.66694763  0.91673825  1
  P  P28  1  0.33340071  0.96042015  0.91661281  1
  P  P29  1  0.34368019  0.38508122  0.41392302  1
  S  S30  1  0.04467682  0.37804056  0.91654920  1
  S  S31  1  0.61751311  0.95553372  0.41531200  1
  S  S32  1  0.04391344  0.66167448  0.41520396  1
  O  O33  1  0.19959001  0.03493485  0.30531565  1
  O  O34  1  0.83649104  0.80106591  0.30527288  1
  O  O35  1  0.96459540  0.16464430  0.30503718  1
  O  O36  1  0.21112275  0.17175130  0.80607557  1
  O  O37  1  0.95798332  0.78526891  0.80549120  1
  O  O38  1  0.82833304  0.04036545  0.80610527  1
  O  O39  1  0.80130496  0.97453441  0.69535469  1
  O  O40  1  0.17356777  0.19974545  0.69570343  1
  O  O41  1  0.02709436  0.82581908  0.69552496  1
  O  O42  1  0.80819900  0.82571456  0.19594450  1
  O  O43  1  0.01859989  0.19276792  0.19599409  1
  O  O44  1  0.17500714  0.97989746  0.19613815  1
  O  O45  1  0.86636512  0.36317076  0.63728522  1
  O  O46  1  0.49567877  0.13059459  0.63724343  1
  O  O47  1  0.63516847  0.50434338  0.63739683  1
  O  O48  1  0.86522798  0.50497754  0.13787691  1
  O  O49  1  0.64035473  0.13531591  0.13814169  1
  O  O50  1  0.49402718  0.36107768  0.13804030  1
  O  O51  1  0.45311434  0.29201412  0.02805594  1
  O  O52  1  0.83807544  0.54284362  0.02747080  1
  O  O53  1  0.70591721  0.16191133  0.02748060  1
  O  O54  1  0.45542094  0.15853814  0.52749647  1
  O  O55  1  0.70499448  0.54581000  0.52737144  1
  O  O56  1  0.84052526  0.29806413  0.52678197  1
  O  O57  1  0.52206263  0.68366613  0.97133338  1
  O  O58  1  0.15560176  0.46675394  0.97028925  1
  O  O59  1  0.31309675  0.83837547  0.97163454  1
  O  O60  1  0.53826391  0.84494584  0.46949215  1
  O  O61  1  0.30904034  0.47051206  0.47131855  1
  O  O62  1  0.15495691  0.69491889  0.46974905  1
  O  O63  1  0.12773193  0.64119731  0.36337097  1
  O  O64  1  0.51208277  0.87452843  0.36337359  1
  O  O65  1  0.36086889  0.49455724  0.36146684  1
  O  O66  1  0.13308375  0.48864843  0.86308122  1
  O  O67  1  0.35014294  0.85542562  0.86193401  1
  O  O68  1  0.50516350  0.64662781  0.86160317  1
  O  O69  1  0.02933097  0.82778628  0.40892861  1
  O  O70  1  0.79698000  0.96730093  0.40871935  1
  O  O71  1  0.16668464  0.19808980  0.40727071  1
  O  O72  1  0.03424146  0.20642024  0.91202789  1
  O  O73  1  0.16476401  0.96723225  0.91335959  1
  O  O74  1  0.79914719  0.83841343  0.91350759  1
  O  O75  1  0.97984675  0.17458993  0.59541122  1
  O  O76  1  0.19537016  0.01941932  0.59581180  1
  O  O77  1  0.82615818  0.80624384  0.59589865  1
  O  O78  1  0.98032774  0.80688075  0.09357662  1
  O  O79  1  0.82809837  0.01987651  0.09348579  1
  O  O80  1  0.19145697  0.17202734  0.09421691  1
  O  O81  1  0.68751326  0.16235882  0.73953239  1
  O  O82  1  0.47360322  0.31276963  0.73941062  1
  O  O83  1  0.83777259  0.52455240  0.73862885  1
  O  O84  1  0.70126248  0.53084500  0.24227824  1
  O  O85  1  0.82747535  0.29793334  0.24239504  1
  O  O86  1  0.46950169  0.17051114  0.24241986  1
  O  O87  1  0.63382159  0.49812482  0.91994494  1
  O  O88  1  0.87323291  0.36744568  0.92138950  1
  O  O89  1  0.50482565  0.13247834  0.91988469  1
  O  O90  1  0.64810459  0.13445396  0.42337503  1
  O  O91  1  0.49498814  0.35128874  0.42318896  1
  O  O92  1  0.86727544  0.51092094  0.42326569  1
  O  O93  1  0.35577665  0.49533314  0.07439246  1
  O  O94  1  0.13742175  0.63993504  0.07434696  1
  O  O95  1  0.50525546  0.86422311  0.07549319  1
  O  O96  1  0.35661718  0.85900554  0.57218433  1
  O  O97  1  0.50519363  0.64438486  0.57366719  1
  O  O98  1  0.13629995  0.49630553  0.57378040  1
  O  O99  1  0.30668041  0.83872329  0.25996373  1
  O  O100  1  0.53454405  0.69616395  0.25764338  1
  O  O101  1  0.15837641  0.46745774  0.25813198  1
  O  O102  1  0.30787396  0.47125129  0.75902356  1
  O  O103  1  0.16129765  0.68799336  0.75893937  1
  O  O104  1  0.53059305  0.83938959  0.75778441  1
