# generated using pymatgen
data_Na6CaZr7(PO4)12
_symmetry_space_group_name_H-M   'P 1'
_cell_length_a   17.97886134
_cell_length_b   8.98436028
_cell_length_c   23.41510511
_cell_angle_alpha   90.03644513
_cell_angle_beta   89.96182785
_cell_angle_gamma   119.94906475
_symmetry_Int_Tables_number   1
_chemical_formula_structural   Na6CaZr7(PO4)12
_chemical_formula_sum   'Na18 Ca3 Zr21 P36 O144'
_cell_volume   3277.16749451
_cell_formula_units_Z   3
loop_
 _symmetry_equiv_pos_site_id
 _symmetry_equiv_pos_as_xyz
  1  'x, y, z'
loop_
 _atom_site_type_symbol
 _atom_site_label
 _atom_site_symmetry_multiplicity
 _atom_site_fract_x
 _atom_site_fract_y
 _atom_site_fract_z
 _atom_site_occupancy
  Na  Na0  1  0.68629380  0.36440235  0.24739722  1
  Na  Na1  1  0.99560457  0.62649402  0.24734694  1
  Na  Na2  1  0.99471912  0.36221742  0.74550562  1
  Na  Na3  1  0.49490668  0.36247117  0.74555242  1
  Na  Na4  1  0.18574877  0.00774607  0.74547401  1
  Na  Na5  1  0.68580444  0.00780967  0.74563212  1
  Na  Na6  1  0.00000636  0.99958026  0.50024019  1
  Na  Na7  1  0.50000381  0.00014530  0.50034787  1
  Na  Na8  1  0.99894366  0.99822163  0.00152959  1
  Na  Na9  1  0.50113059  0.00220761  0.00108785  1
  Na  Na10  1  0.33320304  0.34207793  0.83159252  1
  Na  Na11  1  0.83296533  0.34185553  0.83262396  1
  Na  Na12  1  0.33319694  0.33353172  0.33509334  1
  Na  Na13  1  0.83329036  0.32354652  0.33270257  1
  Na  Na14  1  0.16914435  0.66540506  0.16613170  1
  Na  Na15  1  0.66834605  0.67705051  0.16549355  1
  Na  Na16  1  0.17078162  0.66572123  0.66154533  1
  Na  Na17  1  0.67078824  0.66577297  0.66173548  1
  Ca  Ca18  1  0.33300645  0.34077090  0.68154628  1
  Ca  Ca19  1  0.83298209  0.34072785  0.68155909  1
  Ca  Ca20  1  0.83316426  0.32436569  0.18263984  1
  Zr  Zr21  1  0.00142740  0.00313421  0.35456242  1
  Zr  Zr22  1  0.49795250  0.99781809  0.35443698  1
  Zr  Zr23  1  0.99933808  0.99814899  0.85527551  1
  Zr  Zr24  1  0.49971802  0.99831413  0.85517087  1
  Zr  Zr25  1  0.99867221  0.99780791  0.64376862  1
  Zr  Zr26  1  0.49878443  0.99767152  0.64377159  1
  Zr  Zr27  1  0.99812148  0.00122656  0.14625049  1
  Zr  Zr28  1  0.50068623  0.99902140  0.14625816  1
  Zr  Zr29  1  0.33320801  0.33447061  0.18608605  1
  Zr  Zr30  1  0.33354870  0.33226224  0.98072703  1
  Zr  Zr31  1  0.83337258  0.33285103  0.98288289  1
  Zr  Zr32  1  0.33334821  0.33316262  0.48258372  1
  Zr  Zr33  1  0.83353346  0.33453000  0.48194639  1
  Zr  Zr34  1  0.16673765  0.66687211  0.01988226  1
  Zr  Zr35  1  0.66595565  0.66572966  0.01922427  1
  Zr  Zr36  1  0.16621664  0.66701873  0.51783265  1
  Zr  Zr37  1  0.66648679  0.66633749  0.51792511  1
  Zr  Zr38  1  0.17040600  0.66641641  0.31525485  1
  Zr  Zr39  1  0.66599143  0.67332021  0.31599674  1
  Zr  Zr40  1  0.16943909  0.66582425  0.81661008  1
  Zr  Zr41  1  0.66958401  0.66622569  0.81679192  1
  P  P42  1  0.14472952  0.00039385  0.24989987  1
  P  P43  1  0.64273022  0.99678670  0.25146478  1
  P  P44  1  0.35582809  0.71122013  0.24965134  1
  P  P45  1  0.85423416  0.71344966  0.25149693  1
  P  P46  1  0.00206397  0.29218664  0.25171065  1
  P  P47  1  0.49963471  0.28920641  0.25024764  1
  P  P48  1  0.14266647  0.28792649  0.75145753  1
  P  P49  1  0.64277658  0.28825298  0.75138649  1
  P  P50  1  0.00135673  0.71185690  0.75185813  1
  P  P51  1  0.50134986  0.71177646  0.75182132  1
  P  P52  1  0.35491197  0.99581264  0.75118955  1
  P  P53  1  0.85485251  0.99578314  0.75112992  1
  P  P54  1  0.48207246  0.33485125  0.58381699  1
  P  P55  1  0.98200007  0.33499502  0.58373360  1
  P  P56  1  0.18553743  0.03614320  0.58400393  1
  P  P57  1  0.68572369  0.03630336  0.58383805  1
  P  P58  1  0.33219362  0.62872977  0.58225424  1
  P  P59  1  0.83230759  0.62866500  0.58231209  1
  P  P60  1  0.47805102  0.62254820  0.08318324  1
  P  P61  1  0.98160801  0.63058114  0.08382914  1
  P  P62  1  0.33345006  0.04363991  0.08352016  1
  P  P63  1  0.83292929  0.03628928  0.08216665  1
  P  P64  1  0.18851170  0.33335997  0.08320647  1
  P  P65  1  0.68498730  0.33328486  0.08392556  1
  P  P66  1  0.31239332  0.66559797  0.91801958  1
  P  P67  1  0.81240717  0.66448901  0.91791364  1
  P  P68  1  0.02061768  0.37624629  0.91671617  1
  P  P69  1  0.52072718  0.37594779  0.91642259  1
  P  P70  1  0.16738782  0.95826313  0.91666863  1
  P  P71  1  0.66765309  0.95930073  0.91674103  1
  P  P72  1  0.31179898  0.95897556  0.41695317  1
  P  P73  1  0.81246180  0.95946884  0.41718776  1
  P  P74  1  0.16769988  0.37583398  0.41730172  1
  P  P75  1  0.66710702  0.37577244  0.41558712  1
  P  P76  1  0.02093684  0.66528137  0.41560477  1
  P  P77  1  0.52007017  0.66518828  0.41722175  1
  O  O78  1  0.10263785  0.02512593  0.30347353  1
  O  O79  1  0.59460654  0.01602515  0.30339762  1
  O  O80  1  0.41013308  0.79533184  0.30320725  1
  O  O81  1  0.91251362  0.80702015  0.30317508  1
  O  O82  1  0.48689335  0.17832775  0.30337528  1
  O  O83  1  0.99394492  0.17983980  0.30371789  1
  O  O84  1  0.09574573  0.17564503  0.80414474  1
  O  O85  1  0.59571896  0.17572562  0.80409978  1
  O  O86  1  0.49298315  0.80652687  0.80429374  1
  O  O87  1  0.99308919  0.80670504  0.80430945  1
  O  O88  1  0.41169391  0.01732720  0.80362130  1
  O  O89  1  0.91169393  0.01740252  0.80353575  1
  O  O90  1  0.39760841  0.97208795  0.69754673  1
  O  O91  1  0.89768372  0.97206848  0.69752390  1
  O  O92  1  0.08593904  0.20540422  0.69799887  1
  O  O93  1  0.58590752  0.20539460  0.69797966  1
  O  O94  1  0.01662888  0.82625538  0.69866533  1
  O  O95  1  0.51647430  0.82607228  0.69866067  1
  O  O96  1  0.39844936  0.82217841  0.19638845  1
  O  O97  1  0.89766856  0.82290082  0.19755686  1
  O  O98  1  0.01356159  0.20507921  0.19773618  1
  O  O99  1  0.51487487  0.20453418  0.19730897  1
  O  O100  1  0.08721803  0.96979818  0.19707031  1
  O  O101  1  0.58785441  0.97288554  0.19722973  1
  O  O102  1  0.45109083  0.36676200  0.64016754  1
  O  O103  1  0.95112287  0.36669339  0.64016913  1
  O  O104  1  0.23268421  0.09750658  0.64028702  1
  O  O105  1  0.73259257  0.09740128  0.64024720  1
  O  O106  1  0.31503411  0.52973547  0.63669940  1
  O  O107  1  0.81494943  0.52972435  0.63674156  1
  O  O108  1  0.43474793  0.51124367  0.13640332  1
  O  O109  1  0.95092443  0.53494465  0.13963316  1
  O  O110  1  0.32089412  0.13084436  0.13653091  1
  O  O111  1  0.81485112  0.10050383  0.13622747  1
  O  O112  1  0.24438349  0.35891750  0.13644254  1
  O  O113  1  0.73273617  0.36731322  0.13975807  1
  O  O114  1  0.23206947  0.30865417  0.02998136  1
  O  O115  1  0.73126440  0.30834858  0.03141609  1
  O  O116  1  0.42226532  0.53601196  0.02993698  1
  O  O117  1  0.92327628  0.53745801  0.03132067  1
  O  O118  1  0.34584939  0.15498489  0.03013497  1
  O  O119  1  0.84606916  0.15204514  0.02910026  1
  O  O120  1  0.23176152  0.15435046  0.53183040  1
  O  O121  1  0.73191551  0.15469048  0.53171635  1
  O  O122  1  0.34595151  0.53943755  0.52941198  1
  O  O123  1  0.84594671  0.53963043  0.52940137  1
  O  O124  1  0.42306235  0.30955433  0.53168538  1
  O  O125  1  0.92296537  0.30954218  0.53162681  1
  O  O126  1  0.26868121  0.69156829  0.97004183  1
  O  O127  1  0.76850793  0.69090824  0.96959044  1
  O  O128  1  0.07831970  0.46539510  0.96855374  1
  O  O129  1  0.57726924  0.46439084  0.96817646  1
  O  O130  1  0.15534103  0.84460889  0.96850981  1
  O  O131  1  0.65413378  0.84434034  0.96841570  1
  O  O132  1  0.26923882  0.84678472  0.46917264  1
  O  O133  1  0.76922800  0.84677779  0.46925247  1
  O  O134  1  0.15422455  0.46151369  0.46945334  1
  O  O135  1  0.65414119  0.46326819  0.46767117  1
  O  O136  1  0.07732751  0.69125316  0.46778982  1
  O  O137  1  0.57650855  0.69201253  0.46926204  1
  O  O138  1  0.06320960  0.64193084  0.36084115  1
  O  O139  1  0.56381917  0.64113349  0.36355749  1
  O  O140  1  0.25660586  0.87169273  0.36325974  1
  O  O141  1  0.75635642  0.87188731  0.36355698  1
  O  O142  1  0.17976547  0.48703853  0.36359320  1
  O  O143  1  0.67886029  0.48358810  0.36079496  1
  O  O144  1  0.06286770  0.48357606  0.86172661  1
  O  O145  1  0.56228875  0.48308629  0.86147656  1
  O  O146  1  0.17953795  0.87537014  0.86165181  1
  O  O147  1  0.67916918  0.87495214  0.86172175  1
  O  O148  1  0.25704161  0.64089376  0.86416670  1
  O  O149  1  0.75710261  0.64088793  0.86387718  1
  O  O150  1  0.01160937  0.82661677  0.40891700  1
  O  O151  1  0.51107482  0.82643075  0.40941418  1
  O  O152  1  0.40131739  0.97671070  0.40933762  1
  O  O153  1  0.90197122  0.97727538  0.40935834  1
  O  O154  1  0.08717634  0.19671705  0.40996805  1
  O  O155  1  0.58636726  0.19588075  0.40853871  1
  O  O156  1  0.01176428  0.19696404  0.90984929  1
  O  O157  1  0.51119567  0.19623244  0.90976795  1
  O  O158  1  0.08701675  0.97694903  0.91013602  1
  O  O159  1  0.58687138  0.97717252  0.90997203  1
  O  O160  1  0.40153919  0.82640136  0.91042561  1
  O  O161  1  0.90150208  0.82605432  0.91013933  1
  O  O162  1  0.49036773  0.16995076  0.58760483  1
  O  O163  1  0.99042962  0.17008618  0.58766072  1
  O  O164  1  0.09495892  0.01980901  0.58809026  1
  O  O165  1  0.59496969  0.01977176  0.58813666  1
  O  O166  1  0.41480556  0.80989487  0.58732336  1
  O  O167  1  0.91480276  0.80998693  0.58731992  1
  O  O168  1  0.48713751  0.80221889  0.09009506  1
  O  O169  1  0.99117968  0.81258175  0.08758417  1
  O  O170  1  0.41356140  0.02423760  0.09075341  1
  O  O171  1  0.91529983  0.01963363  0.08671632  1
  O  O172  1  0.09883261  0.17344805  0.09055647  1
  O  O173  1  0.59415228  0.16859699  0.08767665  1
  O  O174  1  0.34502916  0.15556043  0.74954371  1
  O  O175  1  0.84508585  0.15556689  0.74946531  1
  O  O176  1  0.22987173  0.30038254  0.74998872  1
  O  O177  1  0.72981378  0.30038891  0.74991856  1
  O  O178  1  0.42617457  0.52967699  0.75062151  1
  O  O179  1  0.92625786  0.52983611  0.75060297  1
  O  O180  1  0.34544897  0.53031592  0.24218718  1
  O  O181  1  0.84526798  0.53504037  0.24925758  1
  O  O182  1  0.42060754  0.31136119  0.24254631  1
  O  O183  1  0.92564082  0.32078076  0.25049725  1
  O  O184  1  0.23488158  0.15875772  0.24234688  1
  O  O185  1  0.72927948  0.16067287  0.24983883  1
  O  O186  1  0.32135853  0.50456539  0.92402909  1
  O  O187  1  0.82158396  0.50382772  0.92375637  1
  O  O188  1  0.43115014  0.35762744  0.92352832  1
  O  O189  1  0.93128625  0.35827644  0.92352206  1
  O  O190  1  0.24758259  0.13769700  0.92361313  1
  O  O191  1  0.74770866  0.13823314  0.92353913  1
  O  O192  1  0.32152738  0.13860461  0.42355490  1
  O  O193  1  0.82145589  0.13855587  0.42371020  1
  O  O194  1  0.24786740  0.35662379  0.42365304  1
  O  O195  1  0.74721532  0.35659624  0.42325650  1
  O  O196  1  0.43066167  0.50403894  0.42358765  1
  O  O197  1  0.93137993  0.50501445  0.42335352  1
  O  O198  1  0.17912272  0.49451717  0.07611348  1
  O  O199  1  0.67253955  0.48929370  0.07166568  1
  O  O200  1  0.07195523  0.65290019  0.07155607  1
  O  O201  1  0.56795341  0.64294035  0.07625429  1
  O  O202  1  0.25339547  0.86407805  0.07603969  1
  O  O203  1  0.75466299  0.85468287  0.07093477  1
  O  O204  1  0.17310386  0.85555263  0.57224590  1
  O  O205  1  0.67313089  0.85539177  0.57220203  1
  O  O206  1  0.25464603  0.65524911  0.57139744  1
  O  O207  1  0.75469785  0.65508433  0.57145194  1
  O  O208  1  0.07226038  0.49113835  0.57228099  1
  O  O209  1  0.57220279  0.49081223  0.57222496  1
  O  O210  1  0.15072834  0.83386171  0.25693564  1
  O  O211  1  0.65077901  0.83343371  0.25725372  1
  O  O212  1  0.26558230  0.69155801  0.25667853  1
  O  O213  1  0.76255858  0.68985525  0.25728869  1
  O  O214  1  0.08423492  0.47500605  0.25716819  1
  O  O215  1  0.58301840  0.46669839  0.25727958  1
  O  O216  1  0.14745968  0.46593544  0.75808949  1
  O  O217  1  0.64737738  0.46603402  0.75804746  1
  O  O218  1  0.08625029  0.70107000  0.75811821  1
  O  O219  1  0.58615540  0.70094024  0.75800115  1
  O  O220  1  0.26318558  0.83576579  0.75756865  1
  O  O221  1  0.76310419  0.83566407  0.75748391  1
