# generated using pymatgen
data_NaHfZr(PO4)3
_symmetry_space_group_name_H-M   'P 1'
_cell_length_a   8.86533387
_cell_length_b   8.86533358
_cell_length_c   23.32538980
_cell_angle_alpha   90.00000000
_cell_angle_beta   90.00000000
_cell_angle_gamma   120.00000105
_symmetry_Int_Tables_number   1
_chemical_formula_structural   NaHfZr(PO4)3
_chemical_formula_sum   'Na6 Hf6 Zr6 P18 O72'
_cell_volume   1587.63152750
_cell_formula_units_Z   6
loop_
 _symmetry_equiv_pos_site_id
 _symmetry_equiv_pos_as_xyz
  1  'x, y, z'
loop_
 _atom_site_type_symbol
 _atom_site_label
 _atom_site_symmetry_multiplicity
 _atom_site_fract_x
 _atom_site_fract_y
 _atom_site_fract_z
 _atom_site_occupancy
  Na  Na0  1  0.00000000  0.00000000  0.49994798  1
  Na  Na1  1  0.00000000  0.00000000  0.99994742  1
  Na  Na2  1  0.66666700  0.33333300  0.83345813  1
  Na  Na3  1  0.66666700  0.33333300  0.33322292  1
  Na  Na4  1  0.33333300  0.66666700  0.16654363  1
  Na  Na5  1  0.33333300  0.66666700  0.66679018  1
  Hf  Hf6  1  0.00000000  0.00000000  0.35271162  1
  Hf  Hf7  1  0.00000000  0.00000000  0.85363895  1
  Hf  Hf8  1  0.66666700  0.33333300  0.18629872  1
  Hf  Hf9  1  0.66666700  0.33333300  0.97984566  1
  Hf  Hf10  1  0.33333300  0.66666700  0.01963594  1
  Hf  Hf11  1  0.33333300  0.66666700  0.81409787  1
  Zr  Zr12  1  0.00000000  0.00000000  0.64734692  1
  Zr  Zr13  1  0.00000000  0.00000000  0.14637566  1
  Zr  Zr14  1  0.66666700  0.33333300  0.68708939  1
  Zr  Zr15  1  0.66666700  0.33333300  0.47999586  1
  Zr  Zr16  1  0.33333300  0.66666700  0.51946950  1
  Zr  Zr17  1  0.33333300  0.66666700  0.31332578  1
  P  P18  1  0.29075678  0.00187155  0.25019113  1
  P  P19  1  0.71111477  0.70924322  0.25019113  1
  P  P20  1  0.99812845  0.28888523  0.25019113  1
  P  P21  1  0.28898716  0.29074085  0.75096004  1
  P  P22  1  0.00175369  0.71101284  0.75096004  1
  P  P23  1  0.70925915  0.99824631  0.75096004  1
  P  P24  1  0.95709226  0.33328161  0.58334116  1
  P  P25  1  0.37619034  0.04290774  0.58334116  1
  P  P26  1  0.66671839  0.62380966  0.58334116  1
  P  P27  1  0.95566322  0.62057081  0.08296265  1
  P  P28  1  0.66490859  0.04433678  0.08296265  1
  P  P29  1  0.37942919  0.33509141  0.08296265  1
  P  P30  1  0.62257815  0.66660474  0.91667530  1
  P  P31  1  0.04402559  0.37742185  0.91667530  1
  P  P32  1  0.33339526  0.95597441  0.91667530  1
  P  P33  1  0.62583291  0.95739116  0.41629199  1
  P  P34  1  0.33155726  0.37416709  0.41629199  1
  P  P35  1  0.04260884  0.66844274  0.41629199  1
  O  O36  1  0.20510472  0.02859256  0.30360216  1
  O  O37  1  0.82348784  0.79489528  0.30360216  1
  O  O38  1  0.97140744  0.17651216  0.30360216  1
  O  O39  1  0.20261571  0.17627906  0.80405790  1
  O  O40  1  0.97366334  0.79738429  0.80405790  1
  O  O41  1  0.82372094  0.02633666  0.80405790  1
  O  O42  1  0.79194412  0.97024965  0.69677207  1
  O  O43  1  0.17830553  0.20805588  0.69677207  1
  O  O44  1  0.02975035  0.82169447  0.69677207  1
  O  O45  1  0.79443887  0.82191954  0.19632417  1
  O  O46  1  0.02748067  0.20556113  0.19632417  1
  O  O47  1  0.17808046  0.97251933  0.19632417  1
  O  O48  1  0.87302776  0.36151806  0.63709210  1
  O  O49  1  0.48849130  0.12697224  0.63709210  1
  O  O50  1  0.63848194  0.51150870  0.63709210  1
  O  O51  1  0.87090739  0.50914351  0.13681824  1
  O  O52  1  0.63823712  0.12909261  0.13681824  1
  O  O53  1  0.49085649  0.36176288  0.13681824  1
  O  O54  1  0.46453583  0.30715815  0.02950251  1
  O  O55  1  0.84262332  0.53546417  0.02950251  1
  O  O56  1  0.69284185  0.15737668  0.02950251  1
  O  O57  1  0.45992818  0.15481198  0.52967959  1
  O  O58  1  0.69488480  0.54007182  0.52967959  1
  O  O59  1  0.84518802  0.30511520  0.52967959  1
  O  O60  1  0.53727040  0.69452430  0.97031464  1
  O  O61  1  0.15725291  0.46272960  0.97031464  1
  O  O62  1  0.30547570  0.84274709  0.97031464  1
  O  O63  1  0.54190807  0.84532329  0.47014655  1
  O  O64  1  0.30341422  0.45809193  0.47014655  1
  O  O65  1  0.15467671  0.69658578  0.47014655  1
  O  O66  1  0.12691983  0.63900189  0.36287501  1
  O  O67  1  0.51208105  0.87308017  0.36287501  1
  O  O68  1  0.36099811  0.48791895  0.36287501  1
  O  O69  1  0.12903825  0.49025809  0.86314865  1
  O  O70  1  0.36121884  0.87096175  0.86314865  1
  O  O71  1  0.50974191  0.63878116  0.86314865  1
  O  O72  1  0.02360573  0.83086944  0.40891386  1
  O  O73  1  0.80726371  0.97639427  0.40891386  1
  O  O74  1  0.16913056  0.19273629  0.40891386  1
  O  O75  1  0.02426709  0.19518309  0.90910399  1
  O  O76  1  0.17091599  0.97573291  0.90910399  1
  O  O77  1  0.80481691  0.82908400  0.90910399  1
  O  O78  1  0.97630606  0.17053456  0.58991650  1
  O  O79  1  0.19422850  0.02369394  0.58991650  1
  O  O80  1  0.82946544  0.80577150  0.58991650  1
  O  O81  1  0.97559134  0.80322288  0.08972702  1
  O  O82  1  0.82763155  0.02440866  0.08972702  1
  O  O83  1  0.19677712  0.17236845  0.08972702  1
  O  O84  1  0.69037481  0.16126114  0.74408970  1
  O  O85  1  0.47088733  0.30962519  0.74408970  1
  O  O86  1  0.83873886  0.52911267  0.74408970  1
  O  O87  1  0.69161637  0.52718751  0.24269895  1
  O  O88  1  0.83557214  0.30838363  0.24269895  1
  O  O89  1  0.47281249  0.16442786  0.24269895  1
  O  O90  1  0.64246160  0.50416831  0.92427916  1
  O  O91  1  0.86170771  0.35753840  0.92427916  1
  O  O92  1  0.49583169  0.13829229  0.92427916  1
  O  O93  1  0.64436683  0.13886716  0.42309838  1
  O  O94  1  0.49450134  0.35563317  0.42309838  1
  O  O95  1  0.86113284  0.50549866  0.42309838  1
  O  O96  1  0.35900275  0.49742591  0.07560966  1
  O  O97  1  0.13842216  0.64099725  0.07560966  1
  O  O98  1  0.50257409  0.86157784  0.07560966  1
  O  O99  1  0.35709719  0.86100442  0.57680065  1
  O  O100  1  0.50390623  0.64290281  0.57680065  1
  O  O101  1  0.13899558  0.49609377  0.57680065  1
  O  O102  1  0.31035968  0.83923238  0.25686513  1
  O  O103  1  0.52887170  0.68964032  0.25686513  1
  O  O104  1  0.16076762  0.47112830  0.25686513  1
  O  O105  1  0.30908099  0.47302316  0.75822707  1
  O  O106  1  0.16394117  0.69091901  0.75822707  1
  O  O107  1  0.52697684  0.83605883  0.75822707  1
