# generated using pymatgen
data_MgV4O8
_symmetry_space_group_name_H-M   'P 1'
_cell_length_a   5.96694673
_cell_length_b   5.96661133
_cell_length_c   5.96676346
_cell_angle_alpha   117.75678644
_cell_angle_beta   87.14394250
_cell_angle_gamma   61.00927504
_symmetry_Int_Tables_number   1
_chemical_formula_structural   MgV4O8
_chemical_formula_sum   'Mg1 V4 O8'
_cell_volume   153.66088468
_cell_formula_units_Z   1
loop_
 _symmetry_equiv_pos_site_id
 _symmetry_equiv_pos_as_xyz
  1  'x, y, z'
loop_
 _atom_site_type_symbol
 _atom_site_label
 _atom_site_symmetry_multiplicity
 _atom_site_fract_x
 _atom_site_fract_y
 _atom_site_fract_z
 _atom_site_occupancy
  Mg  Mg0  1  0.12363100  0.25000900  0.12642000  1
  V  V1  1  0.50532100  0.50366600  0.99831500  1
  V  V2  1  0.49361800  0.49609200  0.51022600  1
  V  V3  1  0.98589300  0.00386800  0.51028300  1
  V  V4  1  0.50534800  0.99638100  0.49105000  1
  O  O5  1  0.25649900  0.52732500  0.27092000  1
  O  O6  1  0.25837000  0.97750700  0.26411800  1
  O  O7  1  0.25636100  0.97256300  0.71610000  1
  O  O8  1  0.71338300  0.52250100  0.26417500  1
  O  O9  1  0.29504500  0.47422600  0.73071900  1
  O  O10  1  0.74409400  0.04119100  0.29718500  1
  O  O11  1  0.74344900  0.02585400  0.73075600  1
  O  O12  1  0.74398900  0.45881700  0.71473400  1
