# generated using pymatgen
data_Na2ScTaSi2SO12
_symmetry_space_group_name_H-M   'P 1'
_cell_length_a   8.99127502
_cell_length_b   8.99127471
_cell_length_c   22.84948081
_cell_angle_alpha   89.90782760
_cell_angle_beta   90.09217239
_cell_angle_gamma   119.57198120
_symmetry_Int_Tables_number   1
_chemical_formula_structural   Na2ScTaSi2SO12
_chemical_formula_sum   'Na12 Sc6 Ta6 Si12 S6 O72'
_cell_volume   1606.59261256
_cell_formula_units_Z   6
loop_
 _symmetry_equiv_pos_site_id
 _symmetry_equiv_pos_as_xyz
  1  'x, y, z'
loop_
 _atom_site_type_symbol
 _atom_site_label
 _atom_site_symmetry_multiplicity
 _atom_site_fract_x
 _atom_site_fract_y
 _atom_site_fract_z
 _atom_site_occupancy
  Na  Na0  1  0.98361318  0.62192849  0.24982083  1
  Na  Na1  1  0.37807151  0.01638682  0.74982083  1
  Na  Na2  1  0.65028018  0.95526149  0.58315383  1
  Na  Na3  1  0.04473851  0.34971982  0.08315383  1
  Na  Na4  1  0.31694618  0.28859549  0.91648783  1
  Na  Na5  1  0.71140451  0.68305382  0.41648783  1
  Na  Na6  1  0.00862470  0.99082315  0.49542279  1
  Na  Na7  1  0.00917685  0.99137530  0.99542279  1
  Na  Na8  1  0.67529170  0.32415615  0.82875579  1
  Na  Na9  1  0.67584385  0.32470830  0.32875579  1
  Na  Na10  1  0.34195770  0.65749015  0.16208979  1
  Na  Na11  1  0.34250985  0.65804230  0.66208979  1
  Sc  Sc12  1  0.98480462  0.99615458  0.35278284  1
  Sc  Sc13  1  0.00384542  0.01519538  0.85278284  1
  Sc  Sc14  1  0.65147162  0.32948758  0.68611584  1
  Sc  Sc15  1  0.67051242  0.34852838  0.18611584  1
  Sc  Sc16  1  0.31813762  0.66282158  0.01944984  1
  Sc  Sc17  1  0.33717842  0.68186238  0.51944984  1
  Ta  Ta18  1  0.99893347  0.00133990  0.64635125  1
  Ta  Ta19  1  0.99866010  0.00106653  0.14635125  1
  Ta  Ta20  1  0.66560047  0.33467290  0.97968425  1
  Ta  Ta21  1  0.66532710  0.33439953  0.47968425  1
  Ta  Ta22  1  0.33226647  0.66800690  0.31301825  1
  Ta  Ta23  1  0.33199310  0.66773353  0.81301825  1
  Si  Si24  1  0.70547628  0.71061030  0.25145607  1
  Si  Si25  1  0.99888007  0.29079053  0.25086647  1
  Si  Si26  1  0.28938970  0.29452372  0.75145607  1
  Si  Si27  1  0.70920947  0.00111993  0.75086647  1
  Si  Si28  1  0.37214328  0.04394330  0.58478907  1
  Si  Si29  1  0.66554707  0.62412353  0.58419947  1
  Si  Si30  1  0.95605670  0.62785672  0.08478907  1
  Si  Si31  1  0.37587647  0.33445293  0.08419947  1
  Si  Si32  1  0.03880928  0.37727730  0.91812307  1
  Si  Si33  1  0.33221307  0.95745753  0.91753347  1
  Si  Si34  1  0.62272270  0.96119072  0.41812307  1
  Si  Si35  1  0.04254247  0.66778693  0.41753347  1
  S  S36  1  0.28926608  0.00003199  0.25042091  1
  S  S37  1  -0.00003199  0.71073392  0.75042091  1
  S  S38  1  0.95593308  0.33336499  0.58375391  1
  S  S39  1  0.66663501  0.04406692  0.08375391  1
  S  S40  1  0.62259908  0.66669899  0.91708791  1
  S  S41  1  0.33330101  0.37740092  0.41708791  1
  O  O42  1  0.21175036  0.02290755  0.30304934  1
  O  O43  1  0.82408876  0.78913255  0.30859803  1
  O  O44  1  0.98650792  0.17873857  0.30638385  1
  O  O45  1  0.21086745  0.17591124  0.80859803  1
  O  O46  1  0.97709245  0.78824964  0.80304934  1
  O  O47  1  0.82126143  0.01349208  0.80638385  1
  O  O48  1  0.80152567  0.97177771  0.69078959  1
  O  O49  1  0.16148893  0.18840072  0.69445545  1
  O  O50  1  0.03099147  0.82371811  0.69742430  1
  O  O51  1  0.81159928  0.83851107  0.19445545  1
  O  O52  1  0.02822229  0.19847433  0.19078959  1
  O  O53  1  0.17628189  0.96900853  0.19742430  1
  O  O54  1  0.87841736  0.35624055  0.63638234  1
  O  O55  1  0.49075576  0.12246555  0.64193103  1
  O  O56  1  0.65317492  0.51207157  0.63971685  1
  O  O57  1  0.87753445  0.50924424  0.14193103  1
  O  O58  1  0.64375945  0.12158264  0.13638234  1
  O  O59  1  0.48792843  0.34682508  0.13971685  1
  O  O60  1  0.46819267  0.30511071  0.02412259  1
  O  O61  1  0.82815593  0.52173372  0.02778845  1
  O  O62  1  0.69765847  0.15705111  0.03075730  1
  O  O63  1  0.47826628  0.17184407  0.52778845  1
  O  O64  1  0.69488929  0.53180733  0.52412259  1
  O  O65  1  0.84294889  0.30234153  0.53075730  1
  O  O66  1  0.54508336  0.68957455  0.96971634  1
  O  O67  1  0.15742176  0.45579955  0.97526503  1
  O  O68  1  0.31984092  0.84540557  0.97305085  1
  O  O69  1  0.54420045  0.84257824  0.47526503  1
  O  O70  1  0.31042545  0.45491664  0.46971634  1
  O  O71  1  0.15459443  0.68015908  0.47305085  1
  O  O72  1  0.13485867  0.63844471  0.35745659  1
  O  O73  1  0.49482193  0.85506772  0.36112245  1
  O  O74  1  0.36432447  0.49038511  0.36409130  1
  O  O75  1  0.14493228  0.50517807  0.86112245  1
  O  O76  1  0.36155529  0.86514133  0.85745659  1
  O  O77  1  0.50961489  0.63567553  0.86409130  1
  O  O78  1  0.01450976  0.83089702  0.41129448  1
  O  O79  1  0.81053294  0.98060946  0.41141923  1
  O  O80  1  0.19189900  0.20555360  0.40879293  1
  O  O81  1  0.01939054  0.18946706  0.91141923  1
  O  O82  1  0.16910298  0.98549024  0.91129448  1
  O  O83  1  0.79444640  0.80810100  0.90879293  1
  O  O84  1  0.96143004  0.16668422  0.58782774  1
  O  O85  1  0.18222994  0.02969962  0.59168647  1
  O  O86  1  0.83957434  0.82102946  0.59115742  1
  O  O87  1  0.97030038  0.81777006  0.09168647  1
  O  O88  1  0.83331578  0.03856996  0.08782774  1
  O  O89  1  0.17897054  0.16042566  0.09115742  1
  O  O90  1  0.68117676  0.16423002  0.74462748  1
  O  O91  1  0.47719994  0.31394246  0.74475223  1
  O  O92  1  0.85856600  0.53888660  0.74212593  1
  O  O93  1  0.68605754  0.52280006  0.24475223  1
  O  O94  1  0.83576998  0.31882324  0.24462748  1
  O  O95  1  0.46111340  0.14143400  0.24212593  1
  O  O96  1  0.62809704  0.50001722  0.92116074  1
  O  O97  1  0.84889694  0.36303262  0.92501947  1
  O  O98  1  0.50624134  0.15436246  0.92449042  1
  O  O99  1  0.63696738  0.15110306  0.42501947  1
  O  O100  1  0.49998278  0.37190296  0.42116074  1
  O  O101  1  0.84563754  0.49375866  0.42449042  1
  O  O102  1  0.34784276  0.49756402  0.07796148  1
  O  O103  1  0.14386594  0.64727646  0.07808623  1
  O  O104  1  0.52523200  0.87222060  0.07545993  1
  O  O105  1  0.35272354  0.85613406  0.57808623  1
  O  O106  1  0.50243598  0.65215724  0.57796148  1
  O  O107  1  0.12777940  0.47476800  0.57545993  1
  O  O108  1  0.29476304  0.83335122  0.25449474  1
  O  O109  1  0.51556294  0.69636662  0.25835347  1
  O  O110  1  0.17290734  0.48769646  0.25782442  1
  O  O111  1  0.30363338  0.48443706  0.75835347  1
  O  O112  1  0.16664878  0.70523696  0.75449474  1
  O  O113  1  0.51230354  0.82709266  0.75782442  1
