# generated using pymatgen
data_Na6Sc5Nb3Si6(SO8)6
_symmetry_space_group_name_H-M   'P 1'
_cell_length_a   17.94049867
_cell_length_b   8.96021230
_cell_length_c   22.96063758
_cell_angle_alpha   90.16464706
_cell_angle_beta   90.05754678
_cell_angle_gamma   119.94837189
_symmetry_Int_Tables_number   1
_chemical_formula_structural   Na6Sc5Nb3Si6(SO8)6
_chemical_formula_sum   'Na18 Sc15 Nb9 Si18 S18 O144'
_cell_volume   3198.08184355
_cell_formula_units_Z   3
loop_
 _symmetry_equiv_pos_site_id
 _symmetry_equiv_pos_as_xyz
  1  'x, y, z'
loop_
 _atom_site_type_symbol
 _atom_site_label
 _atom_site_symmetry_multiplicity
 _atom_site_fract_x
 _atom_site_fract_y
 _atom_site_fract_z
 _atom_site_occupancy
  Na  Na0  1  0.48393752  0.68145689  0.91181279  1
  Na  Na1  1  0.16372448  0.31395418  0.91307280  1
  Na  Na2  1  0.48652578  0.29728522  0.41567232  1
  Na  Na3  1  0.97868052  0.29190121  0.41090409  1
  Na  Na4  1  0.16461109  0.02572268  0.41299016  1
  Na  Na5  1  0.66532029  0.03038015  0.41863673  1
  Na  Na6  1  0.98575328  0.97383254  0.49382804  1
  Na  Na7  1  0.49475466  0.98751018  0.49531304  1
  Na  Na8  1  0.99377322  0.99752404  0.99777697  1
  Na  Na9  1  0.50006466  0.99873492  0.99083864  1
  Na  Na10  1  0.33347467  0.32699845  0.82284302  1
  Na  Na11  1  0.83212392  0.33865445  0.83072125  1
  Na  Na12  1  0.33625968  0.33362121  0.33031228  1
  Na  Na13  1  0.83819700  0.33940344  0.33280432  1
  Na  Na14  1  0.15649298  0.66069468  0.16283930  1
  Na  Na15  1  0.66688550  0.65262327  0.16580686  1
  Na  Na16  1  0.16847333  0.66912262  0.67016076  1
  Na  Na17  1  0.66357849  0.65995032  0.66301703  1
  Sc  Sc18  1  0.99667254  0.99536253  0.35122643  1
  Sc  Sc19  1  0.49501262  0.00114905  0.35509784  1
  Sc  Sc20  1  0.00177537  -0.00000577  0.85124941  1
  Sc  Sc21  1  0.49974904  0.99831479  0.85135401  1
  Sc  Sc22  1  0.33470014  0.33337747  0.69112961  1
  Sc  Sc23  1  0.83277150  0.34179534  0.68883515  1
  Sc  Sc24  1  0.33465576  0.32754879  0.19044014  1
  Sc  Sc25  1  0.84048910  0.34534510  0.18354100  1
  Sc  Sc26  1  0.33213801  0.33706068  0.97890094  1
  Sc  Sc27  1  0.33846132  0.33888096  0.47800312  1
  Sc  Sc28  1  0.83351170  0.33738239  0.47505656  1
  Sc  Sc29  1  0.16219835  0.65695773  0.01691922  1
  Sc  Sc30  1  0.66745359  0.66864806  0.02076857  1
  Sc  Sc31  1  0.16954179  0.67598068  0.51766931  1
  Sc  Sc32  1  0.66733187  0.66890379  0.51450269  1
  Nb  Nb33  1  0.00491434  0.99861254  0.65020877  1
  Nb  Nb34  1  0.50021940  0.00340323  0.65463443  1
  Nb  Nb35  1  0.00440349  0.99903705  0.14915963  1
  Nb  Nb36  1  0.50667033  0.01994383  0.14646918  1
  Nb  Nb37  1  0.83376150  0.33861861  0.97905162  1
  Nb  Nb38  1  0.15980092  0.67368831  0.31015156  1
  Nb  Nb39  1  0.66369346  0.65685925  0.31800477  1
  Nb  Nb40  1  0.16484425  0.65054155  0.80919772  1
  Nb  Nb41  1  0.66459854  0.67347598  0.80958314  1
  Si  Si42  1  0.14774444  0.00796303  0.25333810  1
  Si  Si43  1  0.99733620  0.28986197  0.25256984  1
  Si  Si44  1  0.50333864  0.30219556  0.25286473  1
  Si  Si45  1  0.14696680  0.28847402  0.75273022  1
  Si  Si46  1  0.64737693  0.29067182  0.75383655  1
  Si  Si47  1  0.99924895  0.70349408  0.75394071  1
  Si  Si48  1  0.49830033  0.70933301  0.75261989  1
  Si  Si49  1  0.35327508  0.99919111  0.75397409  1
  Si  Si50  1  0.98202396  0.62922089  0.08371012  1
  Si  Si51  1  0.69237249  0.34176034  0.08460640  1
  Si  Si52  1  0.31270185  0.67370359  0.91930469  1
  Si  Si53  1  0.01908694  0.37239770  0.91653030  1
  Si  Si54  1  0.66778350  0.96057067  0.91947451  1
  Si  Si55  1  0.31057433  0.95388908  0.41785321  1
  Si  Si56  1  0.81405220  0.95495857  0.41758922  1
  Si  Si57  1  0.66714012  0.37394457  0.41880246  1
  Si  Si58  1  0.02063647  0.67025396  0.41891032  1
  Si  Si59  1  0.51959879  0.66767931  0.41819574  1
  S  S60  1  0.64515101  -0.00096422  0.24987429  1
  S  S61  1  0.35537715  0.71258128  0.24846925  1
  S  S62  1  0.85326144  0.71007102  0.24910967  1
  S  S63  1  0.85536428  -0.00088105  0.74951978  1
  S  S64  1  0.48031080  0.33048205  0.58369696  1
  S  S65  1  0.97970515  0.32892813  0.58379933  1
  S  S66  1  0.18593046  0.04118659  0.58358364  1
  S  S67  1  0.68552322  0.04032885  0.58397361  1
  S  S68  1  0.33454606  0.62743659  0.58399207  1
  S  S69  1  0.83390022  0.62936047  0.58437636  1
  S  S70  1  0.47825887  0.62644685  0.08423881  1
  S  S71  1  0.33452573  0.04187987  0.08435743  1
  S  S72  1  0.83465714  0.04521026  0.08327849  1
  S  S73  1  0.18769410  0.33201855  0.08453781  1
  S  S74  1  0.81067880  0.66636492  0.91667942  1
  S  S75  1  0.52348839  0.37983380  0.91712801  1
  S  S76  1  0.16699659  0.95593378  0.91701196  1
  S  S77  1  0.16828164  0.38130686  0.41677706  1
  O  O78  1  0.10505517  0.02536877  0.31168323  1
  O  O79  1  0.60425337  0.01771390  0.30220465  1
  O  O80  1  0.40696702  0.78779466  0.30095603  1
  O  O81  1  0.90456637  0.78908163  0.30148231  1
  O  O82  1  0.48968911  0.18785649  0.30910919  1
  O  O83  1  0.98846346  0.18359924  0.31094628  1
  O  O84  1  0.10320957  0.18084958  0.81043714  1
  O  O85  1  0.60364500  0.17727084  0.80920278  1
  O  O86  1  0.48732940  0.78511317  0.81228169  1
  O  O87  1  0.98146734  0.79466288  0.80743504  1
  O  O88  1  0.41299275  0.03143376  0.80883619  1
  O  O89  1  0.90557133  0.02443251  0.80195944  1
  O  O90  1  0.40272140  0.96841023  0.69442910  1
  O  O91  1  0.89597305  0.96973889  0.69660270  1
  O  O92  1  0.08108015  0.18725793  0.69451447  1
  O  O93  1  0.58291493  0.20120557  0.69427715  1
  O  O94  1  0.01048555  0.83234728  0.69416476  1
  O  O95  1  0.51682419  0.83849446  0.69520594  1
  O  O96  1  0.39861394  0.82240351  0.19612725  1
  O  O97  1  0.89733110  0.81747333  0.19601520  1
  O  O98  1  0.00903000  0.18376666  0.19475417  1
  O  O99  1  0.51388109  0.19300851  0.19428410  1
  O  O100  1  0.08292332  0.97200687  0.19485391  1
  O  O101  1  0.58748401  0.97515574  0.19680268  1
  O  O102  1  0.43492643  0.34669072  0.63377720  1
  O  O103  1  0.93656932  0.34976476  0.63478116  1
  O  O104  1  0.23772936  0.12942273  0.63413916  1
  O  O105  1  0.73941907  0.13082036  0.63484961  1
  O  O106  1  0.32541770  0.52433749  0.63548797  1
  O  O107  1  0.82578829  0.52669668  0.63636542  1
  O  O108  1  0.43472565  0.51763033  0.13434320  1
  O  O109  1  0.93722453  0.51501733  0.14017678  1
  O  O110  1  0.32596874  0.12839717  0.13625493  1
  O  O111  1  0.82136226  0.12122635  0.13564497  1
  O  O112  1  0.24080389  0.34780543  0.13497925  1
  O  O113  1  0.74456129  0.35488034  0.14193055  1
  O  O114  1  0.22452065  0.30384195  0.03006262  1
  O  O115  1  0.73587205  0.30583525  0.02610361  1
  O  O116  1  0.42790152  0.55013345  0.02954587  1
  O  O117  1  0.91725049  0.52699442  0.02644257  1
  O  O118  1  0.35031680  0.14842729  0.03175769  1
  O  O119  1  0.84784663  0.15239873  0.03034721  1
  O  O120  1  0.22100814  0.13843535  0.52909652  1
  O  O121  1  0.72397488  0.13895920  0.52970341  1
  O  O122  1  0.34482103  0.54472737  0.53057551  1
  O  O123  1  0.84838045  0.55405175  0.53158543  1
  O  O124  1  0.43036007  0.30826308  0.52870243  1
  O  O125  1  0.93012925  0.30442233  0.52960522  1
  O  O126  1  0.26587567  0.69056840  0.97620518  1
  O  O127  1  0.76942995  0.68401866  0.96921927  1
  O  O128  1  0.08120408  0.45745553  0.97219736  1
  O  O129  1  0.57496940  0.46255599  0.96945586  1
  O  O130  1  0.15575643  0.85588069  0.96973973  1
  O  O131  1  0.65386440  0.83181576  0.97275412  1
  O  O132  1  0.26750139  0.83941016  0.47494619  1
  O  O133  1  0.76899749  0.83748551  0.47350286  1
  O  O134  1  0.15468277  0.45921886  0.46922410  1
  O  O135  1  0.64514189  0.45824848  0.47286535  1
  O  O136  1  0.08321435  0.69702892  0.47318133  1
  O  O137  1  0.58026735  0.70396120  0.47395453  1
  O  O138  1  0.06857978  0.63915436  0.35881598  1
  O  O139  1  0.56778482  0.63065894  0.36000362  1
  O  O140  1  0.24763791  0.85277855  0.36000400  1
  O  O141  1  0.75034650  0.85941736  0.35849016  1
  O  O142  1  0.18065556  0.48474845  0.36385125  1
  O  O143  1  0.68037724  0.49798266  0.35956139  1
  O  O144  1  0.06678827  0.49575519  0.85861630  1
  O  O145  1  0.56552906  0.49116751  0.86410895  1
  O  O146  1  0.17966219  0.87919738  0.86411354  1
  O  O147  1  0.68007200  0.85613161  0.86050656  1
  O  O148  1  0.24714999  0.63525330  0.86167465  1
  O  O149  1  0.75802161  0.64182581  0.86348420  1
  O  O150  1  0.01598501  0.84371486  0.41194966  1
  O  O151  1  0.51437253  0.83787790  0.40633873  1
  O  O152  1  0.40762391  0.99074062  0.41157592  1
  O  O153  1  0.91151715  0.99101157  0.41164571  1
  O  O154  1  0.09035104  0.20706315  0.41215665  1
  O  O155  1  0.58415914  0.18470808  0.40865504  1
  O  O156  1  0.00869039  0.18170590  0.90963555  1
  O  O157  1  0.51211260  0.20923871  0.91176987  1
  O  O158  1  0.09104670  0.98211727  0.91292527  1
  O  O159  1  0.58351546  0.97759614  0.91348977  1
  O  O160  1  0.40932847  0.83163139  0.91410588  1
  O  O161  1  0.89685822  0.81761321  0.91207120  1
  O  O162  1  0.48762087  0.16985576  0.58820451  1
  O  O163  1  0.98655720  0.16699376  0.59084692  1
  O  O164  1  0.09570589  0.02236111  0.58984941  1
  O  O165  1  0.59775358  0.02440778  0.58951599  1
  O  O166  1  0.41388412  0.80377815  0.58831570  1
  O  O167  1  0.91283571  0.80801944  0.59117217  1
  O  O168  1  0.48574551  0.80044503  0.09122763  1
  O  O169  1  0.98498615  0.82073355  0.09085887  1
  O  O170  1  0.41465385  0.02324599  0.09191692  1
  O  O171  1  0.91341341  0.02793165  0.08817387  1
  O  O172  1  0.09926474  0.17186014  0.09000133  1
  O  O173  1  0.59236349  0.15661942  0.09294478  1
  O  O174  1  0.34013418  0.15939877  0.73972500  1
  O  O175  1  0.84228563  0.14541024  0.74068635  1
  O  O176  1  0.23967516  0.31395315  0.74127280  1
  O  O177  1  0.74087228  0.31448060  0.74065815  1
  O  O178  1  0.42166581  0.51927370  0.74068239  1
  O  O179  1  0.91971875  0.51450611  0.74077217  1
  O  O180  1  0.34441904  0.53933140  0.24035408  1
  O  O181  1  0.84158770  0.53697317  0.24360424  1
  O  O182  1  0.42188317  0.32754074  0.24127646  1
  O  O183  1  0.91559277  0.31611265  0.24454890  1
  O  O184  1  0.24074308  0.17171293  0.24193896  1
  O  O185  1  0.72975852  0.15071660  0.24220941  1
  O  O186  1  0.31851587  0.48994347  0.92421638  1
  O  O187  1  0.81771494  0.50546175  0.92046056  1
  O  O188  1  0.43838138  0.37426620  0.92156714  1
  O  O189  1  0.92472650  0.36013845  0.92530570  1
  O  O190  1  0.24468698  0.13449958  0.92328834  1
  O  O191  1  0.75657074  0.14809725  0.92550120  1
  O  O192  1  0.31270164  0.14054956  0.42244732  1
  O  O193  1  0.81781481  0.14175752  0.42168156  1
  O  O194  1  0.24402205  0.35670230  0.42287127  1
  O  O195  1  0.75160507  0.35427338  0.42193580  1
  O  O196  1  0.42762922  0.48759380  0.42157376  1
  O  O197  1  0.93066706  0.49078239  0.42189206  1
  O  O198  1  0.17695936  0.48344112  0.08111002  1
  O  O199  1  0.67278811  0.49717215  0.07585833  1
  O  O200  1  0.07849035  0.66375329  0.07640185  1
  O  O201  1  0.56538724  0.64888543  0.07970475  1
  O  O202  1  0.25979179  0.86958363  0.07980924  1
  O  O203  1  0.75903522  0.87056357  0.07630300  1
  O  O204  1  0.17292638  0.86472968  0.58086808  1
  O  O205  1  0.67504033  0.86557082  0.58175381  1
  O  O206  1  0.25717584  0.64712281  0.57965321  1
  O  O207  1  0.75740406  0.64978124  0.58122423  1
  O  O208  1  0.06815875  0.47878498  0.57988280  1
  O  O209  1  0.56713158  0.48338763  0.58098543  1
  O  O210  1  0.15408346  0.82823199  0.25526534  1
  O  O211  1  0.65049024  0.83827563  0.25110169  1
  O  O212  1  0.26909048  0.69757506  0.25326316  1
  O  O213  1  0.76845784  0.70263410  0.25182054  1
  O  O214  1  0.09021369  0.47841699  0.25718041  1
  O  O215  1  0.59322654  0.48981605  0.25379630  1
  O  O216  1  0.14915138  0.47436616  0.75377028  1
  O  O217  1  0.65715662  0.48597174  0.76124540  1
  O  O218  1  0.08964515  0.70289808  0.75774427  1
  O  O219  1  0.59018331  0.69716843  0.75733457  1
  O  O220  1  0.25952065  0.82107855  0.75901325  1
  O  O221  1  0.76875586  0.83606078  0.75403426  1
