# generated using pymatgen
data_MgFe8(OF)8
_symmetry_space_group_name_H-M   'P 1'
_cell_length_a   9.85613334
_cell_length_b   9.75716420
_cell_length_c   3.06978901
_cell_angle_alpha   88.92591597
_cell_angle_beta   90.39189764
_cell_angle_gamma   90.99402033
_symmetry_Int_Tables_number   1
_chemical_formula_structural   MgFe8(OF)8
_chemical_formula_sum   'Mg1 Fe8 O8 F8'
_cell_volume   295.11264059
_cell_formula_units_Z   1
loop_
 _symmetry_equiv_pos_site_id
 _symmetry_equiv_pos_as_xyz
  1  'x, y, z'
loop_
 _atom_site_type_symbol
 _atom_site_label
 _atom_site_symmetry_multiplicity
 _atom_site_fract_x
 _atom_site_fract_y
 _atom_site_fract_z
 _atom_site_occupancy
  Mg  Mg0  1  0.98912600  0.75369200  0.04340700  1
  Fe  Fe1  1  0.01827700  0.02946000  0.00219300  1
  Fe  Fe2  1  0.01819400  0.48039500  0.94591300  1
  Fe  Fe3  1  0.23745800  0.25271700  0.49062500  1
  Fe  Fe4  1  0.25515400  0.72754000  0.51439600  1
  Fe  Fe5  1  0.52149800  0.48397500  0.00225500  1
  Fe  Fe6  1  0.50267500  0.00505400  0.01210300  1
  Fe  Fe7  1  0.75989600  0.28336100  0.49477300  1
  Fe  Fe8  1  0.72705600  0.72147900  0.51990500  1
  O  O9  1  0.10247900  0.39073300  0.46451900  1
  O  O10  1  0.05381600  0.90290100  0.51089300  1
  O  O11  1  0.16449400  0.15070100  0.99478700  1
  O  O12  1  0.14759300  0.63967700  0.99113800  1
  O  O13  1  0.59572900  0.38969900  0.50670500  1
  O  O14  1  0.63972200  0.64237700  0.01959000  1
  O  O15  1  0.85326000  0.36238300  0.99078000  1
  O  O16  1  0.90518500  0.63624700  0.54412100  1
  F  F17  1  0.34966800  0.34524000  0.99278500  1
  F  F18  1  0.34797500  0.84819900  0.03603900  1
  F  F19  1  0.40564100  0.11320000  0.50550600  1
  F  F20  1  0.40983300  0.57433600  0.50024600  1
  F  F21  1  0.59513400  0.89485200  0.51729500  1
  F  F22  1  0.67157500  0.15570600  0.00412500  1
  F  F23  1  0.81580100  0.85498400  0.02107300  1
  F  F24  1  0.90581700  0.11803500  0.49983000  1
