# generated using pymatgen
data_MgNb4(SnO6)2
_symmetry_space_group_name_H-M   'P 1'
_cell_length_a   5.01048528
_cell_length_b   5.86337180
_cell_length_c   9.11068535
_cell_angle_alpha   92.01360284
_cell_angle_beta   106.44013833
_cell_angle_gamma   89.36753560
_symmetry_Int_Tables_number   1
_chemical_formula_structural   MgNb4(SnO6)2
_chemical_formula_sum   'Mg1 Nb4 Sn2 O12'
_cell_volume   256.55521488
_cell_formula_units_Z   1
loop_
 _symmetry_equiv_pos_site_id
 _symmetry_equiv_pos_as_xyz
  1  'x, y, z'
loop_
 _atom_site_type_symbol
 _atom_site_label
 _atom_site_symmetry_multiplicity
 _atom_site_fract_x
 _atom_site_fract_y
 _atom_site_fract_z
 _atom_site_occupancy
  Mg  Mg0  1  0.78599900  0.89535500  0.09321300  1
  Nb  Nb1  1  0.43147600  0.14367800  0.32837600  1
  Nb  Nb2  1  0.04325700  0.34624900  0.62787900  1
  Nb  Nb3  1  0.55492800  0.85329000  0.66842300  1
  Nb  Nb4  1  0.95440800  0.62889700  0.37889800  1
  Sn  Sn5  1  0.77558300  0.33341700  0.99286500  1
  Sn  Sn6  1  0.22411200  0.71007700  0.95954100  1
  O  O7  1  0.73033200  0.14089200  0.56081600  1
  O  O8  1  0.19607900  0.32725000  0.44111600  1
  O  O9  1  0.26676400  0.83826700  0.43952100  1
  O  O10  1  0.81035600  0.65958500  0.56683300  1
  O  O11  1  0.62860100  0.38697500  0.28154400  1
  O  O12  1  0.33086300  0.09618700  0.71180500  1
  O  O13  1  0.98922600  0.60580700  0.13503300  1
  O  O14  1  0.83547600  0.88305800  0.87009600  1
  O  O15  1  0.02494900  0.41051500  0.85584900  1
  O  O16  1  0.12278300  0.10352500  0.15001100  1
  O  O17  1  0.66783600  0.89129200  0.28334100  1
  O  O18  1  0.36447200  0.60282500  0.71912400  1
