# generated using pymatgen
data_Nb2Se4O13
_symmetry_space_group_name_H-M   'P 1'
_cell_length_a   6.70775494
_cell_length_b   7.62282535
_cell_length_c   11.49056528
_cell_angle_alpha   70.66994566
_cell_angle_beta   90.00000000
_cell_angle_gamma   90.00000000
_symmetry_Int_Tables_number   1
_chemical_formula_structural   Nb2Se4O13
_chemical_formula_sum   'Nb4 Se8 O26'
_cell_volume   554.41518697
_cell_formula_units_Z   2
loop_
 _symmetry_equiv_pos_site_id
 _symmetry_equiv_pos_as_xyz
  1  'x, y, z'
loop_
 _atom_site_type_symbol
 _atom_site_label
 _atom_site_symmetry_multiplicity
 _atom_site_fract_x
 _atom_site_fract_y
 _atom_site_fract_z
 _atom_site_occupancy
  Nb  Nb0  1  0.49462280  0.93625047  0.39720070  1
  Nb  Nb1  1  0.50537720  0.43625047  0.39720070  1
  Nb  Nb2  1  0.00307317  0.82930359  0.04748951  1
  Nb  Nb3  1  0.99692683  0.32930359  0.04748951  1
  Se  Se4  1  0.51905124  0.89338575  0.70918094  1
  Se  Se5  1  0.48094876  0.39338575  0.70918094  1
  Se  Se6  1  0.07239882  0.05177252  0.71961127  1
  Se  Se7  1  0.92760118  0.55177252  0.71961127  1
  Se  Se8  1  0.05241670  0.67376431  0.38544372  1
  Se  Se9  1  0.94758330  0.17376431  0.38544372  1
  Se  Se10  1  0.55142505  0.58912404  0.05817232  1
  Se  Se11  1  0.44857495  0.08912404  0.05817232  1
  O  O12  1  0.09980754  0.50213975  0.63377115  1
  O  O13  1  0.90019246  0.00213975  0.63377115  1
  O  O14  1  0.58355000  0.69923082  0.81646528  1
  O  O15  1  0.41645000  0.19923082  0.81646528  1
  O  O16  1  0.24604713  0.86572727  0.72396398  1
  O  O17  1  0.75395287  0.36572727  0.72396398  1
  O  O18  1  0.58102255  0.66200463  0.40441153  1
  O  O19  1  0.41897745  0.16200463  0.40441153  1
  O  O20  1  0.52941733  0.81967430  0.58053680  1
  O  O21  1  0.47058267  0.31967430  0.58053680  1
  O  O22  1  0.21140714  0.83675994  0.40650912  1
  O  O23  1  0.78859286  0.33675994  0.40650912  1
  O  O24  1  0.99195682  0.27205991  0.23187621  1
  O  O25  1  0.00804318  0.77205991  0.23187621  1
  O  O26  1  0.29149286  0.26986462  0.05593988  1
  O  O27  1  0.70850714  0.76986462  0.05593988  1
  O  O28  1  0.28914362  0.92474084  0.04067947  1
  O  O29  1  0.71085638  0.42474084  0.04067947  1
  O  O30  1  0.02187748  0.44295605  0.86583537  1
  O  O31  1  0.97812252  0.94295605  0.86583537  1
  O  O32  1  0.91902529  0.09945251  0.05074034  1
  O  O33  1  0.08097471  0.59945251  0.05074034  1
  O  O34  1  0.48331586  -0.00243317  0.21420505  1
  O  O35  1  0.51668414  0.49756683  0.21420505  1
  O  O36  1  0.21097105  0.49792085  0.38196637  1
  O  O37  1  0.78902895  0.99792085  0.38196637  1
