# generated using pymatgen
data_CdSe
_symmetry_space_group_name_H-M   'P 1'
_cell_length_a   4.34202012
_cell_length_b   4.34201911
_cell_length_c   4.34201861
_cell_angle_alpha   59.99999606
_cell_angle_beta   60.00000366
_cell_angle_gamma   59.99999023
_symmetry_Int_Tables_number   1
_chemical_formula_structural   CdSe
_chemical_formula_sum   'Cd1 Se1'
_cell_volume   57.88422347
_cell_formula_units_Z   1
loop_
 _symmetry_equiv_pos_site_id
 _symmetry_equiv_pos_as_xyz
  1  'x, y, z'
loop_
 _atom_site_type_symbol
 _atom_site_label
 _atom_site_symmetry_multiplicity
 _atom_site_fract_x
 _atom_site_fract_y
 _atom_site_fract_z
 _atom_site_occupancy
  Cd  Cd0  1  0.00000000  0.00000000  -0.00000000  1
  Se  Se1  1  0.25000000  0.25000000  0.25000000  1
