# generated using pymatgen
data_Na10Y7TaSi6(SO8)6
_symmetry_space_group_name_H-M   'P 1'
_cell_length_a   18.65419088
_cell_length_b   9.34907274
_cell_length_c   23.50980787
_cell_angle_alpha   90.13788596
_cell_angle_beta   89.81323858
_cell_angle_gamma   119.98077438
_symmetry_Int_Tables_number   1
_chemical_formula_structural   Na10Y7TaSi6(SO8)6
_chemical_formula_sum   'Na30 Y21 Ta3 Si18 S18 O144'
_cell_volume   3551.45476949
_cell_formula_units_Z   3
loop_
 _symmetry_equiv_pos_site_id
 _symmetry_equiv_pos_as_xyz
  1  'x, y, z'
loop_
 _atom_site_type_symbol
 _atom_site_label
 _atom_site_symmetry_multiplicity
 _atom_site_fract_x
 _atom_site_fract_y
 _atom_site_fract_z
 _atom_site_occupancy
  Na  Na0  1  0.32163236  0.01116123  0.24686846  1
  Na  Na1  1  0.82655505  0.00387378  0.25033300  1
  Na  Na2  1  0.18559212  0.35655979  0.24921521  1
  Na  Na3  1  0.68739739  0.38177369  0.23172877  1
  Na  Na4  1  0.99507267  0.63117458  0.24028293  1
  Na  Na5  1  0.49279766  0.61723781  0.25057824  1
  Na  Na6  1  0.30970520  0.62063703  0.74889356  1
  Na  Na7  1  0.80996736  0.62402847  0.74663377  1
  Na  Na8  1  0.99400725  0.34208645  0.74338839  1
  Na  Na9  1  0.69126086  0.01915131  0.75731191  1
  Na  Na10  1  0.16652635  0.34556044  0.58273074  1
  Na  Na11  1  0.00858610  0.68901059  0.58676431  1
  Na  Na12  1  0.32809872  0.96388080  0.58850565  1
  Na  Na13  1  0.83522048  0.97544122  0.58092003  1
  Na  Na14  1  0.82886578  0.66839977  0.07210772  1
  Na  Na15  1  0.17087020  0.31121842  0.90471590  1
  Na  Na16  1  0.67281277  0.31720919  0.91621906  1
  Na  Na17  1  0.35586735  0.66612537  0.41767318  1
  Na  Na18  1  0.99994033  0.99371698  0.49735897  1
  Na  Na19  1  0.50694998  0.96088609  0.50009826  1
  Na  Na20  1  0.98550727  0.95484823  0.99788324  1
  Na  Na21  1  0.48587988  0.94420239  0.00132879  1
  Na  Na22  1  0.32801537  0.33085899  0.83697242  1
  Na  Na23  1  0.82678955  0.33703796  0.83828126  1
  Na  Na24  1  0.35022353  0.34404887  0.33246706  1
  Na  Na25  1  0.84452634  0.35363047  0.32937468  1
  Na  Na26  1  0.15148725  0.66165269  0.16409707  1
  Na  Na27  1  0.64454126  0.62757708  0.15768518  1
  Na  Na28  1  0.16404099  0.66046434  0.66035382  1
  Na  Na29  1  0.66971524  0.62109015  0.66882837  1
  Y  Y30  1  0.99870362  0.99845005  0.34808575  1
  Y  Y31  1  0.50058247  0.99552057  0.35155020  1
  Y  Y32  1  0.99326063  0.99615274  0.85222248  1
  Y  Y33  1  0.49754411  0.99533160  0.85347572  1
  Y  Y34  1  0.50545772  0.00642007  0.64870651  1
  Y  Y35  1  0.32631131  0.32852020  0.68204480  1
  Y  Y36  1  0.82866530  0.33824629  0.68152417  1
  Y  Y37  1  0.33996703  0.34612653  0.18260097  1
  Y  Y38  1  0.84077211  0.34971883  0.17683606  1
  Y  Y39  1  0.34198669  0.36134984  0.98659974  1
  Y  Y40  1  0.83459469  0.34980821  0.98861881  1
  Y  Y41  1  0.33363952  0.34195140  0.48377030  1
  Y  Y42  1  0.84025695  0.34745603  0.48609871  1
  Y  Y43  1  0.16931218  0.67165110  0.01911109  1
  Y  Y44  1  0.66503537  0.66450016  0.02031751  1
  Y  Y45  1  0.16506365  0.66499764  0.51950518  1
  Y  Y46  1  0.66160401  0.65868799  0.51439632  1
  Y  Y47  1  0.16376630  0.66440916  0.30781777  1
  Y  Y48  1  0.66040687  0.65431723  0.31630784  1
  Y  Y49  1  0.16836137  0.66371754  0.81732103  1
  Y  Y50  1  0.67325080  0.66243113  0.81572123  1
  Ta  Ta51  1  0.00100288  0.01432216  0.64742680  1
  Ta  Ta52  1  -0.00113003  0.99051077  0.15304969  1
  Ta  Ta53  1  0.49758902  0.00523729  0.14578968  1
  Si  Si54  1  0.14690905  0.00260876  0.24968886  1
  Si  Si55  1  0.35478430  0.71234880  0.24960798  1
  Si  Si56  1  0.85081924  0.70173744  0.25026082  1
  Si  Si57  1  0.99618167  0.28615570  0.24766643  1
  Si  Si58  1  0.50087603  0.29065560  0.24981271  1
  Si  Si59  1  0.14669115  0.29622779  0.75352962  1
  Si  Si60  1  0.65097064  0.29700333  0.75457333  1
  Si  Si61  1  0.85130829  0.00051901  0.74667514  1
  Si  Si62  1  0.98078804  0.33068926  0.58801420  1
  Si  Si63  1  0.18193331  0.03616178  0.58390032  1
  Si  Si64  1  0.33640762  0.64562082  0.58275944  1
  Si  Si65  1  0.83514421  0.64465043  0.58893146  1
  Si  Si66  1  0.48948521  0.65058198  0.08990782  1
  Si  Si67  1  0.98995656  0.65469744  0.08893443  1
  Si  Si68  1  0.67854962  0.32783372  0.08572223  1
  Si  Si69  1  0.31659838  0.66113697  0.91432101  1
  Si  Si70  1  0.81997006  0.66372600  0.91968689  1
  Si  Si71  1  0.51220690  0.66263942  0.41328798  1
  S  S72  1  0.64448404  -0.00062339  0.24520569  1
  S  S73  1  0.00243246  0.71271471  0.74573069  1
  S  S74  1  0.49927649  0.70122714  0.74965979  1
  S  S75  1  0.35033485  0.00031523  0.74872404  1
  S  S76  1  0.48215049  0.33343032  0.58515816  1
  S  S77  1  0.68368490  0.03404828  0.58145601  1
  S  S78  1  0.33744522  0.03348224  0.08630943  1
  S  S79  1  0.84094729  0.03359673  0.08653848  1
  S  S80  1  0.17573297  0.32037137  0.08505779  1
  S  S81  1  0.01657369  0.36960895  0.91690063  1
  S  S82  1  0.51635916  0.36930428  0.91633632  1
  S  S83  1  0.16892236  0.97062132  0.91747378  1
  S  S84  1  0.66857369  0.97102333  0.91426852  1
  S  S85  1  0.31408205  0.96388210  0.41594442  1
  S  S86  1  0.81720111  0.97206872  0.41724579  1
  S  S87  1  0.16535668  0.36521041  0.41589377  1
  S  S88  1  0.67131810  0.36610470  0.41576729  1
  S  S89  1  0.01472659  0.66597401  0.41643714  1
  O  O90  1  0.10878549  0.04305243  0.30471860  1
  O  O91  1  0.60996404  0.02674440  0.29786862  1
  O  O92  1  0.40665786  0.78083768  0.30842694  1
  O  O93  1  0.91268404  0.78298285  0.30330455  1
  O  O94  1  0.49051214  0.18315622  0.30590139  1
  O  O95  1  0.98028291  0.17283066  0.30316580  1
  O  O96  1  0.10832555  0.20491092  0.81343208  1
  O  O97  1  0.60818270  0.19146802  0.81277069  1
  O  O98  1  0.48549835  0.78237644  0.79959818  1
  O  O99  1  0.99669987  0.79834007  0.79644060  1
  O  O100  1  0.39992646  0.00585370  0.79841451  1
  O  O101  1  0.90963472  0.02515954  0.80062923  1
  O  O102  1  0.38888846  0.98314212  0.69526398  1
  O  O103  1  0.90517895  0.98276312  0.69096464  1
  O  O104  1  0.08347074  0.17929868  0.69895763  1
  O  O105  1  0.59844526  0.19351455  0.69864948  1
  O  O106  1  0.00710599  0.80667873  0.69293180  1
  O  O107  1  0.50493905  0.79554277  0.69750788  1
  O  O108  1  0.41197699  0.84179662  0.19711363  1
  O  O109  1  0.90547326  0.82452023  0.19280597  1
  O  O110  1  0.00429304  0.17966110  0.19198466  1
  O  O111  1  0.50809162  0.18451283  0.19442874  1
  O  O112  1  0.08239424  0.98388297  0.19469396  1
  O  O113  1  0.59089983  0.98496364  0.19596009  1
  O  O114  1  0.44436193  0.35351151  0.63742978  1
  O  O115  1  0.94744159  0.37086954  0.64629520  1
  O  O116  1  0.24819675  0.10824434  0.63600990  1
  O  O117  1  0.72922653  0.10883056  0.63526005  1
  O  O118  1  0.32381193  0.53115344  0.63946741  1
  O  O119  1  0.81890866  0.54702375  0.64911849  1
  O  O120  1  0.45181017  0.54581799  0.14834595  1
  O  O121  1  0.95427042  0.56214202  0.14992951  1
  O  O122  1  0.32812873  0.10515694  0.13997238  1
  O  O123  1  0.83138248  0.10512212  0.14041931  1
  O  O124  1  0.22533394  0.33960495  0.13653689  1
  O  O125  1  0.73380868  0.35093473  0.14249142  1
  O  O126  1  0.21593504  0.29894652  0.03355376  1
  O  O127  1  0.71870830  0.29679083  0.02831086  1
  O  O128  1  0.42825882  0.55854716  0.03542655  1
  O  O129  1  0.91970631  0.55641139  0.03973830  1
  O  O130  1  0.34654200  0.13617523  0.03656259  1
  O  O131  1  0.84993316  0.13807773  0.03741101  1
  O  O132  1  0.21730707  0.16041403  0.52974432  1
  O  O133  1  0.72680742  0.14128429  0.53249932  1
  O  O134  1  0.34112044  0.55435896  0.52439655  1
  O  O135  1  0.85833950  0.55328976  0.53789952  1
  O  O136  1  0.43050268  0.31387853  0.53473269  1
  O  O137  1  0.91398874  0.27317064  0.53638004  1
  O  O138  1  0.26074743  0.66813673  0.96633142  1
  O  O139  1  0.77169535  0.67260906  0.97676731  1
  O  O140  1  0.06821956  0.46795909  0.96506554  1
  O  O141  1  0.56567612  0.45523728  0.96709630  1
  O  O142  1  0.16062798  0.87125113  0.96821645  1
  O  O143  1  0.66205435  0.86457040  0.96202570  1
  O  O144  1  0.27087807  0.86554640  0.46759558  1
  O  O145  1  0.77227451  0.87691095  0.46885434  1
  O  O146  1  0.16319850  0.45430460  0.46777159  1
  O  O147  1  0.66801631  0.45889768  0.46587113  1
  O  O148  1  0.05888434  0.66483535  0.46867810  1
  O  O149  1  0.56948361  0.66602013  0.46657337  1
  O  O150  1  0.05956112  0.66273096  0.36474243  1
  O  O151  1  0.55578790  0.65970113  0.35202767  1
  O  O152  1  0.26586213  0.87744687  0.36426288  1
  O  O153  1  0.77189883  0.88433034  0.36461794  1
  O  O154  1  0.16807412  0.46071417  0.36430040  1
  O  O155  1  0.67788349  0.45914834  0.36263226  1
  O  O156  1  0.05238118  0.46151530  0.86231507  1
  O  O157  1  0.55457939  0.46799538  0.86452606  1
  O  O158  1  0.17131733  0.88310657  0.86511685  1
  O  O159  1  0.66845200  0.89330687  0.85862519  1
  O  O160  1  0.26585802  0.64239028  0.85339864  1
  O  O161  1  0.76582155  0.64927040  0.86175479  1
  O  O162  1  0.00631682  0.81530122  0.41800397  1
  O  O163  1  0.50053303  0.82668762  0.41894999  1
  O  O164  1  0.39573193  0.97206576  0.41474872  1
  O  O165  1  0.90073957  0.98818144  0.41847379  1
  O  O166  1  0.09144537  0.19895439  0.41661100  1
  O  O167  1  0.59604637  0.20178886  0.41524844  1
  O  O168  1  0.01915872  0.21237370  0.91617998  1
  O  O169  1  0.51500465  0.20814723  0.91305287  1
  O  O170  1  0.09715632  0.99926307  0.91538170  1
  O  O171  1  0.59575902  0.99854406  0.91643779  1
  O  O172  1  0.40968135  0.82312060  0.91525316  1
  O  O173  1  0.91337819  0.82514107  0.91801526  1
  O  O174  1  0.48668509  0.17879606  0.58848753  1
  O  O175  1  0.99434731  0.16563796  0.59579240  1
  O  O176  1  0.09066526  0.02113819  0.59994239  1
  O  O177  1  0.59882399  0.00910521  0.58386091  1
  O  O178  1  0.41391544  0.83634675  0.58496545  1
  O  O179  1  0.92503425  0.82829469  0.59531417  1
  O  O180  1  0.49191804  0.83252756  0.09705525  1
  O  O181  1  0.99133138  0.83802774  0.09160491  1
  O  O182  1  0.41554722  0.02109172  0.09009985  1
  O  O183  1  0.91761279  0.01691151  0.08980850  1
  O  O184  1  0.09172138  0.16922523  0.09119361  1
  O  O185  1  0.58494521  0.16366666  0.09707198  1
  O  O186  1  0.34294857  0.14962991  0.74803803  1
  O  O187  1  0.84258262  0.16502528  0.74115757  1
  O  O188  1  0.24225190  0.33443488  0.74670018  1
  O  O189  1  0.74517107  0.31832042  0.75308741  1
  O  O190  1  0.42689882  0.53184243  0.74628318  1
  O  O191  1  0.92638266  0.54635112  0.74435648  1
  O  O192  1  0.33518157  0.52160696  0.24246379  1
  O  O193  1  0.83342249  0.51206567  0.24461538  1
  O  O194  1  0.41852880  0.31065052  0.24539487  1
  O  O195  1  0.91460538  0.30878340  0.24402009  1
  O  O196  1  0.23961914  0.15451554  0.23890802  1
  O  O197  1  0.72983071  0.14052244  0.23860614  1
  O  O198  1  0.31672342  0.48262492  0.91749059  1
  O  O199  1  0.82019706  0.48543764  0.91838338  1
  O  O200  1  0.43038929  0.33796770  0.92131668  1
  O  O201  1  0.93093841  0.33587968  0.92199335  1
  O  O202  1  0.24579032  0.13512000  0.92045704  1
  O  O203  1  0.74514308  0.13486125  0.91797771  1
  O  O204  1  0.32337932  0.12950451  0.41913505  1
  O  O205  1  0.82388647  0.13744124  0.41817984  1
  O  O206  1  0.24328148  0.35810871  0.41557102  1
  O  O207  1  0.74644215  0.34934726  0.41926002  1
  O  O208  1  0.41774033  0.49801378  0.41464443  1
  O  O209  1  0.93128544  0.51329639  0.41574243  1
  O  O210  1  0.16535539  0.46694534  0.07934786  1
  O  O211  1  0.67352783  0.49769684  0.08173957  1
  O  O212  1  0.08189460  0.68110284  0.08006110  1
  O  O213  1  0.58339910  0.68762151  0.08124139  1
  O  O214  1  0.26705514  0.86382950  0.08062255  1
  O  O215  1  0.76974960  0.86419448  0.08050171  1
  O  O216  1  0.16007408  0.84477132  0.57521025  1
  O  O217  1  0.68056081  0.87289930  0.57617055  1
  O  O218  1  0.25054311  0.65938824  0.58173163  1
  O  O219  1  0.76144418  0.68656736  0.57717264  1
  O  O220  1  0.07385521  0.48163029  0.57649855  1
  O  O221  1  0.56704680  0.47702813  0.57957950  1
  O  O222  1  0.14302701  0.82365356  0.25030690  1
  O  O223  1  0.64869521  0.84444480  0.24833668  1
  O  O224  1  0.26624790  0.71152079  0.25078843  1
  O  O225  1  0.76541366  0.71047452  0.25186644  1
  O  O226  1  0.08319963  0.46407526  0.24910236  1
  O  O227  1  0.58622027  0.47331130  0.24859463  1
  O  O228  1  0.14689490  0.47518165  0.74827512  1
  O  O229  1  0.66142373  0.48235710  0.75240811  1
  O  O230  1  0.07580449  0.69048961  0.74788503  1
  O  O231  1  0.57784139  0.70020538  0.75558980  1
  O  O232  1  0.26673579  0.84740337  0.75208434  1
  O  O233  1  0.75952122  0.83486749  0.74729531  1
