# generated using pymatgen
data_MgTiZn(BiO3)2
_symmetry_space_group_name_H-M   'P 1'
_cell_length_a   5.64550523
_cell_length_b   5.64550523
_cell_length_c   6.63807104
_cell_angle_alpha   90.00000000
_cell_angle_beta   90.00000000
_cell_angle_gamma   110.63579476
_symmetry_Int_Tables_number   1
_chemical_formula_structural   MgTiZn(BiO3)2
_chemical_formula_sum   'Mg1 Ti1 Zn1 Bi2 O6'
_cell_volume   197.99258105
_cell_formula_units_Z   1
loop_
 _symmetry_equiv_pos_site_id
 _symmetry_equiv_pos_as_xyz
  1  'x, y, z'
loop_
 _atom_site_type_symbol
 _atom_site_label
 _atom_site_symmetry_multiplicity
 _atom_site_fract_x
 _atom_site_fract_y
 _atom_site_fract_z
 _atom_site_occupancy
  Mg  Mg0  1  0.66732740  0.33267260  0.00000000  1
  Ti  Ti1  1  0.36729513  0.63270487  0.00000000  1
  Zn  Zn2  1  0.45435910  0.54564090  0.50000000  1
  Bi  Bi3  1  0.02505062  0.97494938  0.71859285  1
  Bi  Bi4  1  0.02505062  0.97494938  0.28140715  1
  O  O5  1  0.11086965  0.29364611  0.50000000  1
  O  O6  1  0.70635389  0.88913035  0.50000000  1
  O  O7  1  0.02560456  0.52193309  0.00000000  1
  O  O8  1  0.47806691  0.97439544  0.00000000  1
  O  O9  1  0.50567656  0.49432344  0.79631688  1
  O  O10  1  0.50567656  0.49432344  0.20368312  1
