# generated using pymatgen
data_Na4MgGa(PO4)3
_symmetry_space_group_name_H-M   'P 1'
_cell_length_a   8.88155600
_cell_length_b   8.88155571
_cell_length_c   21.91865742
_cell_angle_alpha   90.00000000
_cell_angle_beta   90.00000000
_cell_angle_gamma   120.00000107
_symmetry_Int_Tables_number   1
_chemical_formula_structural   Na4MgGa(PO4)3
_chemical_formula_sum   'Na24 Mg6 Ga6 P18 O72'
_cell_volume   1497.34776531
_cell_formula_units_Z   6
loop_
 _symmetry_equiv_pos_site_id
 _symmetry_equiv_pos_as_xyz
  1  'x, y, z'
loop_
 _atom_site_type_symbol
 _atom_site_label
 _atom_site_symmetry_multiplicity
 _atom_site_fract_x
 _atom_site_fract_y
 _atom_site_fract_z
 _atom_site_occupancy
  Na  Na0  1  0.63536281  0.00296188  0.24952945  1
  Na  Na1  1  0.36759906  0.36463719  0.24952945  1
  Na  Na2  1  0.99703812  0.63240094  0.24952945  1
  Na  Na3  1  0.63536281  0.63240094  0.74952945  1
  Na  Na4  1  0.99703812  0.36463719  0.74952945  1
  Na  Na5  1  0.36759906  0.00296188  0.74952945  1
  Na  Na6  1  0.30202981  0.33629488  0.58286245  1
  Na  Na7  1  0.03426606  0.69797019  0.58286245  1
  Na  Na8  1  0.66370512  0.96573394  0.58286245  1
  Na  Na9  1  0.30202981  0.96573394  0.08286245  1
  Na  Na10  1  0.66370512  0.69797019  0.08286245  1
  Na  Na11  1  0.03426606  0.33629488  0.08286245  1
  Na  Na12  1  0.96869581  0.66962888  0.91619645  1
  Na  Na13  1  0.70093206  0.03130419  0.91619645  1
  Na  Na14  1  0.33037112  0.29906794  0.91619645  1
  Na  Na15  1  0.96869581  0.29906794  0.41619645  1
  Na  Na16  1  0.33037112  0.03130419  0.41619645  1
  Na  Na17  1  0.70093206  0.66962888  0.41619645  1
  Na  Na18  1  -0.00000000  0.00000000  0.49902280  1
  Na  Na19  1  -0.00000000  0.00000000  0.99902280  1
  Na  Na20  1  0.66666700  0.33333300  0.83235580  1
  Na  Na21  1  0.66666700  0.33333300  0.33235580  1
  Na  Na22  1  0.33333300  0.66666700  0.16568980  1
  Na  Na23  1  0.33333300  0.66666700  0.66568980  1
  Mg  Mg24  1  -0.00000000  0.00000000  0.35054948  1
  Mg  Mg25  1  -0.00000000  0.00000000  0.85054948  1
  Mg  Mg26  1  0.66666700  0.33333300  0.68388248  1
  Mg  Mg27  1  0.66666700  0.33333300  0.18388248  1
  Mg  Mg28  1  0.33333300  0.66666700  0.01721648  1
  Mg  Mg29  1  0.33333300  0.66666700  0.51721648  1
  Ga  Ga30  1  -0.00000000  0.00000000  0.65183498  1
  Ga  Ga31  1  -0.00000000  0.00000000  0.15183498  1
  Ga  Ga32  1  0.66666700  0.33333300  0.98516798  1
  Ga  Ga33  1  0.66666700  0.33333300  0.48516798  1
  Ga  Ga34  1  0.33333300  0.66666700  0.31850198  1
  Ga  Ga35  1  0.33333300  0.66666700  0.81850198  1
  P  P36  1  0.29211504  0.99850795  0.25081994  1
  P  P37  1  0.70639291  0.70788496  0.25081994  1
  P  P38  1  0.00149205  0.29360709  0.25081994  1
  P  P39  1  0.29211504  0.29360709  0.75081994  1
  P  P40  1  0.00149205  0.70788496  0.75081994  1
  P  P41  1  0.70639291  0.99850795  0.75081994  1
  P  P42  1  0.95878204  0.33184095  0.58415294  1
  P  P43  1  0.37305991  0.04121796  0.58415294  1
  P  P44  1  0.66815905  0.62694009  0.58415294  1
  P  P45  1  0.95878204  0.62694009  0.08415294  1
  P  P46  1  0.66815905  0.04121796  0.08415294  1
  P  P47  1  0.37305991  0.33184095  0.08415294  1
  P  P48  1  0.62544804  0.66517495  0.91748694  1
  P  P49  1  0.03972591  0.37455196  0.91748694  1
  P  P50  1  0.33482505  0.96027409  0.91748694  1
  P  P51  1  0.62544804  0.96027409  0.41748694  1
  P  P52  1  0.33482505  0.37455196  0.41748694  1
  P  P53  1  0.03972591  0.66517495  0.41748694  1
  O  O54  1  0.21114397  0.03169168  0.30683038  1
  O  O55  1  0.82054771  0.78885603  0.30683038  1
  O  O56  1  0.96830832  0.17945229  0.30683038  1
  O  O57  1  0.21114397  0.17945229  0.80683038  1
  O  O58  1  0.96830832  0.78885603  0.80683038  1
  O  O59  1  0.82054771  0.03169168  0.80683038  1
  O  O60  1  0.78619265  0.96115494  0.69271785  1
  O  O61  1  0.17496230  0.21380735  0.69271785  1
  O  O62  1  0.03884506  0.82503770  0.69271785  1
  O  O63  1  0.78619265  0.82503770  0.19271785  1
  O  O64  1  0.03884506  0.21380735  0.19271785  1
  O  O65  1  0.17496230  0.96115494  0.19271785  1
  O  O66  1  0.87781097  0.36502468  0.64016338  1
  O  O67  1  0.48721471  0.12218903  0.64016338  1
  O  O68  1  0.63497532  0.51278529  0.64016338  1
  O  O69  1  0.87781097  0.51278529  0.14016338  1
  O  O70  1  0.63497532  0.12218903  0.14016338  1
  O  O71  1  0.48721471  0.36502468  0.14016338  1
  O  O72  1  0.45285965  0.29448794  0.02605085  1
  O  O73  1  0.84162930  0.54714035  0.02605085  1
  O  O74  1  0.70551206  0.15837070  0.02605085  1
  O  O75  1  0.45285965  0.15837070  0.52605085  1
  O  O76  1  0.70551206  0.54714035  0.52605085  1
  O  O77  1  0.84162930  0.29448794  0.52605085  1
  O  O78  1  0.54447697  0.69835868  0.97349738  1
  O  O79  1  0.15388071  0.45552303  0.97349738  1
  O  O80  1  0.30164132  0.84611929  0.97349738  1
  O  O81  1  0.54447697  0.84611929  0.47349738  1
  O  O82  1  0.30164132  0.45552303  0.47349738  1
  O  O83  1  0.15388071  0.69835868  0.47349738  1
  O  O84  1  0.11952565  0.62782194  0.35938485  1
  O  O85  1  0.50829530  0.88047435  0.35938485  1
  O  O86  1  0.37217806  0.49170470  0.35938485  1
  O  O87  1  0.11952565  0.49170470  0.85938485  1
  O  O88  1  0.37217806  0.88047435  0.85938485  1
  O  O89  1  0.50829530  0.62782194  0.85938485  1
  O  O90  1  0.01883328  0.82692555  0.41059636  1
  O  O91  1  0.80809227  0.98116672  0.41059636  1
  O  O92  1  0.17307445  0.19190773  0.41059636  1
  O  O93  1  0.01883328  0.19190773  0.91059636  1
  O  O94  1  0.17307445  0.98116672  0.91059636  1
  O  O95  1  0.80809227  0.82692555  0.91059636  1
  O  O96  1  0.97526589  0.16377714  0.58903693  1
  O  O97  1  0.18851125  0.02473411  0.58903693  1
  O  O98  1  0.83622286  0.81148875  0.58903693  1
  O  O99  1  0.97526589  0.81148875  0.08903693  1
  O  O100  1  0.83622286  0.02473411  0.08903693  1
  O  O101  1  0.18851125  0.16377714  0.08903693  1
  O  O102  1  0.68550028  0.16025855  0.74392936  1
  O  O103  1  0.47475927  0.31449972  0.74392936  1
  O  O104  1  0.83974145  0.52524073  0.74392936  1
  O  O105  1  0.68550028  0.52524073  0.24392936  1
  O  O106  1  0.83974145  0.31449972  0.24392936  1
  O  O107  1  0.47475927  0.16025855  0.24392936  1
  O  O108  1  0.64193289  0.49711014  0.92236993  1
  O  O109  1  0.85517825  0.35806711  0.92236993  1
  O  O110  1  0.50288986  0.14482175  0.92236993  1
  O  O111  1  0.64193289  0.14482175  0.42236993  1
  O  O112  1  0.50288986  0.35806711  0.42236993  1
  O  O113  1  0.85517825  0.49711014  0.42236993  1
  O  O114  1  0.35216628  0.49359255  0.07726336  1
  O  O115  1  0.14142527  0.64783372  0.07726336  1
  O  O116  1  0.50640745  0.85857473  0.07726336  1
  O  O117  1  0.35216628  0.85857473  0.57726336  1
  O  O118  1  0.50640745  0.64783372  0.57726336  1
  O  O119  1  0.14142527  0.49359255  0.57726336  1
  O  O120  1  0.30859889  0.83044414  0.25570393  1
  O  O121  1  0.52184425  0.69140111  0.25570393  1
  O  O122  1  0.16955586  0.47815575  0.25570393  1
  O  O123  1  0.30859889  0.47815575  0.75570393  1
  O  O124  1  0.16955586  0.69140111  0.75570393  1
  O  O125  1  0.52184425  0.83044414  0.75570393  1
