# generated using pymatgen
data_Na3Nb3GaSi3(PO8)3
_symmetry_space_group_name_H-M   'P 1'
_cell_length_a   8.83074671
_cell_length_b   8.85361066
_cell_length_c   22.68858719
_cell_angle_alpha   89.98747398
_cell_angle_beta   90.04857396
_cell_angle_gamma   119.91023798
_symmetry_Int_Tables_number   1
_chemical_formula_structural   Na3Nb3GaSi3(PO8)3
_chemical_formula_sum   'Na9 Nb9 Ga3 Si9 P9 O72'
_cell_volume   1537.61594737
_cell_formula_units_Z   3
loop_
 _symmetry_equiv_pos_site_id
 _symmetry_equiv_pos_as_xyz
  1  'x, y, z'
loop_
 _atom_site_type_symbol
 _atom_site_label
 _atom_site_symmetry_multiplicity
 _atom_site_fract_x
 _atom_site_fract_y
 _atom_site_fract_z
 _atom_site_occupancy
  Na  Na0  1  0.63750372  0.00244476  0.24864718  1
  Na  Na1  1  0.37168028  0.36349541  0.24763285  1
  Na  Na2  1  0.70605320  0.67411899  0.41435763  1
  Na  Na3  1  0.00673297  0.00678913  0.49441150  1
  Na  Na4  1  0.00122929  0.00101991  0.99973304  1
  Na  Na5  1  0.66718078  0.33340402  0.82978570  1
  Na  Na6  1  0.67445643  0.33628459  0.33152291  1
  Na  Na7  1  0.32776643  0.66492126  0.16467294  1
  Na  Na8  1  0.33466774  0.66609119  0.66555744  1
  Nb  Nb9  1  0.00112973  0.00125666  0.85494621  1
  Nb  Nb10  1  0.99760737  0.99732565  0.64385159  1
  Nb  Nb11  1  0.99815930  0.99810120  0.14494722  1
  Nb  Nb12  1  0.66064383  0.33147307  0.97720526  1
  Nb  Nb13  1  0.66773086  0.33457499  0.47851346  1
  Nb  Nb14  1  0.33396029  0.66312180  0.02089716  1
  Nb  Nb15  1  0.33589982  0.66469848  0.52003788  1
  Nb  Nb16  1  0.33265225  0.66723610  0.31487668  1
  Nb  Nb17  1  0.33314200  0.66647913  0.81228751  1
  Ga  Ga18  1  0.99899128  0.99664263  0.35493101  1
  Ga  Ga19  1  0.66446036  0.33497150  0.68483161  1
  Ga  Ga20  1  0.67297638  0.34773539  0.18373001  1
  Si  Si21  1  0.71702227  0.70564493  0.25212768  1
  Si  Si22  1  0.66308844  0.61433151  0.58645578  1
  Si  Si23  1  0.38099485  0.33387433  0.08635212  1
  Si  Si24  1  0.62179014  0.66777325  0.91623635  1
  Si  Si25  1  0.04475518  0.37935459  0.91630033  1
  Si  Si26  1  0.33327207  0.95229315  0.91686024  1
  Si  Si27  1  0.62880721  0.96111443  0.41635921  1
  Si  Si28  1  0.32108416  0.36484559  0.41586480  1
  Si  Si29  1  0.04611159  0.67323384  0.41724082  1
  P  P30  1  0.28772485  0.00095381  0.25081912  1
  P  P31  1  0.99407128  0.28640133  0.25030176  1
  P  P32  1  0.29460879  0.28844327  0.74876432  1
  P  P33  1  0.99398011  0.70529125  0.74905032  1
  P  P34  1  0.71117102  0.00702987  0.74874191  1
  P  P35  1  0.95171291  0.33568494  0.58618947  1
  P  P36  1  0.38426760  0.04814832  0.58597447  1
  P  P37  1  0.95233336  0.61719138  0.08454685  1
  P  P38  1  0.66473205  0.04925101  0.08573558  1
  O  O39  1  0.20699212  0.03785845  0.30437862  1
  O  O40  1  0.82735700  0.79803442  0.31038519  1
  O  O41  1  0.96344358  0.17226435  0.30431869  1
  O  O42  1  0.19949186  0.17472882  0.80389153  1
  O  O43  1  0.97404294  0.79987633  0.80380659  1
  O  O44  1  0.82520639  0.02706514  0.80369741  1
  O  O45  1  0.80212985  0.97522887  0.69464947  1
  O  O46  1  0.17346434  0.19925025  0.69484917  1
  O  O47  1  0.02562454  0.82762058  0.69491401  1
  O  O48  1  0.80522785  0.83733954  0.19419947  1
  O  O49  1  0.03295889  0.20304288  0.19473429  1
  O  O50  1  0.17219787  0.97302432  0.19475828  1
  O  O51  1  0.87000150  0.36254234  0.64082533  1
  O  O52  1  0.49433141  0.12660392  0.64064904  1
  O  O53  1  0.63233730  0.49812310  0.64312765  1
  O  O54  1  0.87646248  0.50790601  0.13984887  1
  O  O55  1  0.63885939  0.12780146  0.14233502  1
  O  O56  1  0.49218945  0.36455725  0.14539410  1
  O  O57  1  0.47158842  0.30465671  0.02738668  1
  O  O58  1  0.84065124  0.53573018  0.02896123  1
  O  O59  1  0.69624132  0.16161421  0.03008830  1
  O  O60  1  0.46493689  0.16072446  0.52974607  1
  O  O61  1  0.69781950  0.53482614  0.52534109  1
  O  O62  1  0.83891662  0.30171217  0.52968026  1
  O  O63  1  0.53275151  0.70009838  0.97424244  1
  O  O64  1  0.16812022  0.46855718  0.97411082  1
  O  O65  1  0.30083032  0.83285601  0.97480177  1
  O  O66  1  0.52960478  0.83075919  0.47256795  1
  O  O67  1  0.30352805  0.46924818  0.47317601  1
  O  O68  1  0.16647575  0.69471173  0.47459075  1
  O  O69  1  0.13515507  0.63360393  0.35916484  1
  O  O70  1  0.50196208  0.86961296  0.35726831  1
  O  O71  1  0.37020133  0.49949686  0.35808276  1
  O  O72  1  0.13688956  0.50154779  0.85830523  1
  O  O73  1  0.36427459  0.86231082  0.85841644  1
  O  O74  1  0.49879088  0.63499609  0.85837222  1
  O  O75  1  0.01766305  0.83603723  0.41098088  1
  O  O76  1  0.81172440  0.96900969  0.41015913  1
  O  O77  1  0.15435841  0.17969192  0.40794221  1
  O  O78  1  0.02588160  0.18791894  0.90728647  1
  O  O79  1  0.16307652  0.97560885  0.90720830  1
  O  O80  1  0.81342345  0.83883127  0.90733191  1
  O  O81  1  0.97519177  0.17086535  0.59214852  1
  O  O82  1  0.19742248  0.02931750  0.59216794  1
  O  O83  1  0.83839848  0.81402803  0.59268855  1
  O  O84  1  0.97221440  0.80321052  0.09089213  1
  O  O85  1  0.83027547  0.02668721  0.09076760  1
  O  O86  1  0.18351168  0.16040831  0.09087662  1
  O  O87  1  0.69313568  0.16851172  0.74227062  1
  O  O88  1  0.47399793  0.30436916  0.74436580  1
  O  O89  1  0.83387038  0.52511728  0.74366407  1
  O  O90  1  0.68228675  0.50863445  0.24450640  1
  O  O91  1  0.83037909  0.30208290  0.24090727  1
  O  O92  1  0.47402001  0.15797258  0.24323804  1
  O  O93  1  0.64352047  0.49741874  0.92437168  1
  O  O94  1  0.85393033  0.35802783  0.92504979  1
  O  O95  1  0.50548652  0.14423121  0.92394762  1
  O  O96  1  0.63820531  0.14733411  0.42442691  1
  O  O97  1  0.50658256  0.36513007  0.42458069  1
  O  O98  1  0.85350286  0.49526795  0.42445719  1
  O  O99  1  0.35580372  0.50481568  0.07718493  1
  O  O100  1  0.13913667  0.64494507  0.07714852  1
  O  O101  1  0.50399546  0.86438937  0.07781904  1
  O  O102  1  0.35537099  0.86230397  0.57698985  1
  O  O103  1  0.49629701  0.64583119  0.57717229  1
  O  O104  1  0.13622681  0.49516256  0.57751672  1
  O  O105  1  0.30680771  0.83438132  0.25450604  1
  O  O106  1  0.51857823  0.69102551  0.25503171  1
  O  O107  1  0.16512361  0.46842931  0.25481556  1
  O  O108  1  0.30650093  0.46979995  0.75561053  1
  O  O109  1  0.16481907  0.69513508  0.75511735  1
  O  O110  1  0.53070415  0.83705745  0.75515424  1
