# generated using pymatgen
data_Na2Mg(SbO3)2
_symmetry_space_group_name_H-M   'P 1'
_cell_length_a   6.22117213
_cell_length_b   7.58252707
_cell_length_c   5.52224132
_cell_angle_alpha   53.54516786
_cell_angle_beta   54.17559636
_cell_angle_gamma   52.06952605
_symmetry_Int_Tables_number   1
_chemical_formula_structural   Na2Mg(SbO3)2
_chemical_formula_sum   'Na2 Mg1 Sb2 O6'
_cell_volume   155.00354681
_cell_formula_units_Z   1
loop_
 _symmetry_equiv_pos_site_id
 _symmetry_equiv_pos_as_xyz
  1  'x, y, z'
loop_
 _atom_site_type_symbol
 _atom_site_label
 _atom_site_symmetry_multiplicity
 _atom_site_fract_x
 _atom_site_fract_y
 _atom_site_fract_z
 _atom_site_occupancy
  Na  Na0  1  0.37919156  0.77090503  0.78834863  1
  Na  Na1  1  0.45218962  0.50478448  0.43760854  1
  Mg  Mg2  1  0.70244327  0.17026948  0.06468486  1
  Sb  Sb3  1  0.82249777  0.85268093  0.76948289  1
  Sb  Sb4  1  0.17090892  0.17468398  0.11634028  1
  O  O5  1  0.95436024  0.10638084  0.61419842  1
  O  O6  1  0.31142680  0.40494612  0.98123947  1
  O  O7  1  0.54711090  0.91943295  0.22062584  1
  O  O8  1  0.05771032  0.91651685  0.24723357  1
  O  O9  1  0.44520259  0.11202073  0.68211595  1
  O  O10  1  0.81320800  0.40071161  0.00520456  1
