# generated using pymatgen
data_Na2NbInSi(PO6)2
_symmetry_space_group_name_H-M   'P 1'
_cell_length_a   8.98921612
_cell_length_b   8.98921581
_cell_length_c   22.87024239
_cell_angle_alpha   89.89033028
_cell_angle_beta   90.10966971
_cell_angle_gamma   119.77084693
_symmetry_Int_Tables_number   1
_chemical_formula_structural   Na2NbInSi(PO6)2
_chemical_formula_sum   'Na12 Nb6 In6 Si6 P12 O72'
_cell_volume   1604.13963303
_cell_formula_units_Z   6
loop_
 _symmetry_equiv_pos_site_id
 _symmetry_equiv_pos_as_xyz
  1  'x, y, z'
loop_
 _atom_site_type_symbol
 _atom_site_label
 _atom_site_symmetry_multiplicity
 _atom_site_fract_x
 _atom_site_fract_y
 _atom_site_fract_z
 _atom_site_occupancy
  Na  Na0  1  0.99025420  0.62933926  0.24702229  1
  Na  Na1  1  0.37066074  0.00974580  0.74702229  1
  Na  Na2  1  0.65668629  0.96516234  0.58335521  1
  Na  Na3  1  0.03483766  0.34331371  0.08335521  1
  Na  Na4  1  0.97828536  0.67701332  0.91690544  1
  Na  Na5  1  0.32298668  0.02171464  0.41690544  1
  Na  Na6  1  -0.00074815  0.99576085  0.49587814  1
  Na  Na7  1  0.00423915  0.00074815  0.99587814  1
  Na  Na8  1  0.66959695  0.32895176  0.82936542  1
  Na  Na9  1  0.67104824  0.33040305  0.32936542  1
  Na  Na10  1  0.34547470  0.67613302  0.16229007  1
  Na  Na11  1  0.32386698  0.65452530  0.66229007  1
  Nb  Nb12  1  0.00339387  0.00030667  0.64638330  1
  Nb  Nb13  1  0.99969333  0.99660613  0.14638330  1
  Nb  Nb14  1  0.66177203  0.33099695  0.97976918  1
  Nb  Nb15  1  0.66900305  0.33822797  0.47976918  1
  Nb  Nb16  1  0.32811315  0.65865519  0.31322619  1
  Nb  Nb17  1  0.34134481  0.67188685  0.81322619  1
  In  In18  1  0.99294326  0.00107229  0.35156243  1
  In  In19  1  -0.00107229  0.00705674  0.85156243  1
  In  In20  1  0.66957513  0.33394868  0.68459024  1
  In  In21  1  0.66605132  0.33042487  0.18459024  1
  In  In22  1  0.33512901  0.67327573  0.01812686  1
  In  In23  1  0.32672427  0.66487099  0.51812686  1
  Si  Si24  1  0.99645901  0.28902299  0.25071919  1
  Si  Si25  1  0.71097701  0.00354099  0.75071919  1
  Si  Si26  1  0.37344438  0.03933260  0.58432521  1
  Si  Si27  1  0.96066740  0.62655562  0.08432521  1
  Si  Si28  1  0.33213038  0.96251322  0.91715907  1
  Si  Si29  1  0.03748678  0.66786962  0.41715907  1
  P  P30  1  0.29310654  0.00144922  0.25199148  1
  P  P31  1  0.70695769  0.71029633  0.25029571  1
  P  P32  1  0.28970367  0.29304231  0.75029571  1
  P  P33  1  0.99855078  0.70689346  0.75199148  1
  P  P34  1  0.96086644  0.33413478  0.58383953  1
  P  P35  1  0.66791106  0.62543163  0.58379715  1
  P  P36  1  0.66586522  0.03913356  0.08383953  1
  P  P37  1  0.37456837  0.33208894  0.08379715  1
  P  P38  1  0.62417752  0.66528151  0.91777182  1
  P  P39  1  0.04326503  0.37504772  0.91838358  1
  P  P40  1  0.62495228  0.95673497  0.41838358  1
  P  P41  1  0.33471849  0.37582248  0.41777182  1
  O  O42  1  0.21625670  0.02338318  0.30738024  1
  O  O43  1  0.82038928  0.78174888  0.30308579  1
  O  O44  1  0.97226373  0.18141478  0.30699308  1
  O  O45  1  0.21825112  0.17961072  0.80308579  1
  O  O46  1  0.97661682  0.78374330  0.80738024  1
  O  O47  1  0.81858522  0.02773627  0.80699308  1
  O  O48  1  0.80175391  0.97338960  0.69122552  1
  O  O49  1  0.17058850  0.19888264  0.69545967  1
  O  O50  1  0.03147941  0.83108452  0.69809074  1
  O  O51  1  0.80111736  0.82941150  0.19545967  1
  O  O52  1  0.02661040  0.19824609  0.19122552  1
  O  O53  1  0.16891548  0.96852059  0.19809074  1
  O  O54  1  0.88214372  0.36256876  0.63864998  1
  O  O55  1  0.48631128  0.12021364  0.64198139  1
  O  O56  1  0.64178489  0.52027190  0.63866603  1
  O  O57  1  0.87978636  0.51368872  0.14198139  1
  O  O58  1  0.63743124  0.11785628  0.13864998  1
  O  O59  1  0.47972810  0.35821511  0.13866603  1
  O  O60  1  0.46596647  0.30404854  0.02930695  1
  O  O61  1  0.83434777  0.52976696  0.02559365  1
  O  O62  1  0.69542804  0.16132316  0.03002573  1
  O  O63  1  0.47023304  0.16565223  0.52559365  1
  O  O64  1  0.69595146  0.53403353  0.52930695  1
  O  O65  1  0.83867684  0.30457196  0.53002573  1
  O  O66  1  0.54441196  0.69029445  0.97187119  1
  O  O67  1  0.14228576  0.45010662  0.97464932  1
  O  O68  1  0.29123293  0.83893248  0.97164134  1
  O  O69  1  0.54989338  0.85771424  0.47464932  1
  O  O70  1  0.30970555  0.45558804  0.47187119  1
  O  O71  1  0.16106752  0.70876707  0.47164134  1
  O  O72  1  0.13518011  0.63677077  0.35743995  1
  O  O73  1  0.50271813  0.86589417  0.36492493  1
  O  O74  1  0.36135508  0.49329831  0.36265833  1
  O  O75  1  0.13410583  0.49728187  0.86492493  1
  O  O76  1  0.36322923  0.86481989  0.85743995  1
  O  O77  1  0.50670169  0.63864492  0.86265833  1
  O  O78  1  0.02257661  0.83669380  0.40895250  1
  O  O79  1  0.80356735  0.98542553  0.41232419  1
  O  O80  1  0.18707356  0.19407992  0.41072953  1
  O  O81  1  0.01457447  0.19643265  0.91232419  1
  O  O82  1  0.16330620  0.97742339  0.90895250  1
  O  O83  1  0.80592008  0.81292644  0.91072953  1
  O  O84  1  0.96183913  0.15838988  0.58885314  1
  O  O85  1  0.18242635  0.02630939  0.59128997  1
  O  O86  1  0.83645865  0.80809242  0.58941164  1
  O  O87  1  0.97369061  0.81757365  0.09128997  1
  O  O88  1  0.84161012  0.03816087  0.08885314  1
  O  O89  1  0.19190758  0.16354135  0.08941164  1
  O  O90  1  0.66667586  0.15666837  0.74574039  1
  O  O91  1  0.46936475  0.31625382  0.74209133  1
  O  O92  1  0.84458010  0.52986994  0.74303521  1
  O  O93  1  0.68374618  0.53063525  0.24209133  1
  O  O94  1  0.84333163  0.33332414  0.24574039  1
  O  O95  1  0.47013006  0.15541990  0.24303521  1
  O  O96  1  0.63736068  0.49534527  0.92258938  1
  O  O97  1  0.86306457  0.37064512  0.92311827  1
  O  O98  1  0.50988200  0.14947808  0.92444153  1
  O  O99  1  0.62935488  0.13693543  0.42311827  1
  O  O100  1  0.50465473  0.36263932  0.42258938  1
  O  O101  1  0.85052192  0.49011800  0.42444153  1
  O  O102  1  0.34353551  0.48234139  0.07573566  1
  O  O103  1  0.14468020  0.63949059  0.07855117  1
  O  O104  1  0.51923084  0.86083787  0.07706741  1
  O  O105  1  0.36050941  0.85531980  0.57855117  1
  O  O106  1  0.51765861  0.65646449  0.57573566  1
  O  O107  1  0.13916213  0.48076916  0.57706741  1
  O  O108  1  0.30131443  0.82891626  0.25565252  1
  O  O109  1  0.52953013  0.70196565  0.25644845  1
  O  O110  1  0.18004178  0.48527127  0.25756638  1
  O  O111  1  0.29803435  0.47046987  0.75644845  1
  O  O112  1  0.17108374  0.69868557  0.75565252  1
  O  O113  1  0.51472873  0.81995822  0.75756638  1
