# generated using pymatgen
data_MgTe3WO12
_symmetry_space_group_name_H-M   'P 1'
_cell_length_a   5.31854071
_cell_length_b   4.92295405
_cell_length_c   8.91426800
_cell_angle_alpha   90.00000000
_cell_angle_beta   90.00000000
_cell_angle_gamma   87.65791711
_symmetry_Int_Tables_number   1
_chemical_formula_structural   MgTe3WO12
_chemical_formula_sum   'Mg1 Te3 W1 O12'
_cell_volume   233.20669631
_cell_formula_units_Z   1
loop_
 _symmetry_equiv_pos_site_id
 _symmetry_equiv_pos_as_xyz
  1  'x, y, z'
loop_
 _atom_site_type_symbol
 _atom_site_label
 _atom_site_symmetry_multiplicity
 _atom_site_fract_x
 _atom_site_fract_y
 _atom_site_fract_z
 _atom_site_occupancy
  Mg  Mg0  1  0.50000000  0.00000000  0.28992500  1
  Te  Te1  1  0.00000000  0.50000000  0.40555100  1
  Te  Te2  1  0.50000000  0.00000000  0.89950700  1
  Te  Te3  1  0.50000000  0.50000000  0.59440200  1
  W  W4  1  0.00000000  0.00000000  0.08335600  1
  O  O5  1  0.14664500  0.24205700  0.26671000  1
  O  O6  1  0.19244400  0.29622600  0.56607700  1
  O  O7  1  0.14837100  0.21897700  0.94062600  1
  O  O8  1  0.31611900  0.71810500  0.43037100  1
  O  O9  1  0.31362700  0.80958900  0.11530400  1
  O  O10  1  0.36627000  0.74851500  0.74141000  1
  O  O11  1  0.63373000  0.25148500  0.74141000  1
  O  O12  1  0.68637300  0.19041100  0.11530400  1
  O  O13  1  0.68388100  0.28189500  0.43037100  1
  O  O14  1  0.85162900  0.78102300  0.94062600  1
  O  O15  1  0.80755600  0.70377400  0.56607700  1
  O  O16  1  0.85335500  0.75794300  0.26671000  1
