# generated using pymatgen
data_Na10Ti4Si9Ge4(SO16)3
_symmetry_space_group_name_H-M   'P 1'
_cell_length_a   17.50342244
_cell_length_b   8.76754204
_cell_length_c   22.01637063
_cell_angle_alpha   89.94615268
_cell_angle_beta   90.21345519
_cell_angle_gamma   119.83290858
_symmetry_Int_Tables_number   1
_chemical_formula_structural   Na10Ti4Si9Ge4(SO16)3
_chemical_formula_sum   'Na30 Ti12 Si27 Ge12 S9 O144'
_cell_volume   2930.91152212
_cell_formula_units_Z   3
loop_
 _symmetry_equiv_pos_site_id
 _symmetry_equiv_pos_as_xyz
  1  'x, y, z'
loop_
 _atom_site_type_symbol
 _atom_site_label
 _atom_site_symmetry_multiplicity
 _atom_site_fract_x
 _atom_site_fract_y
 _atom_site_fract_z
 _atom_site_occupancy
  Na  Na0  1  0.31857209  0.99948024  0.24985012  1
  Na  Na1  1  0.81781720  0.99817733  0.24984439  1
  Na  Na2  1  0.18391709  0.99498744  0.74833261  1
  Na  Na3  1  0.68449260  0.00026076  0.74819321  1
  Na  Na4  1  0.01681879  0.69868415  0.58182036  1
  Na  Na5  1  0.51719702  0.70187069  0.58129238  1
  Na  Na6  1  0.01611715  0.33351457  0.08134555  1
  Na  Na7  1  0.51700382  0.33079774  0.08125220  1
  Na  Na8  1  0.48272521  0.66431428  0.91586817  1
  Na  Na9  1  0.35037638  0.03471609  0.91599732  1
  Na  Na10  1  0.85141055  0.03681361  0.91455712  1
  Na  Na11  1  0.16549468  0.30370733  0.91772625  1
  Na  Na12  1  0.48386721  0.30224633  0.41603704  1
  Na  Na13  1  0.98314253  0.30272683  0.41573776  1
  Na  Na14  1  0.16652219  0.03163539  0.41693665  1
  Na  Na15  1  0.66629086  0.02980450  0.41705607  1
  Na  Na16  1  0.34992006  0.66677898  0.41665569  1
  Na  Na17  1  0.85020369  0.66667297  0.41569910  1
  Na  Na18  1  0.00030922  0.00411826  0.50197788  1
  Na  Na19  1  0.50139286  0.00458090  0.50149928  1
  Na  Na20  1  0.00150398  0.99202456  0.00159649  1
  Na  Na21  1  0.50502830  0.00531023  0.99989534  1
  Na  Na22  1  0.33966577  0.34067540  0.83175798  1
  Na  Na23  1  0.83981542  0.34513708  0.83298499  1
  Na  Na24  1  0.33697561  0.34404012  0.33148681  1
  Na  Na25  1  0.83655675  0.34454120  0.33092962  1
  Na  Na26  1  0.16860878  0.66309682  0.16587635  1
  Na  Na27  1  0.67041644  0.66324414  0.16702696  1
  Na  Na28  1  0.17172733  0.66725051  0.66710670  1
  Na  Na29  1  0.67243359  0.66646371  0.66617301  1
  Ti  Ti30  1  0.49244154  0.99322607  0.35366695  1
  Ti  Ti31  1  0.49289146  0.97909023  0.64674958  1
  Ti  Ti32  1  0.49654640  0.01330786  0.14518596  1
  Ti  Ti33  1  0.33323470  0.33356957  0.68721155  1
  Ti  Ti34  1  0.83398616  0.33504047  0.68858924  1
  Ti  Ti35  1  0.32984613  0.33517607  0.18606255  1
  Ti  Ti36  1  0.32576800  0.31624213  0.97717357  1
  Ti  Ti37  1  0.32662204  0.33349411  0.47978787  1
  Ti  Ti38  1  0.82825712  0.33659993  0.48012910  1
  Ti  Ti39  1  0.67549049  0.67984338  0.51888195  1
  Ti  Ti40  1  0.16431103  0.64995260  0.31299732  1
  Ti  Ti41  1  0.66662625  0.65250848  0.31311305  1
  Si  Si42  1  0.35450132  0.70568577  0.24850647  1
  Si  Si43  1  0.85909314  0.70912239  0.24776889  1
  Si  Si44  1  0.99925845  0.29098571  0.24904815  1
  Si  Si45  1  0.50128099  0.29802481  0.25019056  1
  Si  Si46  1  0.99939520  0.70815628  0.75304879  1
  Si  Si47  1  0.49739764  0.70731977  0.75269878  1
  Si  Si48  1  0.35464926  0.99440829  0.75269338  1
  Si  Si49  1  0.85748316  0.99398146  0.75133115  1
  Si  Si50  1  0.18546803  0.04024249  0.58498685  1
  Si  Si51  1  0.68780108  0.04484530  0.58500320  1
  Si  Si52  1  0.32612293  0.61879379  0.58273788  1
  Si  Si53  1  0.83065099  0.62286325  0.58477972  1
  Si  Si54  1  0.32582596  0.03271763  0.08267138  1
  Si  Si55  1  0.82813124  0.03799805  0.08455221  1
  Si  Si56  1  0.18496870  0.33053415  0.08319155  1
  Si  Si57  1  0.69380075  0.33707972  0.08184985  1
  Si  Si58  1  0.30932156  0.66679666  0.91404657  1
  Si  Si59  1  0.02222736  0.38677751  0.91687769  1
  Si  Si60  1  0.52910813  0.38230839  0.91563703  1
  Si  Si61  1  0.15882268  0.94132570  0.91695444  1
  Si  Si62  1  0.66576448  0.95608260  0.91770973  1
  Si  Si63  1  0.30890195  0.95471775  0.41549969  1
  Si  Si64  1  0.81254412  0.95921018  0.41376484  1
  Si  Si65  1  0.16292248  0.37677138  0.41810807  1
  Si  Si66  1  0.66472401  0.37627682  0.41815617  1
  Si  Si67  1  0.02432641  0.66937135  0.41686935  1
  Si  Si68  1  0.52304721  0.66544673  0.41699882  1
  Ge  Ge69  1  0.99275112  0.99412305  0.35338753  1
  Ge  Ge70  1  0.99882951  0.99776703  0.85235619  1
  Ge  Ge71  1  0.49514586  0.99482951  0.85655185  1
  Ge  Ge72  1  0.99354029  0.97190621  0.64797604  1
  Ge  Ge73  1  0.99397992  0.01365683  0.14634465  1
  Ge  Ge74  1  0.83290584  0.33961165  0.18573366  1
  Ge  Ge75  1  0.82845718  0.30878265  0.98099148  1
  Ge  Ge76  1  0.17454610  0.67032757  0.01670243  1
  Ge  Ge77  1  0.66904517  0.66667192  0.01980174  1
  Ge  Ge78  1  0.17421528  0.67953816  0.51760106  1
  Ge  Ge79  1  0.16574608  0.67587305  0.81630674  1
  Ge  Ge80  1  0.66327033  0.68235643  0.81264086  1
  S  S81  1  0.14084406  0.99950997  0.24915335  1
  S  S82  1  0.64458516  0.00163672  0.24934899  1
  S  S83  1  0.14224234  0.29026046  0.74923330  1
  S  S84  1  0.64278324  0.29216850  0.75119735  1
  S  S85  1  0.47809399  0.33083381  0.58346086  1
  S  S86  1  0.97890005  0.32805223  0.58395229  1
  S  S87  1  0.47855675  0.62415617  0.08232544  1
  S  S88  1  0.97674404  0.62484666  0.08320163  1
  S  S89  1  0.81044216  0.66222097  0.91625802  1
  O  O90  1  0.10432543  0.03063246  0.30623528  1
  O  O91  1  0.60582470  0.02850262  0.30540443  1
  O  O92  1  0.41410234  0.79592521  0.31019758  1
  O  O93  1  0.91738515  0.79459169  0.31093217  1
  O  O94  1  0.48387134  0.16784036  0.30880756  1
  O  O95  1  0.97924918  0.16302487  0.30951238  1
  O  O96  1  0.10626659  0.18014296  0.80611686  1
  O  O97  1  0.60513632  0.17739932  0.80577635  1
  O  O98  1  0.48535397  0.80340227  0.81226255  1
  O  O99  1  0.98378239  0.80757546  0.81026448  1
  O  O100  1  0.41748106  0.03560642  0.81276334  1
  O  O101  1  0.91702106  0.03239130  0.81350773  1
  O  O102  1  0.40453378  0.97056640  0.69340014  1
  O  O103  1  0.90493520  0.96762757  0.69125660  1
  O  O104  1  0.08716715  0.20566873  0.69511157  1
  O  O105  1  0.58990294  0.21298192  0.69600895  1
  O  O106  1  0.02418945  0.83422742  0.69145184  1
  O  O107  1  0.51997784  0.83391986  0.69207555  1
  O  O108  1  0.40612898  0.84059845  0.19231810  1
  O  O109  1  0.90583196  0.84439999  0.19037452  1
  O  O110  1  0.01911445  0.20831818  0.18874961  1
  O  O111  1  0.51604807  0.20419318  0.18987989  1
  O  O112  1  0.08659050  0.97251073  0.19482740  1
  O  O113  1  0.59000825  0.97683991  0.19490496  1
  O  O114  1  0.43584758  0.36146506  0.63718081  1
  O  O115  1  0.93730020  0.36143829  0.63753074  1
  O  O116  1  0.24792997  0.13145142  0.64419612  1
  O  O117  1  0.74942175  0.13591038  0.64469232  1
  O  O118  1  0.31841900  0.49584793  0.64082744  1
  O  O119  1  0.82157444  0.49701631  0.64190687  1
  O  O120  1  0.43788293  0.50994135  0.13658040  1
  O  O121  1  0.93844934  0.50809460  0.13831105  1
  O  O122  1  0.31778563  0.13297149  0.14301063  1
  O  O123  1  0.81611382  0.13380297  0.14474324  1
  O  O124  1  0.25045336  0.36535938  0.14109245  1
  O  O125  1  0.75465353  0.37270735  0.14235525  1
  O  O126  1  0.23233151  0.30227019  0.02329729  1
  O  O127  1  0.73969497  0.30661222  0.02161128  1
  O  O128  1  0.42613016  0.54754766  0.02714864  1
  O  O129  1  0.92142403  0.54518947  0.02807411  1
  O  O130  1  0.35067966  0.16659000  0.02399796  1
  O  O131  1  0.85614757  0.16751008  0.02426423  1
  O  O132  1  0.23188322  0.16200621  0.52444989  1
  O  O133  1  0.73563741  0.16547865  0.52435867  1
  O  O134  1  0.35102952  0.53699269  0.52351008  1
  O  O135  1  0.85331023  0.54033357  0.52449932  1
  O  O136  1  0.42472380  0.30290346  0.52752764  1
  O  O137  1  0.92607998  0.30146344  0.52773645  1
  O  O138  1  0.27081287  0.71356934  0.97424240  1
  O  O139  1  0.77305346  0.70282652  0.97122108  1
  O  O140  1  0.08523380  0.46335752  0.97782631  1
  O  O141  1  0.58572280  0.46942789  0.97836575  1
  O  O142  1  0.14533164  0.82266923  0.97641569  1
  O  O143  1  0.64677150  0.82202846  0.97485417  1
  O  O144  1  0.27003071  0.82634769  0.47439008  1
  O  O145  1  0.76991030  0.82998990  0.47277171  1
  O  O146  1  0.14209801  0.46542111  0.47594639  1
  O  O147  1  0.64508398  0.46647722  0.47539638  1
  O  O148  1  0.08577443  0.70900824  0.47833799  1
  O  O149  1  0.58341688  0.70422326  0.47798055  1
  O  O150  1  0.06937973  0.62994913  0.35911338  1
  O  O151  1  0.56936636  0.62858847  0.35904971  1
  O  O152  1  0.24839866  0.87434850  0.35523880  1
  O  O153  1  0.74989405  0.87614993  0.35488096  1
  O  O154  1  0.18786801  0.50477036  0.35886456  1
  O  O155  1  0.68847285  0.50484354  0.35893113  1
  O  O156  1  0.06757279  0.50431121  0.85674998  1
  O  O157  1  0.57386136  0.51556058  0.85741813  1
  O  O158  1  0.18793048  0.87675301  0.85616824  1
  O  O159  1  0.69104460  0.87931963  0.85689913  1
  O  O160  1  0.24297531  0.62104074  0.85612518  1
  O  O161  1  0.75613541  0.63347696  0.86126965  1
  O  O162  1  0.01516410  0.84706547  0.40923186  1
  O  O163  1  0.51354927  0.84104001  0.41008319  1
  O  O164  1  0.40736919  0.97570140  0.41146867  1
  O  O165  1  0.91006269  0.97501798  0.41087181  1
  O  O166  1  0.07840963  0.17957413  0.40772654  1
  O  O167  1  0.58110608  0.18111393  0.40956699  1
  O  O168  1  0.01019464  0.18318876  0.90966063  1
  O  O169  1  0.51359905  0.18248377  0.90920407  1
  O  O170  1  0.07711319  0.98321013  0.90830271  1
  O  O171  1  0.57727475  0.97089789  0.90872707  1
  O  O172  1  0.40792580  0.84204875  0.91081328  1
  O  O173  1  0.89895732  0.82755884  0.91242468  1
  O  O174  1  0.48791653  0.17399641  0.59020878  1
  O  O175  1  0.98863260  0.17170754  0.59063677  1
  O  O176  1  0.08706705  0.02380907  0.59238028  1
  O  O177  1  0.59010030  0.02593173  0.59008425  1
  O  O178  1  0.41748723  0.81150982  0.58936265  1
  O  O179  1  0.92186810  0.81657969  0.58932409  1
  O  O180  1  0.48963315  0.80271581  0.08998715  1
  O  O181  1  0.98653312  0.80083129  0.09030123  1
  O  O182  1  0.41819696  0.02310347  0.08836123  1
  O  O183  1  0.91957273  0.02484869  0.08900951  1
  O  O184  1  0.08729865  0.15013422  0.09139433  1
  O  O185  1  0.59444661  0.16340445  0.08928236  1
  O  O186  1  0.34071400  0.16605607  0.74408270  1
  O  O187  1  0.84135599  0.16264703  0.74438804  1
  O  O188  1  0.23028137  0.30288507  0.74513931  1
  O  O189  1  0.73187485  0.30634943  0.74626734  1
  O  O190  1  0.41228063  0.51435402  0.74343383  1
  O  O191  1  0.91310037  0.51583306  0.74362477  1
  O  O192  1  0.34507459  0.51278667  0.24277446  1
  O  O193  1  0.84741489  0.51224524  0.24166427  1
  O  O194  1  0.40967564  0.30186417  0.24326495  1
  O  O195  1  0.90726336  0.29936360  0.24127986  1
  O  O196  1  0.23116248  0.15779211  0.24523467  1
  O  O197  1  0.73472791  0.16107415  0.24566997  1
  O  O198  1  0.32232607  0.49572116  0.92237423  1
  O  O199  1  0.82191856  0.50798963  0.92312845  1
  O  O200  1  0.43029754  0.36216211  0.92265586  1
  O  O201  1  0.92172074  0.35951549  0.92578773  1
  O  O202  1  0.24810126  0.14101258  0.92290539  1
  O  O203  1  0.75595821  0.14940985  0.92307313  1
  O  O204  1  0.32328255  0.15164882  0.42416110  1
  O  O205  1  0.82533570  0.15392611  0.42388310  1
  O  O206  1  0.25084216  0.35637548  0.42319808  1
  O  O207  1  0.75368503  0.35905794  0.42259514  1
  O  O208  1  0.42533195  0.49175291  0.42324160  1
  O  O209  1  0.92740041  0.49632142  0.42406112  1
  O  O210  1  0.17140709  0.50268875  0.07637519  1
  O  O211  1  0.67630304  0.50732118  0.07519613  1
  O  O212  1  0.06391515  0.63623382  0.07857582  1
  O  O213  1  0.56666686  0.63647033  0.07916843  1
  O  O214  1  0.23857592  0.84057380  0.07627174  1
  O  O215  1  0.74199289  0.84413624  0.07412753  1
  O  O216  1  0.17172944  0.84059235  0.57688380  1
  O  O217  1  0.67349044  0.84615324  0.57869716  1
  O  O218  1  0.23833203  0.63513195  0.57613476  1
  O  O219  1  0.74328796  0.63841658  0.57878668  1
  O  O220  1  0.06575765  0.49222344  0.57942591  1
  O  O221  1  0.56446391  0.49202548  0.57947528  1
  O  O222  1  0.15310460  0.84398134  0.25373179  1
  O  O223  1  0.65573000  0.84531141  0.25342524  1
  O  O224  1  0.26074973  0.70199504  0.25448105  1
  O  O225  1  0.76423993  0.70269617  0.25475406  1
  O  O226  1  0.08537986  0.48499874  0.25556925  1
  O  O227  1  0.58826613  0.48960813  0.25441762  1
  O  O228  1  0.15170428  0.46627429  0.75450894  1
  O  O229  1  0.65438358  0.47052998  0.75767563  1
  O  O230  1  0.08995352  0.69419741  0.75817229  1
  O  O231  1  0.58953057  0.69637254  0.75595137  1
  O  O232  1  0.25568773  0.81899910  0.75749879  1
  O  O233  1  0.75721485  0.81640691  0.75862547  1
