# generated using pymatgen
data_Na3Hf2SiSn2P5O24
_symmetry_space_group_name_H-M   'P 1'
_cell_length_a   8.88445807
_cell_length_b   8.85572210
_cell_length_c   22.93046164
_cell_angle_alpha   90.10624005
_cell_angle_beta   89.89322750
_cell_angle_gamma   119.92575754
_symmetry_Int_Tables_number   1
_chemical_formula_structural   Na3Hf2SiSn2P5O24
_chemical_formula_sum   'Na9 Hf6 Si3 Sn6 P15 O72'
_cell_volume   1563.58597778
_cell_formula_units_Z   3
loop_
 _symmetry_equiv_pos_site_id
 _symmetry_equiv_pos_as_xyz
  1  'x, y, z'
loop_
 _atom_site_type_symbol
 _atom_site_label
 _atom_site_symmetry_multiplicity
 _atom_site_fract_x
 _atom_site_fract_y
 _atom_site_fract_z
 _atom_site_occupancy
  Na  Na0  1  0.36633862  0.00015135  0.74959369  1
  Na  Na1  1  0.66446285  0.97022380  0.58519903  1
  Na  Na2  1  0.67003958  0.69555621  0.08286644  1
  Na  Na3  1  0.01328780  0.00055722  0.49926439  1
  Na  Na4  1  0.01017728  0.00556682  0.00021086  1
  Na  Na5  1  0.67588940  0.33870488  0.83384027  1
  Na  Na6  1  0.66661517  0.33323244  0.33318867  1
  Na  Na7  1  0.32024029  0.66565433  0.16712744  1
  Na  Na8  1  0.32866991  0.65585058  0.66645534  1
  Hf  Hf9  1  0.99405693  0.99994941  0.85415358  1
  Hf  Hf10  1  0.00208695  0.99904995  0.64752060  1
  Hf  Hf11  1  0.66920309  0.33246271  0.68551586  1
  Hf  Hf12  1  0.67187735  0.33522974  0.18713701  1
  Hf  Hf13  1  0.67013831  0.33593617  0.98052432  1
  Hf  Hf14  1  0.66178460  0.33192706  0.47873764  1
  Si  Si15  1  0.70506799  0.99754101  0.74962770  1
  Si  Si16  1  0.37038839  0.03795683  0.58239253  1
  Si  Si17  1  0.96392569  0.62845124  0.08397254  1
  Sn  Sn18  1  0.00058367  0.99993121  0.35250790  1
  Sn  Sn19  1  0.00564009  0.00256684  0.14881648  1
  Sn  Sn20  1  0.32686957  0.66679939  0.01896035  1
  Sn  Sn21  1  0.32895494  0.66518529  0.51747312  1
  Sn  Sn22  1  0.33288183  0.66678989  0.31399918  1
  Sn  Sn23  1  0.33547833  0.66460925  0.81505788  1
  P  P24  1  0.29084442  0.99851493  0.25123939  1
  P  P25  1  0.70703302  0.71036583  0.25044642  1
  P  P26  1  0.00233646  0.29083097  0.25103724  1
  P  P27  1  0.28914053  0.29310590  0.75080999  1
  P  P28  1  0.99952240  0.70740583  0.75177568  1
  P  P29  1  0.96075788  0.33733276  0.58196090  1
  P  P30  1  0.66434640  0.62313027  0.58218244  1
  P  P31  1  0.66765575  0.04183004  0.08362427  1
  P  P32  1  0.37421959  0.33141959  0.08320146  1
  P  P33  1  0.62201606  0.66525172  0.91823208  1
  P  P34  1  0.04494558  0.37813314  0.91657161  1
  P  P35  1  0.33352165  0.95891969  0.91597800  1
  P  P36  1  0.62651540  0.95628702  0.41595558  1
  P  P37  1  0.33058859  0.37576198  0.41541534  1
  P  P38  1  0.04302880  0.66863725  0.41523278  1
  O  O39  1  0.21027288  0.03117617  0.30615380  1
  O  O40  1  0.82224242  0.79276277  0.30452510  1
  O  O41  1  0.96998339  0.17822544  0.30588494  1
  O  O42  1  0.20804308  0.17500898  0.80460457  1
  O  O43  1  0.97712425  0.79590160  0.80605095  1
  O  O44  1  0.82663796  0.02508536  0.80598941  1
  O  O45  1  0.78952445  0.96970781  0.69009475  1
  O  O46  1  0.17794870  0.20573869  0.69619622  1
  O  O47  1  0.03583407  0.82602719  0.69754239  1
  O  O48  1  0.78406505  0.81938032  0.19372663  1
  O  O49  1  0.03495185  0.21147324  0.19540141  1
  O  O50  1  0.17790297  0.96412011  0.19593303  1
  O  O51  1  0.87639064  0.36549265  0.63699390  1
  O  O52  1  0.49232274  0.12306860  0.64100772  1
  O  O53  1  0.63930918  0.51321383  0.63716102  1
  O  O54  1  0.86756809  0.50741706  0.14070692  1
  O  O55  1  0.63658289  0.12445143  0.13799796  1
  O  O56  1  0.48973827  0.36230878  0.13735265  1
  O  O57  1  0.45807341  0.30282112  0.02848678  1
  O  O58  1  0.83581927  0.53922406  0.02766940  1
  O  O59  1  0.69211045  0.15216389  0.02891836  1
  O  O60  1  0.47005584  0.16042092  0.52642756  1
  O  O61  1  0.69390327  0.53962194  0.52782248  1
  O  O62  1  0.84437735  0.30647198  0.52830609  1
  O  O63  1  0.54453885  0.69678484  0.97478740  1
  O  O64  1  0.15800968  0.45692987  0.97143540  1
  O  O65  1  0.30220053  0.84381334  0.97030654  1
  O  O66  1  0.54976809  0.84765056  0.47271710  1
  O  O67  1  0.29818105  0.45497602  0.47112825  1
  O  O68  1  0.15554150  0.70268832  0.47063149  1
  O  O69  1  0.12372946  0.63607587  0.36040668  1
  O  O70  1  0.51107975  0.87353181  0.36201832  1
  O  O71  1  0.36288828  0.48844463  0.36064908  1
  O  O72  1  0.12325792  0.49041221  0.86121996  1
  O  O73  1  0.36373404  0.88051471  0.85915704  1
  O  O74  1  0.50846717  0.63320393  0.86364105  1
  O  O75  1  0.02583397  0.83468329  0.41017272  1
  O  O76  1  0.80878417  0.97317745  0.41033896  1
  O  O77  1  0.16626264  0.19220954  0.41042092  1
  O  O78  1  0.02754905  0.19669116  0.91060625  1
  O  O79  1  0.17069838  0.97698900  0.91037679  1
  O  O80  1  0.80381164  0.82796772  0.91177948  1
  O  O81  1  0.96996639  0.16813658  0.58906686  1
  O  O82  1  0.17942492  0.01723836  0.58816172  1
  O  O83  1  0.82324296  0.80927312  0.58855565  1
  O  O84  1  0.96992984  0.81750176  0.08944690  1
  O  O85  1  0.83085917  0.02106079  0.08980765  1
  O  O86  1  0.19042959  0.17214669  0.08919478  1
  O  O87  1  0.67882765  0.16853918  0.74553739  1
  O  O88  1  0.47060190  0.31008152  0.74331783  1
  O  O89  1  0.83701076  0.52810687  0.74432112  1
  O  O90  1  0.68630050  0.52721376  0.24411349  1
  O  O91  1  0.83822619  0.30788038  0.24451643  1
  O  O92  1  0.47191063  0.16067287  0.24401690  1
  O  O93  1  0.63933301  0.50078928  0.92329164  1
  O  O94  1  0.86259617  0.35795254  0.92325010  1
  O  O95  1  0.49782512  0.13950790  0.92275940  1
  O  O96  1  0.64715442  0.13934862  0.42200752  1
  O  O97  1  0.49452113  0.35836805  0.42162820  1
  O  O98  1  0.86196757  0.50653141  0.42213525  1
  O  O99  1  0.36850723  0.50418155  0.07712734  1
  O  O100  1  0.15526115  0.64671185  0.07934577  1
  O  O101  1  0.50981026  0.85337253  0.07737359  1
  O  O102  1  0.36586632  0.84983971  0.57701403  1
  O  O103  1  0.50171936  0.64478864  0.57622215  1
  O  O104  1  0.14362744  0.49744385  0.57675162  1
  O  O105  1  0.30792235  0.83249732  0.25642580  1
  O  O106  1  0.52481668  0.69332891  0.25622312  1
  O  O107  1  0.16665060  0.47423040  0.25616277  1
  O  O108  1  0.30434822  0.47324286  0.75621992  1
  O  O109  1  0.16672247  0.69340558  0.75682796  1
  O  O110  1  0.50700419  0.82843438  0.75528966  1
