# generated using pymatgen
data_BPS4
_symmetry_space_group_name_H-M   'P 1'
_cell_length_a   5.25823918
_cell_length_b   5.81588702
_cell_length_c   6.06618454
_cell_angle_alpha   118.64423350
_cell_angle_beta   115.68388865
_cell_angle_gamma   90.00000457
_symmetry_Int_Tables_number   1
_chemical_formula_structural   BPS4
_chemical_formula_sum   'B1 P1 S4'
_cell_volume   141.56936939
_cell_formula_units_Z   1
loop_
 _symmetry_equiv_pos_site_id
 _symmetry_equiv_pos_as_xyz
  1  'x, y, z'
loop_
 _atom_site_type_symbol
 _atom_site_label
 _atom_site_symmetry_multiplicity
 _atom_site_fract_x
 _atom_site_fract_y
 _atom_site_fract_z
 _atom_site_occupancy
  B  B0  1  0.50000000  0.00000000  0.00000000  1
  P  P1  1  0.00000000  0.00000000  0.00000000  1
  S  S2  1  0.62369338  0.70311690  0.77741270  1
  S  S3  1  0.84628067  0.29688310  0.22258730  1
  S  S4  1  0.37630662  0.92570419  0.22258730  1
  S  S5  1  0.15371933  0.07429581  0.77741270  1
