# generated using pymatgen
data_Na4CaSiGe(PO6)2
_symmetry_space_group_name_H-M   'P 1'
_cell_length_a   9.21964019
_cell_length_b   9.18088123
_cell_length_c   21.86496720
_cell_angle_alpha   90.69908717
_cell_angle_beta   90.00000000
_cell_angle_gamma   120.13975140
_symmetry_Int_Tables_number   1
_chemical_formula_structural   Na4CaSiGe(PO6)2
_chemical_formula_sum   'Na24 Ca6 Si6 Ge6 P12 O72'
_cell_volume   1600.37318716
_cell_formula_units_Z   6
loop_
 _symmetry_equiv_pos_site_id
 _symmetry_equiv_pos_as_xyz
  1  'x, y, z'
loop_
 _atom_site_type_symbol
 _atom_site_label
 _atom_site_symmetry_multiplicity
 _atom_site_fract_x
 _atom_site_fract_y
 _atom_site_fract_z
 _atom_site_occupancy
  Na  Na0  1  0.64331181  0.01115656  0.24718793  1
  Na  Na1  1  0.36680653  0.35257485  0.25037585  1
  Na  Na2  1  0.99144303  0.63049275  0.24304179  1
  Na  Na3  1  0.63904971  0.63049275  0.74304179  1
  Na  Na4  1  0.98576831  0.35257485  0.75037585  1
  Na  Na5  1  0.36784475  0.01115656  0.74718793  1
  Na  Na6  1  0.31207078  0.34857830  0.58264031  1
  Na  Na7  1  0.03015150  0.68843115  0.57919952  1
  Na  Na8  1  0.65606926  0.96127175  0.57822585  1
  Na  Na9  1  0.30520349  0.96127175  0.07822585  1
  Na  Na10  1  0.65828065  0.68843115  0.07919952  1
  Na  Na11  1  0.03650853  0.34857830  0.08264031  1
  Na  Na12  1  0.98247172  0.68265458  0.91638186  1
  Na  Na13  1  0.70370672  0.03028578  0.91018094  1
  Na  Na14  1  0.32300614  0.30101417  0.91375081  1
  Na  Na15  1  0.97800703  0.30101417  0.41375081  1
  Na  Na16  1  0.32657806  0.03028578  0.41018094  1
  Na  Na17  1  0.70018186  0.68265458  0.41638186  1
  Na  Na18  1  0.99431772  0.00296003  0.49823921  1
  Na  Na19  1  0.00864231  0.00296003  0.99823921  1
  Na  Na20  1  0.66881060  0.32578633  0.83219099  1
  Na  Na21  1  0.65697673  0.32578633  0.33219099  1
  Na  Na22  1  0.32391804  0.66390311  0.16505347  1
  Na  Na23  1  0.33998407  0.66390311  0.66505347  1
  Ca  Ca24  1  -0.00047426  -0.00041471  0.34966443  1
  Ca  Ca25  1  0.00005955  -0.00041471  0.84966443  1
  Ca  Ca26  1  0.66548982  0.33011428  0.68310723  1
  Ca  Ca27  1  0.66462546  0.33011428  0.18310723  1
  Ca  Ca28  1  0.33422516  0.66993420  0.01645990  1
  Ca  Ca29  1  0.33570804  0.66993420  0.51645990  1
  Si  Si30  1  0.29372722  0.98537152  0.25344187  1
  Si  Si31  1  0.69164430  0.98537152  0.75344187  1
  Si  Si32  1  0.67927625  0.63628681  0.58647519  1
  Si  Si33  1  0.95701157  0.63628681  0.08647519  1
  Si  Si34  1  0.34977739  0.97797474  0.92089091  1
  Si  Si35  1  0.62819635  0.97797474  0.42089091  1
  Ge  Ge36  1  0.98391708  0.98880837  0.64941204  1
  Ge  Ge37  1  0.00489129  0.98880837  0.14941204  1
  Ge  Ge38  1  0.66596797  0.33250212  0.98331919  1
  Ge  Ge39  1  0.66653516  0.33250212  0.48331919  1
  Ge  Ge40  1  0.33688740  0.68297022  0.31622082  1
  Ge  Ge41  1  0.34608183  0.68297022  0.81622082  1
  P  P42  1  0.69080689  0.70984984  0.25066362  1
  P  P43  1  0.01844408  0.30275996  0.24991670  1
  P  P44  1  0.28431588  0.30275996  0.74991670  1
  P  P45  1  0.01904295  0.70984984  0.75066362  1
  P  P46  1  0.95545770  0.31551170  0.58450487  1
  P  P47  1  0.35579358  0.04399207  0.58389949  1
  P  P48  1  0.68819949  0.04399207  0.08389949  1
  P  P49  1  0.36005500  0.31551170  0.08450487  1
  P  P50  1  0.62300657  0.64890523  0.91700281  1
  P  P51  1  0.03194060  0.38240219  0.91626977  1
  P  P52  1  0.35046059  0.38240219  0.41626977  1
  P  P53  1  0.02589766  0.64890523  0.41700281  1
  O  O54  1  0.22321960  0.01551758  0.31503526  1
  O  O55  1  0.78405056  0.78173179  0.30999932  1
  O  O56  1  0.99118608  0.20835857  0.30866631  1
  O  O57  1  0.21717249  0.20835857  0.80866631  1
  O  O58  1  0.99768123  0.78173179  0.80999932  1
  O  O59  1  0.79229798  0.01551758  0.81503526  1
  O  O60  1  0.79557890  0.95556095  0.69271197  1
  O  O61  1  0.16233039  0.20367604  0.69254779  1
  O  O62  1  0.04137012  0.82848312  0.69372955  1
  O  O63  1  0.78711300  0.82848312  0.19372955  1
  O  O64  1  0.04134565  0.20367604  0.19254779  1
  O  O65  1  0.15998205  0.95556095  0.19271197  1
  O  O66  1  0.88665497  0.33951474  0.64363450  1
  O  O67  1  0.45312026  0.10958067  0.64275000  1
  O  O68  1  0.65630768  0.53972354  0.64791765  1
  O  O69  1  0.88341686  0.53972354  0.14791765  1
  O  O70  1  0.65646141  0.10958067  0.14275000  1
  O  O71  1  0.45286077  0.33951474  0.14363450  1
  O  O72  1  0.45577308  0.29218812  0.02725653  1
  O  O73  1  0.81971090  0.52897162  0.02528169  1
  O  O74  1  0.70943359  0.16367195  0.02757669  1
  O  O75  1  0.45423936  0.16367195  0.52757669  1
  O  O76  1  0.70926172  0.52897162  0.52528169  1
  O  O77  1  0.83641604  0.29218812  0.52725653  1
  O  O78  1  0.55100034  0.67133105  0.97570852  1
  O  O79  1  0.12452128  0.45116423  0.97593678  1
  O  O80  1  0.31687184  0.87641149  0.98186209  1
  O  O81  1  0.55953865  0.87641149  0.48186209  1
  O  O82  1  0.32664194  0.45116423  0.47593678  1
  O  O83  1  0.12032971  0.67133105  0.47570852  1
  O  O84  1  0.12237681  0.62631131  0.35958895  1
  O  O85  1  0.49278069  0.87385958  0.36019648  1
  O  O86  1  0.37182513  0.50168514  0.35932845  1
  O  O87  1  0.12985901  0.50168514  0.85932845  1
  O  O88  1  0.38107789  0.87385958  0.86019648  1
  O  O89  1  0.50393350  0.62631131  0.85958895  1
  O  O90  1  -0.00469647  0.79754729  0.41162115  1
  O  O91  1  0.81700800  0.01426055  0.41332949  1
  O  O92  1  0.20115609  0.20330279  0.41030794  1
  O  O93  1  0.00214671  0.20330279  0.91030794  1
  O  O94  1  0.19725256  0.01426055  0.91332949  1
  O  O95  1  0.80224376  0.79754729  0.91162115  1
  O  O96  1  0.95932772  0.14404804  0.58550018  1
  O  O97  1  0.18464961  0.04696421  0.58601225  1
  O  O98  1  0.86439599  0.82222448  0.58765457  1
  O  O99  1  0.95782849  0.82222448  0.08765457  1
  O  O100  1  0.86231461  0.04696421  0.08601225  1
  O  O101  1  0.18472032  0.14404804  0.08550018  1
  O  O102  1  0.65537034  0.13871720  0.74728697  1
  O  O103  1  0.46216850  0.33282093  0.74310099  1
  O  O104  1  0.87085476  0.53035185  0.74457151  1
  O  O105  1  0.65949810  0.53035185  0.24457151  1
  O  O106  1  0.87065343  0.33282093  0.24310099  1
  O  O107  1  0.48334786  0.13871720  0.24728697  1
  O  O108  1  0.62547392  0.47703509  0.91733898  1
  O  O109  1  0.85815774  0.37958236  0.91731968  1
  O  O110  1  0.53704460  0.16301426  0.92471164  1
  O  O111  1  0.62597066  0.16301426  0.42471164  1
  O  O112  1  0.52142562  0.37958236  0.41731968  1
  O  O113  1  0.85156217  0.47703509  0.41733898  1
  O  O114  1  0.33187667  0.46536486  0.07753960  1
  O  O115  1  0.14421904  0.66646877  0.08105170  1
  O  O116  1  0.54444711  0.86225130  0.07639057  1
  O  O117  1  0.31780319  0.86225130  0.57639057  1
  O  O118  1  0.52224874  0.66646877  0.58105170  1
  O  O119  1  0.13348720  0.46536486  0.57753960  1
  O  O120  1  0.29050076  0.79855308  0.25507479  1
  O  O121  1  0.51621853  0.70677208  0.25172948  1
  O  O122  1  0.19086500  0.47690145  0.25201261  1
  O  O123  1  0.28603545  0.47690145  0.75201261  1
  O  O124  1  0.19055256  0.70677208  0.75172948  1
  O  O125  1  0.50805133  0.79855308  0.75507479  1
