# generated using pymatgen
data_Na10Sc7TaSi6(SO8)6
_symmetry_space_group_name_H-M   'P 1'
_cell_length_a   18.11920316
_cell_length_b   9.05940441
_cell_length_c   22.91030260
_cell_angle_alpha   90.11734265
_cell_angle_beta   89.78565276
_cell_angle_gamma   119.91452869
_symmetry_Int_Tables_number   1
_chemical_formula_structural   Na10Sc7TaSi6(SO8)6
_chemical_formula_sum   'Na30 Sc21 Ta3 Si18 S18 O144'
_cell_volume   3259.64683156
_cell_formula_units_Z   3
loop_
 _symmetry_equiv_pos_site_id
 _symmetry_equiv_pos_as_xyz
  1  'x, y, z'
loop_
 _atom_site_type_symbol
 _atom_site_label
 _atom_site_symmetry_multiplicity
 _atom_site_fract_x
 _atom_site_fract_y
 _atom_site_fract_z
 _atom_site_occupancy
  Na  Na0  1  0.31852653  0.00470132  0.25013554  1
  Na  Na1  1  0.82119856  0.00149001  0.25159947  1
  Na  Na2  1  0.18426568  0.36332849  0.25063565  1
  Na  Na3  1  0.68569242  0.37600745  0.24441102  1
  Na  Na4  1  0.99682573  0.62929606  0.24794799  1
  Na  Na5  1  0.49602491  0.62197281  0.25152105  1
  Na  Na6  1  0.31407761  0.62579394  0.74916844  1
  Na  Na7  1  0.81023629  0.62521266  0.74981504  1
  Na  Na8  1  0.99761341  0.35517928  0.74889102  1
  Na  Na9  1  0.68571184  0.00875804  0.75314440  1
  Na  Na10  1  0.15936537  0.34240925  0.58245495  1
  Na  Na11  1  0.01312094  0.69231855  0.58202866  1
  Na  Na12  1  0.33163424  0.96487782  0.58457487  1
  Na  Na13  1  0.83102272  0.96536417  0.58076573  1
  Na  Na14  1  0.83094166  0.68402101  0.07807920  1
  Na  Na15  1  0.16929088  0.30593380  0.91237869  1
  Na  Na16  1  0.67111809  0.30982980  0.91679876  1
  Na  Na17  1  0.35554793  0.66593491  0.41722642  1
  Na  Na18  1  0.99933011  0.99667244  0.49549791  1
  Na  Na19  1  0.50611507  0.99170659  0.49899444  1
  Na  Na20  1  0.99337578  0.98221230  0.99697980  1
  Na  Na21  1  0.49529238  0.98153366  0.99885784  1
  Na  Na22  1  0.33286181  0.32984947  0.83402647  1
  Na  Na23  1  0.83099150  0.33173518  0.83602063  1
  Na  Na24  1  0.33867803  0.33377359  0.33300918  1
  Na  Na25  1  0.83828984  0.34076676  0.33330029  1
  Na  Na26  1  0.16138337  0.66426418  0.16440361  1
  Na  Na27  1  0.65813185  0.64922062  0.16159416  1
  Na  Na28  1  0.16774596  0.66917778  0.66447688  1
  Na  Na29  1  0.66350395  0.64376529  0.66754921  1
  Sc  Sc30  1  0.99865655  0.99884320  0.34763693  1
  Sc  Sc31  1  0.49803692  0.99447552  0.35221411  1
  Sc  Sc32  1  0.99378670  0.99885054  0.85211471  1
  Sc  Sc33  1  0.49932704  0.99654168  0.85323605  1
  Sc  Sc34  1  0.50418236  0.00726120  0.64804645  1
  Sc  Sc35  1  0.32467202  0.32718986  0.68261103  1
  Sc  Sc36  1  0.82993490  0.33642104  0.68383268  1
  Sc  Sc37  1  0.34005385  0.34392184  0.18649527  1
  Sc  Sc38  1  0.84013683  0.35282405  0.18082061  1
  Sc  Sc39  1  0.34165774  0.36015079  0.98227610  1
  Sc  Sc40  1  0.83328828  0.35328090  0.98440158  1
  Sc  Sc41  1  0.33624959  0.34515267  0.48335495  1
  Sc  Sc42  1  0.83875093  0.34442127  0.48440005  1
  Sc  Sc43  1  0.16912161  0.67198038  0.01835909  1
  Sc  Sc44  1  0.66567045  0.66059436  0.02115406  1
  Sc  Sc45  1  0.16706663  0.66589162  0.52224763  1
  Sc  Sc46  1  0.66159869  0.66223468  0.51542718  1
  Sc  Sc47  1  0.16457675  0.66471416  0.30889888  1
  Sc  Sc48  1  0.66030971  0.65313825  0.31649216  1
  Sc  Sc49  1  0.17136991  0.66204150  0.81736550  1
  Sc  Sc50  1  0.67175342  0.65741518  0.81466421  1
  Ta  Ta51  1  0.99902659  0.00853737  0.64553755  1
  Ta  Ta52  1  0.00101687  0.99357988  0.15069084  1
  Ta  Ta53  1  0.49653068  0.00230496  0.14317398  1
  Si  Si54  1  0.14704993  0.00340521  0.25172084  1
  Si  Si55  1  0.35539388  0.71117940  0.25073255  1
  Si  Si56  1  0.85215868  0.70583377  0.25162114  1
  Si  Si57  1  0.99684266  0.28690314  0.25001908  1
  Si  Si58  1  0.50056863  0.28803198  0.25101573  1
  Si  Si59  1  0.14719257  0.29093279  0.75300617  1
  Si  Si60  1  0.64441697  0.29098962  0.75133165  1
  Si  Si61  1  0.85231802  0.00226860  0.74997002  1
  Si  Si62  1  0.97740667  0.33461993  0.58435376  1
  Si  Si63  1  0.18825201  0.04261201  0.58233624  1
  Si  Si64  1  0.33807943  0.63515547  0.58327809  1
  Si  Si65  1  0.82958368  0.62523135  0.58469497  1
  Si  Si66  1  0.48277796  0.62940533  0.08524964  1
  Si  Si67  1  0.98588874  0.63364130  0.08352228  1
  Si  Si68  1  0.68537899  0.33070420  0.08396152  1
  Si  Si69  1  0.31574162  0.67004275  0.91724331  1
  Si  Si70  1  0.81642171  0.67042131  0.91809704  1
  Si  Si71  1  0.51829674  0.66720730  0.41615579  1
  S  S72  1  0.64421023  0.00046856  0.24886136  1
  S  S73  1  0.00178648  0.71269137  0.74953034  1
  S  S74  1  0.49969370  0.70723434  0.74981258  1
  S  S75  1  0.35470733  0.00338391  0.75017511  1
  S  S76  1  0.47969653  0.33528983  0.58416205  1
  S  S77  1  0.68637983  0.04095819  0.58242676  1
  S  S78  1  0.33255654  0.04147841  0.08365756  1
  S  S79  1  0.83522573  0.04332283  0.08400747  1
  S  S80  1  0.18518706  0.33061950  0.08348192  1
  S  S81  1  0.01987426  0.37536550  0.91688126  1
  S  S82  1  0.51969927  0.37447740  0.91619259  1
  S  S83  1  0.16717456  0.95920285  0.91695734  1
  S  S84  1  0.66719701  0.95829320  0.91591957  1
  S  S85  1  0.31182663  0.96028093  0.41658195  1
  S  S86  1  0.81377719  0.96260914  0.41685028  1
  S  S87  1  0.16490210  0.37100181  0.41675425  1
  S  S88  1  0.66795591  0.37130953  0.41671213  1
  S  S89  1  0.01985740  0.66711168  0.41703739  1
  O  O90  1  0.10392574  0.04194665  0.30676863  1
  O  O91  1  0.60680325  0.03119969  0.30150762  1
  O  O92  1  0.41373926  0.78972824  0.30871374  1
  O  O93  1  0.91694458  0.79327945  0.30530054  1
  O  O94  1  0.48589106  0.16756657  0.30676651  1
  O  O95  1  0.98013037  0.16608890  0.30598689  1
  O  O96  1  0.10327376  0.18029090  0.81089833  1
  O  O97  1  0.60174016  0.17035962  0.80917265  1
  O  O98  1  0.48297689  0.78568500  0.80176636  1
  O  O99  1  0.98797993  0.79304162  0.80083820  1
  O  O100  1  0.40708302  0.02043523  0.80167862  1
  O  O101  1  0.91621461  0.03515536  0.80368393  1
  O  O102  1  0.39110369  0.96984005  0.69619996  1
  O  O103  1  0.90128166  0.97029786  0.69189145  1
  O  O104  1  0.08399994  0.19024745  0.69450624  1
  O  O105  1  0.58598520  0.19252822  0.69453383  1
  O  O106  1  0.01282486  0.81509143  0.69506042  1
  O  O107  1  0.51254588  0.81431816  0.69736825  1
  O  O108  1  0.40519140  0.84142563  0.19520784  1
  O  O109  1  0.90164640  0.83187857  0.19252477  1
  O  O110  1  0.01474473  0.19272463  0.19267215  1
  O  O111  1  0.51525796  0.19112996  0.19382332  1
  O  O112  1  0.08190817  0.96821593  0.19402338  1
  O  O113  1  0.58879103  0.97081529  0.19669323  1
  O  O114  1  0.44036163  0.36024465  0.63695564  1
  O  O115  1  0.93906376  0.36897532  0.64343662  1
  O  O116  1  0.24945030  0.12076643  0.63923319  1
  O  O117  1  0.73869581  0.11576291  0.63629422  1
  O  O118  1  0.31757398  0.51297802  0.64111429  1
  O  O119  1  0.81861660  0.51874511  0.64421574  1
  O  O120  1  0.43926752  0.51670727  0.14371095  1
  O  O121  1  0.94439544  0.52849661  0.14413405  1
  O  O122  1  0.32151615  0.11662010  0.13787814  1
  O  O123  1  0.82358100  0.11907783  0.13832689  1
  O  O124  1  0.23605661  0.35205640  0.13638012  1
  O  O125  1  0.74288629  0.35990991  0.14236947  1
  O  O126  1  0.22342630  0.30120291  0.03033266  1
  O  O127  1  0.72473494  0.29530322  0.02480422  1
  O  O128  1  0.42089526  0.54353034  0.02854025  1
  O  O129  1  0.91926729  0.54691209  0.02959552  1
  O  O130  1  0.34591344  0.14644194  0.03189389  1
  O  O131  1  0.84836595  0.14862143  0.03224910  1
  O  O132  1  0.22813810  0.16737404  0.52665993  1
  O  O133  1  0.72772056  0.14850240  0.53093907  1
  O  O134  1  0.34930295  0.54659403  0.52441507  1
  O  O135  1  0.85297702  0.54070827  0.52931066  1
  O  O136  1  0.42536246  0.30351517  0.53181708  1
  O  O137  1  0.91419906  0.28563721  0.52879075  1
  O  O138  1  0.26436251  0.68942936  0.97230264  1
  O  O139  1  0.76894845  0.69180330  0.97569761  1
  O  O140  1  0.07536136  0.46193812  0.96747924  1
  O  O141  1  0.57297173  0.45328686  0.96836322  1
  O  O142  1  0.15426407  0.85324079  0.96921616  1
  O  O143  1  0.65434838  0.85170218  0.96730379  1
  O  O144  1  0.27085267  0.85136028  0.46917124  1
  O  O145  1  0.77229316  0.85838285  0.47023880  1
  O  O146  1  0.15606026  0.45639197  0.46990979  1
  O  O147  1  0.65714876  0.45790875  0.46828155  1
  O  O148  1  0.07077486  0.68434301  0.47014522  1
  O  O149  1  0.57937741  0.68881462  0.47197012  1
  O  O150  1  0.06139855  0.64647453  0.36386423  1
  O  O151  1  0.56376632  0.64542702  0.35646008  1
  O  O152  1  0.26059140  0.87638646  0.36347202  1
  O  O153  1  0.76278398  0.87859001  0.36348256  1
  O  O154  1  0.17718395  0.47906931  0.36413023  1
  O  O155  1  0.68150713  0.47516184  0.36257281  1
  O  O156  1  0.05855216  0.47737762  0.86211201  1
  O  O157  1  0.55813033  0.47984864  0.86355188  1
  O  O158  1  0.17701915  0.87527433  0.86381103  1
  O  O159  1  0.67484725  0.87777702  0.86105397  1
  O  O160  1  0.25590112  0.63453290  0.85745917  1
  O  O161  1  0.75568582  0.63573526  0.85945803  1
  O  O162  1  0.01113812  0.82118718  0.41372487  1
  O  O163  1  0.50622579  0.83650221  0.41381882  1
  O  O164  1  0.39692233  0.97141994  0.41256981  1
  O  O165  1  0.89970463  0.97915998  0.41345257  1
  O  O166  1  0.08825005  0.20089615  0.41306582  1
  O  O167  1  0.59058929  0.20225754  0.41150435  1
  O  O168  1  0.01770263  0.20806334  0.91247505  1
  O  O169  1  0.51465535  0.20436959  0.91006336  1
  O  O170  1  0.09179959  0.98375843  0.91210550  1
  O  O171  1  0.59095036  0.98418500  0.91189204  1
  O  O172  1  0.40999213  0.83737491  0.90981569  1
  O  O173  1  0.91167158  0.83713985  0.91152521  1
  O  O174  1  0.48589731  0.17629730  0.58958893  1
  O  O175  1  0.98908459  0.16181554  0.59148313  1
  O  O176  1  0.09145724  0.01839705  0.59437691  1
  O  O177  1  0.60034638  0.01997700  0.58872491  1
  O  O178  1  0.41723662  0.83052779  0.59021278  1
  O  O179  1  0.92090389  0.81631597  0.59311006  1
  O  O180  1  0.48840245  0.81914245  0.09517896  1
  O  O181  1  0.98828358  0.82414306  0.09113044  1
  O  O182  1  0.41258453  0.02508408  0.08932829  1
  O  O183  1  0.91332326  0.02132802  0.08978224  1
  O  O184  1  0.09775535  0.17402119  0.08980102  1
  O  O185  1  0.58903513  0.16042625  0.09363953  1
  O  O186  1  0.34738343  0.15742007  0.74507678  1
  O  O187  1  0.84519250  0.17339576  0.74248818  1
  O  O188  1  0.24456868  0.32510915  0.74589251  1
  O  O189  1  0.74062013  0.31138297  0.74615016  1
  O  O190  1  0.42348761  0.53545213  0.74356553  1
  O  O191  1  0.92424657  0.54064431  0.74445609  1
  O  O192  1  0.34147092  0.51979027  0.24336336  1
  O  O193  1  0.84006148  0.51498982  0.24538446  1
  O  O194  1  0.41527525  0.30483717  0.24417145  1
  O  O195  1  0.91130211  0.30277526  0.24351261  1
  O  O196  1  0.23997976  0.16681541  0.24056147  1
  O  O197  1  0.73060468  0.15086189  0.24192722  1
  O  O198  1  0.31642609  0.48705308  0.92149047  1
  O  O199  1  0.81868496  0.48856298  0.92021775  1
  O  O200  1  0.43222773  0.34768047  0.92282218  1
  O  O201  1  0.93350099  0.35006516  0.92274224  1
  O  O202  1  0.24443663  0.13139771  0.92278468  1
  O  O203  1  0.74445626  0.13059850  0.92041732  1
  O  O204  1  0.32100445  0.13023404  0.42263769  1
  O  O205  1  0.82044581  0.13303287  0.42158872  1
  O  O206  1  0.24434231  0.36009784  0.42042607  1
  O  O207  1  0.74486070  0.35297912  0.42280637  1
  O  O208  1  0.42174303  0.49703375  0.42025719  1
  O  O209  1  0.93396725  0.50979377  0.42108260  1
  O  O210  1  0.17512031  0.48243094  0.07732197  1
  O  O211  1  0.67994647  0.50568490  0.07846609  1
  O  O212  1  0.08036328  0.65848397  0.07612742  1
  O  O213  1  0.57792424  0.65949049  0.07641325  1
  O  O214  1  0.25889370  0.86750293  0.07839718  1
  O  O215  1  0.76069003  0.86860280  0.07914134  1
  O  O216  1  0.17276058  0.84883312  0.57542708  1
  O  O217  1  0.68046867  0.87097153  0.57664325  1
  O  O218  1  0.25009521  0.64939660  0.57625586  1
  O  O219  1  0.75251807  0.66713946  0.57632974  1
  O  O220  1  0.07330941  0.49555541  0.57553921  1
  O  O221  1  0.56619324  0.48516273  0.57714001  1
  O  O222  1  0.15177598  0.82777611  0.25545101  1
  O  O223  1  0.65293540  0.84557254  0.25416536  1
  O  O224  1  0.26143468  0.69675221  0.25587503  1
  O  O225  1  0.76080559  0.70062390  0.25480771  1
  O  O226  1  0.08351889  0.47478806  0.25515372  1
  O  O227  1  0.58652599  0.47847057  0.25359569  1
  O  O228  1  0.15131499  0.48020169  0.75288542  1
  O  O229  1  0.65623635  0.48269282  0.75437728  1
  O  O230  1  0.07735481  0.69075654  0.75439499  1
  O  O231  1  0.57857460  0.69834668  0.75696126  1
  O  O232  1  0.26800412  0.84602273  0.75616617  1
  O  O233  1  0.75765091  0.83292429  0.75289411  1
