# generated using pymatgen
data_MgMo2(PO5)2
_symmetry_space_group_name_H-M   'P 1'
_cell_length_a   5.30945691
_cell_length_b   5.51818071
_cell_length_c   7.66852705
_cell_angle_alpha   69.82592449
_cell_angle_beta   67.81189751
_cell_angle_gamma   88.64075480
_symmetry_Int_Tables_number   1
_chemical_formula_structural   MgMo2(PO5)2
_chemical_formula_sum   'Mg1 Mo2 P2 O10'
_cell_volume   193.80365874
_cell_formula_units_Z   1
loop_
 _symmetry_equiv_pos_site_id
 _symmetry_equiv_pos_as_xyz
  1  'x, y, z'
loop_
 _atom_site_type_symbol
 _atom_site_label
 _atom_site_symmetry_multiplicity
 _atom_site_fract_x
 _atom_site_fract_y
 _atom_site_fract_z
 _atom_site_occupancy
  Mg  Mg0  1  0.83735100  0.28662000  0.09296900  1
  Mo  Mo1  1  0.23403400  0.73564900  0.02203800  1
  Mo  Mo2  1  0.71828700  0.22842500  0.53176300  1
  P  P3  1  0.56327800  0.82589400  0.29911200  1
  P  P4  1  0.87806300  0.62608400  0.74615500  1
  O  O5  1  0.42038700  0.04550400  0.78999700  1
  O  O6  1  0.00834700  0.39839700  0.24678400  1
  O  O7  1  0.85335800  0.90754300  0.11356600  1
  O  O8  1  0.91684700  0.90176900  0.59657100  1
  O  O9  1  0.54652400  0.05943800  0.37232200  1
  O  O10  1  0.09719500  0.58246700  0.84463500  1
  O  O11  1  0.33923400  0.84283500  0.21523300  1
  O  O12  1  0.90479600  0.41376200  0.65680400  1
  O  O13  1  0.53238800  0.56171800  0.46025700  1
  O  O14  1  0.60351200  0.54999600  0.94359400  1
