# generated using pymatgen
data_Na2Hf4Si3(SO8)3
_symmetry_space_group_name_H-M   'P 1'
_cell_length_a   8.93504032
_cell_length_b   8.92137088
_cell_length_c   23.34579354
_cell_angle_alpha   90.34156418
_cell_angle_beta   90.28593902
_cell_angle_gamma   119.94791753
_symmetry_Int_Tables_number   1
_chemical_formula_structural   Na2Hf4Si3(SO8)3
_chemical_formula_sum   'Na6 Hf12 Si9 S9 O72'
_cell_volume   1612.38591014
_cell_formula_units_Z   3
loop_
 _symmetry_equiv_pos_site_id
 _symmetry_equiv_pos_as_xyz
  1  'x, y, z'
loop_
 _atom_site_type_symbol
 _atom_site_label
 _atom_site_symmetry_multiplicity
 _atom_site_fract_x
 _atom_site_fract_y
 _atom_site_fract_z
 _atom_site_occupancy
  Na  Na0  1  0.97231103  0.96713981  0.49357543  1
  Na  Na1  1  0.00872827  0.97957464  0.00141941  1
  Na  Na2  1  0.64220982  0.30237659  0.82708940  1
  Na  Na3  1  0.67544450  0.31261144  0.33616099  1
  Na  Na4  1  0.30439016  0.65744353  0.17736158  1
  Na  Na5  1  0.35667008  0.65827215  0.66348210  1
  Hf  Hf6  1  0.00487423  0.00434965  0.35451466  1
  Hf  Hf7  1  0.01241082  0.01101438  0.85061713  1
  Hf  Hf8  1  0.98790512  0.00122804  0.64641671  1
  Hf  Hf9  1  0.00905869  0.99661636  0.15019641  1
  Hf  Hf10  1  0.65356952  0.33266620  0.68792704  1
  Hf  Hf11  1  0.68361438  0.33626666  0.19210971  1
  Hf  Hf12  1  0.66408647  0.33510806  0.97992734  1
  Hf  Hf13  1  0.67842424  0.34560877  0.47627982  1
  Hf  Hf14  1  0.31953718  0.67476404  0.02158896  1
  Hf  Hf15  1  0.34889424  0.67986608  0.51694618  1
  Hf  Hf16  1  0.32088156  0.67611885  0.31358366  1
  Hf  Hf17  1  0.34771798  0.68251818  0.80914651  1
  Si  Si18  1  0.29618858  0.00544368  0.25088922  1
  Si  Si19  1  0.01186184  0.29099030  0.25005228  1
  Si  Si20  1  0.28907912  0.29249759  0.74899377  1
  Si  Si21  1  0.71563426  0.00916894  0.75094315  1
  Si  Si22  1  0.66384082  0.62455243  0.58369516  1
  Si  Si23  1  0.95177611  0.62755985  0.08310948  1
  Si  Si24  1  0.32875878  0.95969711  0.91645999  1
  Si  Si25  1  0.62852363  0.96015191  0.41551386  1
  Si  Si26  1  0.04593290  0.67252428  0.41830126  1
  S  S27  1  0.71058681  0.71183357  0.24925659  1
  S  S28  1  0.00026928  0.71144256  0.74974395  1
  S  S29  1  0.95610557  0.33569111  0.58400692  1
  S  S30  1  0.37472763  0.04250976  0.58326185  1
  S  S31  1  0.66750462  0.04453064  0.08215590  1
  S  S32  1  0.37697530  0.33477805  0.08238392  1
  S  S33  1  0.62071775  0.66641127  0.91796033  1
  S  S34  1  0.04296069  0.37769680  0.91712439  1
  S  S35  1  0.33512567  0.38007405  0.41670289  1
  O  O36  1  0.20047206  0.02472002  0.30640332  1
  O  O37  1  0.81724328  0.79015755  0.30087257  1
  O  O38  1  0.97725539  0.17058270  0.30532525  1
  O  O39  1  0.20331371  0.17250525  0.80641255  1
  O  O40  1  0.97486647  0.79148648  0.80201254  1
  O  O41  1  0.82490878  0.02108300  0.80879911  1
  O  O42  1  0.80116474  0.97296736  0.69474181  1
  O  O43  1  0.17543415  0.19443958  0.69262609  1
  O  O44  1  0.02683125  0.81702461  0.69881493  1
  O  O45  1  0.79387743  0.81633624  0.19721017  1
  O  O46  1  0.01658031  0.19264355  0.19083320  1
  O  O47  1  0.17550044  0.97082929  0.19248927  1
  O  O48  1  0.87018724  0.35139264  0.63555320  1
  O  O49  1  0.48183592  0.12400105  0.63605350  1
  O  O50  1  0.64890590  0.50996459  0.64043157  1
  O  O51  1  0.85571461  0.50813842  0.13772115  1
  O  O52  1  0.63728146  0.12081665  0.13358247  1
  O  O53  1  0.47993284  0.35713820  0.13346811  1
  O  O54  1  0.45913294  0.30752373  0.03020444  1
  O  O55  1  0.83968597  0.52752430  0.02534008  1
  O  O56  1  0.68138006  0.14826785  0.03061774  1
  O  O57  1  0.45816124  0.14475705  0.53272248  1
  O  O58  1  0.68000830  0.52277130  0.52817965  1
  O  O59  1  0.84970496  0.30881528  0.53215001  1
  O  O60  1  0.53500108  0.68367291  0.96926171  1
  O  O61  1  0.15046729  0.45997799  0.96933298  1
  O  O62  1  0.31132826  0.84268013  0.97330825  1
  O  O63  1  0.53994349  0.84135555  0.47309705  1
  O  O64  1  0.31452282  0.46325461  0.46890280  1
  O  O65  1  0.15855995  0.68523537  0.47525174  1
  O  O66  1  0.12912917  0.63811631  0.36088618  1
  O  O67  1  0.51120462  0.86009963  0.35978484  1
  O  O68  1  0.35999118  0.48215060  0.36537956  1
  O  O69  1  0.12229696  0.47987690  0.86608767  1
  O  O70  1  0.35104928  0.86116660  0.86137105  1
  O  O71  1  0.51455265  0.63927783  0.86563868  1
  O  O72  1  0.02993126  0.84508893  0.41230637  1
  O  O73  1  0.82174406  0.98715513  0.41043526  1
  O  O74  1  0.17849013  0.20728330  0.41291531  1
  O  O75  1  0.02207563  0.20134152  0.91322831  1
  O  O76  1  0.15430342  0.97507321  0.91287353  1
  O  O77  1  0.79407712  0.82030834  0.91291333  1
  O  O78  1  0.97474235  0.17810037  0.58829155  1
  O  O79  1  0.20259780  0.02488268  0.59009933  1
  O  O80  1  0.83972335  0.81503553  0.58909452  1
  O  O81  1  0.97189527  0.81932033  0.08582771  1
  O  O82  1  0.82348989  0.03009781  0.08576527  1
  O  O83  1  0.20114039  0.18049353  0.08540489  1
  O  O84  1  0.70206722  0.18271762  0.74344549  1
  O  O85  1  0.48356264  0.31824879  0.74458275  1
  O  O86  1  0.84720881  0.53777908  0.74386215  1
  O  O87  1  0.69363342  0.53842868  0.24198138  1
  O  O88  1  0.84178618  0.31894179  0.24384962  1
  O  O89  1  0.48206870  0.17969149  0.23982515  1
  O  O90  1  0.63856645  0.50834347  0.92291911  1
  O  O91  1  0.86822563  0.35825327  0.92450644  1
  O  O92  1  0.50217585  0.15134310  0.92415233  1
  O  O93  1  0.63388058  0.14432259  0.42535098  1
  O  O94  1  0.48687791  0.35614123  0.42373229  1
  O  O95  1  0.85156948  0.50117230  0.42318125  1
  O  O96  1  0.36270181  0.49174836  0.07318086  1
  O  O97  1  0.14500766  0.64429079  0.07696445  1
  O  O98  1  0.51466953  0.86705352  0.07479210  1
  O  O99  1  0.35582638  0.86728632  0.57977009  1
  O  O100  1  0.49004156  0.64212658  0.57984502  1
  O  O101  1  0.12831779  0.48973431  0.57946824  1
  O  O102  1  0.32071247  0.83613478  0.25426242  1
  O  O103  1  0.53915871  0.69248978  0.25366991  1
  O  O104  1  0.18745841  0.47710059  0.25481382  1
  O  O105  1  0.30078198  0.47895159  0.75951939  1
  O  O106  1  0.15395264  0.69151916  0.75715856  1
  O  O107  1  0.52081367  0.83815167  0.75624513  1
