# generated using pymatgen
data_MnP2O7
_symmetry_space_group_name_H-M   'P 1'
_cell_length_a   7.82415498
_cell_length_b   7.04810723
_cell_length_c   9.09278238
_cell_angle_alpha   69.74503010
_cell_angle_beta   90.00000000
_cell_angle_gamma   90.00000000
_symmetry_Int_Tables_number   1
_chemical_formula_structural   MnP2O7
_chemical_formula_sum   'Mn4 P8 O28'
_cell_volume   470.41835936
_cell_formula_units_Z   4
loop_
 _symmetry_equiv_pos_site_id
 _symmetry_equiv_pos_as_xyz
  1  'x, y, z'
loop_
 _atom_site_type_symbol
 _atom_site_label
 _atom_site_symmetry_multiplicity
 _atom_site_fract_x
 _atom_site_fract_y
 _atom_site_fract_z
 _atom_site_occupancy
  Mn  Mn0  1  0.99554219  0.72975020  0.24638311  1
  Mn  Mn1  1  0.49554219  0.27024980  0.25361689  1
  Mn  Mn2  1  0.50445781  0.72975020  0.74638311  1
  Mn  Mn3  1  0.00445781  0.27024980  0.75361689  1
  P  P4  1  0.30115023  0.67459093  0.05249255  1
  P  P5  1  0.80115023  0.32540907  0.44750745  1
  P  P6  1  0.76055130  0.92126032  0.94556142  1
  P  P7  1  0.26055130  0.07873968  0.55443858  1
  P  P8  1  0.73944870  0.92126032  0.44556142  1
  P  P9  1  0.23944870  0.07873968  0.05443858  1
  P  P10  1  0.19884977  0.67459093  0.55249255  1
  P  P11  1  0.69884977  0.32540907  0.94750745  1
  O  O12  1  0.35246901  0.89304309  0.05156696  1
  O  O13  1  0.80793666  0.79980826  0.11306298  1
  O  O14  1  0.11364727  0.64707391  0.09989898  1
  O  O15  1  0.92365260  0.46117904  0.33002754  1
  O  O16  1  0.81672638  0.33045916  0.61263584  1
  O  O17  1  0.42365260  0.53882096  0.16997246  1
  O  O18  1  0.61364727  0.35292609  0.40010102  1
  O  O19  1  0.14053574  0.20827104  0.60792757  1
  O  O20  1  0.91468331  0.00409917  0.84021069  1
  O  O21  1  0.30793666  0.20019174  0.38693702  1
  O  O22  1  0.68327362  0.33045916  0.11263584  1
  O  O23  1  0.85246901  0.10695691  0.44843304  1
  O  O24  1  0.41468331  0.99590083  0.65978931  1
  O  O25  1  0.35946426  0.20827104  0.10792757  1
  O  O26  1  0.64053574  0.79172896  0.89207243  1
  O  O27  1  0.58531669  0.00409917  0.34021069  1
  O  O28  1  0.14753099  0.89304309  0.55156696  1
  O  O29  1  0.31672638  0.66954084  0.88736416  1
  O  O30  1  0.69206334  0.79980826  0.61306298  1
  O  O31  1  0.08531669  0.99590083  0.15978931  1
  O  O32  1  0.85946426  0.79172896  0.39207243  1
  O  O33  1  0.38635273  0.64707391  0.59989898  1
  O  O34  1  0.57634740  0.46117904  0.83002754  1
  O  O35  1  0.18327362  0.66954084  0.38736416  1
  O  O36  1  0.07634740  0.53882096  0.66997246  1
  O  O37  1  0.88635273  0.35292609  0.90010102  1
  O  O38  1  0.19206334  0.20019174  0.88693702  1
  O  O39  1  0.64753099  0.10695691  0.94843304  1
