# generated using pymatgen
data_Na3Ca4Nb2P3(SO6)6
_symmetry_space_group_name_H-M   'P 1'
_cell_length_a   9.08239666
_cell_length_b   9.08239634
_cell_length_c   23.70497886
_cell_angle_alpha   90.00000000
_cell_angle_beta   90.00000000
_cell_angle_gamma   120.00000115
_symmetry_Int_Tables_number   1
_chemical_formula_structural   Na3Ca4Nb2P3(SO6)6
_chemical_formula_sum   'Na6 Ca8 Nb4 P6 S12 O72'
_cell_volume   1693.44507043
_cell_formula_units_Z   2
loop_
 _symmetry_equiv_pos_site_id
 _symmetry_equiv_pos_as_xyz
  1  'x, y, z'
loop_
 _atom_site_type_symbol
 _atom_site_label
 _atom_site_symmetry_multiplicity
 _atom_site_fract_x
 _atom_site_fract_y
 _atom_site_fract_z
 _atom_site_occupancy
  Na  Na0  1  0.00000000  0.00000000  0.49468854  1
  Na  Na1  1  0.00000000  0.00000000  0.99468854  1
  Na  Na2  1  0.66666700  0.33333300  0.82945175  1
  Na  Na3  1  0.66666700  0.33333300  0.32945175  1
  Na  Na4  1  0.33333300  0.66666700  0.16504333  1
  Na  Na5  1  0.33333300  0.66666700  0.66504333  1
  Ca  Ca6  1  0.00000000  0.00000000  0.35203025  1
  Ca  Ca7  1  0.00000000  0.00000000  0.85203025  1
  Ca  Ca8  1  0.00000000  0.00000000  0.64819202  1
  Ca  Ca9  1  0.00000000  0.00000000  0.14819202  1
  Ca  Ca10  1  0.66666700  0.33333300  0.68687160  1
  Ca  Ca11  1  0.66666700  0.33333300  0.18687160  1
  Ca  Ca12  1  0.33333300  0.66666700  0.01875446  1
  Ca  Ca13  1  0.33333300  0.66666700  0.51875446  1
  Nb  Nb14  1  0.66666700  0.33333300  0.97599327  1
  Nb  Nb15  1  0.66666700  0.33333300  0.47599327  1
  Nb  Nb16  1  0.33333300  0.66666700  0.32319715  1
  Nb  Nb17  1  0.33333300  0.66666700  0.82319715  1
  P  P18  1  0.62503816  0.66046898  0.91967062  1
  P  P19  1  0.03542983  0.37496184  0.91967062  1
  P  P20  1  0.33953102  0.96457017  0.91967062  1
  P  P21  1  0.62503816  0.96457017  0.41967062  1
  P  P22  1  0.33953102  0.37496184  0.41967062  1
  P  P23  1  0.03542983  0.66046898  0.41967062  1
  S  S24  1  0.30008636  0.98846963  0.25347866  1
  S  S25  1  0.68838327  0.69991364  0.25347866  1
  S  S26  1  0.01153037  0.31161673  0.25347866  1
  S  S27  1  0.30008636  0.31161673  0.75347866  1
  S  S28  1  0.01153037  0.69991364  0.75347866  1
  S  S29  1  0.68838327  0.98846963  0.75347866  1
  S  S30  1  0.95066159  0.32825116  0.58042289  1
  S  S31  1  0.37759057  0.04933841  0.58042289  1
  S  S32  1  0.67174884  0.62240943  0.58042289  1
  S  S33  1  0.95066159  0.62240943  0.08042289  1
  S  S34  1  0.67174884  0.04933841  0.08042289  1
  S  S35  1  0.37759057  0.32825116  0.08042289  1
  O  O36  1  0.21786506  0.01076654  0.30228897  1
  O  O37  1  0.79290148  0.78213494  0.30228897  1
  O  O38  1  0.98923346  0.20709852  0.30228897  1
  O  O39  1  0.21786506  0.20709852  0.80228897  1
  O  O40  1  0.98923346  0.78213494  0.80228897  1
  O  O41  1  0.79290148  0.01076654  0.80228897  1
  O  O42  1  0.75576945  0.95858521  0.70055440  1
  O  O43  1  0.20281576  0.24423055  0.70055440  1
  O  O44  1  0.04141479  0.79718424  0.70055440  1
  O  O45  1  0.75576945  0.79718424  0.20055440  1
  O  O46  1  0.04141479  0.24423055  0.20055440  1
  O  O47  1  0.20281576  0.95858521  0.20055440  1
  O  O48  1  0.86707849  0.33794286  0.63132914  1
  O  O49  1  0.47086537  0.13292151  0.63132914  1
  O  O50  1  0.66205714  0.52913463  0.63132914  1
  O  O51  1  0.86707849  0.52913463  0.13132914  1
  O  O52  1  0.66205714  0.13292151  0.13132914  1
  O  O53  1  0.47086537  0.33794286  0.13132914  1
  O  O54  1  0.47981833  0.32376999  0.02844283  1
  O  O55  1  0.84395265  0.52018167  0.02844283  1
  O  O56  1  0.67623001  0.15604735  0.02844283  1
  O  O57  1  0.47981833  0.15604735  0.52844283  1
  O  O58  1  0.67623001  0.52018167  0.52844283  1
  O  O59  1  0.84395265  0.32376999  0.52844283  1
  O  O60  1  0.54621824  0.68308971  0.97173911  1
  O  O61  1  0.13687047  0.45378176  0.97173911  1
  O  O62  1  0.31691029  0.86312953  0.97173911  1
  O  O63  1  0.54621824  0.86312953  0.47173911  1
  O  O64  1  0.31691029  0.45378176  0.47173911  1
  O  O65  1  0.13687047  0.68308971  0.47173911  1
  O  O66  1  0.13329643  0.63257392  0.36613708  1
  O  O67  1  0.49927649  0.86670357  0.36613708  1
  O  O68  1  0.36742608  0.50072351  0.36613708  1
  O  O69  1  0.13329643  0.50072351  0.86613708  1
  O  O70  1  0.36742608  0.86670357  0.86613708  1
  O  O71  1  0.49927649  0.63257392  0.86613708  1
  O  O72  1  -0.00156948  0.80060614  0.40743315  1
  O  O73  1  0.80217563  0.00156948  0.40743315  1
  O  O74  1  0.19939386  0.19782437  0.40743315  1
  O  O75  1  -0.00156948  0.19782437  0.90743315  1
  O  O76  1  0.19939386  0.00156948  0.90743315  1
  O  O77  1  0.80217563  0.80060614  0.90743315  1
  O  O78  1  0.95817367  0.16960238  0.57763638  1
  O  O79  1  0.21142871  0.04182633  0.57763638  1
  O  O80  1  0.83039762  0.78857129  0.57763638  1
  O  O81  1  0.95817367  0.78857129  0.07763638  1
  O  O82  1  0.83039762  0.04182633  0.07763638  1
  O  O83  1  0.21142871  0.16960238  0.07763638  1
  O  O84  1  0.65663658  0.13275215  0.74899156  1
  O  O85  1  0.47611657  0.34336342  0.74899156  1
  O  O86  1  0.86724785  0.52388343  0.74899156  1
  O  O87  1  0.65663658  0.52388343  0.24899156  1
  O  O88  1  0.86724785  0.34336342  0.24899156  1
  O  O89  1  0.47611657  0.13275215  0.24899156  1
  O  O90  1  0.62792121  0.48506110  0.92410619  1
  O  O91  1  0.85714089  0.37207879  0.92410619  1
  O  O92  1  0.51493890  0.14285911  0.92410619  1
  O  O93  1  0.62792121  0.14285911  0.42410619  1
  O  O94  1  0.51493890  0.37207879  0.42410619  1
  O  O95  1  0.85714089  0.48506110  0.42410619  1
  O  O96  1  0.36051279  0.48014949  0.07729293  1
  O  O97  1  0.11963570  0.63948721  0.07729293  1
  O  O98  1  0.51985051  0.88036430  0.07729293  1
  O  O99  1  0.36051279  0.88036430  0.57729293  1
  O  O100  1  0.51985051  0.63948721  0.57729293  1
  O  O101  1  0.11963570  0.48014949  0.57729293  1
  O  O102  1  0.31425220  0.82741934  0.26240196  1
  O  O103  1  0.51316614  0.68574780  0.26240196  1
  O  O104  1  0.17258066  0.48683386  0.26240196  1
  O  O105  1  0.31425220  0.48683386  0.76240196  1
  O  O106  1  0.17258066  0.68574780  0.76240196  1
  O  O107  1  0.51316614  0.82741934  0.76240196  1
