# generated using pymatgen
data_Ba2NdMgMoO6
_symmetry_space_group_name_H-M   'P 1'
_cell_length_a   5.97366523
_cell_length_b   6.56705959
_cell_length_c   6.47455476
_cell_angle_alpha   55.31902332
_cell_angle_beta   86.23720410
_cell_angle_gamma   113.32721134
_symmetry_Int_Tables_number   1
_chemical_formula_structural   Ba2NdMgMoO6
_chemical_formula_sum   'Ba2 Nd1 Mg1 Mo1 O6'
_cell_volume   176.98595050
_cell_formula_units_Z   1
loop_
 _symmetry_equiv_pos_site_id
 _symmetry_equiv_pos_as_xyz
  1  'x, y, z'
loop_
 _atom_site_type_symbol
 _atom_site_label
 _atom_site_symmetry_multiplicity
 _atom_site_fract_x
 _atom_site_fract_y
 _atom_site_fract_z
 _atom_site_occupancy
  Ba  Ba0  1  0.08856797  0.72323232  0.61732849  1
  Ba  Ba1  1  0.84021277  0.23297944  0.40567764  1
  Nd  Nd2  1  0.28908198  0.13032705  0.84540528  1
  Mg  Mg3  1  0.65489928  0.87913754  0.17723564  1
  Mo  Mo4  1  0.47022888  0.49226969  0.02244505  1
  O  O5  1  0.41011443  0.26074135  0.43307854  1
  O  O6  1  0.51178306  0.66953813  0.59089028  1
  O  O7  1  0.06551840  0.13948484  0.14397961  1
  O  O8  1  0.84447853  0.84054507  0.92135534  1
  O  O9  1  0.62510397  0.23941060  0.01728337  1
  O  O10  1  0.32501072  0.72566698  0.06490376  1
