# generated using pymatgen
data_K3YMgV2O8
_symmetry_space_group_name_H-M   'P 1'
_cell_length_a   6.14814952
_cell_length_b   6.14789438
_cell_length_c   8.42393678
_cell_angle_alpha   85.47832336
_cell_angle_beta   94.52196599
_cell_angle_gamma   119.52418537
_symmetry_Int_Tables_number   1
_chemical_formula_structural   K3YMgV2O8
_chemical_formula_sum   'K3 Y1 Mg1 V2 O8'
_cell_volume   275.90722608
_cell_formula_units_Z   1
loop_
 _symmetry_equiv_pos_site_id
 _symmetry_equiv_pos_as_xyz
  1  'x, y, z'
loop_
 _atom_site_type_symbol
 _atom_site_label
 _atom_site_symmetry_multiplicity
 _atom_site_fract_x
 _atom_site_fract_y
 _atom_site_fract_z
 _atom_site_occupancy
  K  K0  1  0.69736100  0.30251300  0.24107700  1
  K  K1  1  0.30249500  0.69718100  0.75891400  1
  K  K2  1  0.99858900  0.99860200  0.99996400  1
  Y  Y3  1  0.00008500  0.00004900  0.50002300  1
  Mg  Mg4  1  0.50004300  0.50008200  0.50001600  1
  V  V5  1  0.70095300  0.29917700  0.74332300  1
  V  V6  1  0.29925100  0.70096300  0.25663300  1
  O  O7  1  0.67229300  0.32884200  0.94024000  1
  O  O8  1  0.32879800  0.67239500  0.05978900  1
  O  O9  1  0.82412200  0.61435400  0.62475100  1
  O  O10  1  0.38574300  0.17599000  0.62478700  1
  O  O11  1  0.86340800  0.13653900  0.70209000  1
  O  O12  1  0.17602200  0.38580800  0.37519100  1
  O  O13  1  0.61429900  0.82416900  0.37526400  1
  O  O14  1  0.13653700  0.86333500  0.29793500  1
