# generated using pymatgen
data_Cd4P2Br3
_symmetry_space_group_name_H-M   'P 1'
_cell_length_a   12.49622421
_cell_length_b   12.49622421
_cell_length_c   12.49622421
_cell_angle_alpha   90.00000000
_cell_angle_beta   90.00000000
_cell_angle_gamma   90.00000000
_symmetry_Int_Tables_number   1
_chemical_formula_structural   Cd4P2Br3
_chemical_formula_sum   'Cd32 P16 Br24'
_cell_volume   1951.35563301
_cell_formula_units_Z   8
loop_
 _symmetry_equiv_pos_site_id
 _symmetry_equiv_pos_as_xyz
  1  'x, y, z'
loop_
 _atom_site_type_symbol
 _atom_site_label
 _atom_site_symmetry_multiplicity
 _atom_site_fract_x
 _atom_site_fract_y
 _atom_site_fract_z
 _atom_site_occupancy
  Cd  Cd0  1  0.03448201  0.99592792  0.25457754  1
  Cd  Cd1  1  0.25457754  0.03448201  0.99592792  1
  Cd  Cd2  1  0.99592792  0.25457754  0.03448201  1
  Cd  Cd3  1  0.50407208  0.74542246  0.53448201  1
  Cd  Cd4  1  0.75457754  0.46551799  0.00407208  1
  Cd  Cd5  1  0.00407208  0.75457754  0.46551799  1
  Cd  Cd6  1  0.24542246  0.96551799  0.49592792  1
  Cd  Cd7  1  0.74542246  0.53448201  0.50407208  1
  Cd  Cd8  1  0.49592792  0.24542246  0.96551799  1
  Cd  Cd9  1  0.53448201  0.50407208  0.74542246  1
  Cd  Cd10  1  0.96551799  0.49592792  0.24542246  1
  Cd  Cd11  1  0.46551799  0.00407208  0.75457754  1
  Cd  Cd12  1  0.96551799  0.00407208  0.74542246  1
  Cd  Cd13  1  0.74542246  0.96551799  0.00407208  1
  Cd  Cd14  1  0.00407208  0.74542246  0.96551799  1
  Cd  Cd15  1  0.49592792  0.25457754  0.46551799  1
  Cd  Cd16  1  0.24542246  0.53448201  0.99592792  1
  Cd  Cd17  1  0.99592792  0.24542246  0.53448201  1
  Cd  Cd18  1  0.75457754  0.03448201  0.50407208  1
  Cd  Cd19  1  0.25457754  0.46551799  0.49592792  1
  Cd  Cd20  1  0.50407208  0.75457754  0.03448201  1
  Cd  Cd21  1  0.46551799  0.49592792  0.25457754  1
  Cd  Cd22  1  0.03448201  0.50407208  0.75457754  1
  Cd  Cd23  1  0.53448201  0.99592792  0.24542246  1
  Cd  Cd24  1  0.22236155  0.22236155  0.22236155  1
  Cd  Cd25  1  0.27763845  0.77763845  0.72236155  1
  Cd  Cd26  1  0.72236155  0.27763845  0.77763845  1
  Cd  Cd27  1  0.77763845  0.72236155  0.27763845  1
  Cd  Cd28  1  0.77763845  0.77763845  0.77763845  1
  Cd  Cd29  1  0.72236155  0.22236155  0.27763845  1
  Cd  Cd30  1  0.27763845  0.72236155  0.22236155  1
  Cd  Cd31  1  0.22236155  0.27763845  0.72236155  1
  P  P32  1  0.10745510  0.10745510  0.10745510  1
  P  P33  1  0.39254490  0.89254490  0.60745510  1
  P  P34  1  0.60745510  0.39254490  0.89254490  1
  P  P35  1  0.89254490  0.60745510  0.39254490  1
  P  P36  1  0.89254490  0.89254490  0.89254490  1
  P  P37  1  0.60745510  0.10745510  0.39254490  1
  P  P38  1  0.39254490  0.60745510  0.10745510  1
  P  P39  1  0.10745510  0.39254490  0.60745510  1
  P  P40  1  0.44964178  0.44964178  0.44964178  1
  P  P41  1  0.05035822  0.55035822  0.94964178  1
  P  P42  1  0.94964178  0.05035822  0.55035822  1
  P  P43  1  0.55035822  0.94964178  0.05035822  1
  P  P44  1  0.55035822  0.55035822  0.55035822  1
  P  P45  1  0.94964178  0.44964178  0.05035822  1
  P  P46  1  0.05035822  0.94964178  0.44964178  1
  P  P47  1  0.44964178  0.05035822  0.94964178  1
  Br  Br48  1  0.18578555  0.43571448  0.26613017  1
  Br  Br49  1  0.26613017  0.18578555  0.43571448  1
  Br  Br50  1  0.43571448  0.26613017  0.18578555  1
  Br  Br51  1  0.06428552  0.73386983  0.68578555  1
  Br  Br52  1  0.76613017  0.31421445  0.56428552  1
  Br  Br53  1  0.56428552  0.76613017  0.31421445  1
  Br  Br54  1  0.23386983  0.81421445  0.93571448  1
  Br  Br55  1  0.73386983  0.68578555  0.06428552  1
  Br  Br56  1  0.93571448  0.23386983  0.81421445  1
  Br  Br57  1  0.68578555  0.06428552  0.73386983  1
  Br  Br58  1  0.81421445  0.93571448  0.23386983  1
  Br  Br59  1  0.31421445  0.56428552  0.76613017  1
  Br  Br60  1  0.81421445  0.56428552  0.73386983  1
  Br  Br61  1  0.73386983  0.81421445  0.56428552  1
  Br  Br62  1  0.56428552  0.73386983  0.81421445  1
  Br  Br63  1  0.93571448  0.26613017  0.31421445  1
  Br  Br64  1  0.23386983  0.68578555  0.43571448  1
  Br  Br65  1  0.43571448  0.23386983  0.68578555  1
  Br  Br66  1  0.76613017  0.18578555  0.06428552  1
  Br  Br67  1  0.26613017  0.31421445  0.93571448  1
  Br  Br68  1  0.06428552  0.76613017  0.18578555  1
  Br  Br69  1  0.31421445  0.93571448  0.26613017  1
  Br  Br70  1  0.18578555  0.06428552  0.76613017  1
  Br  Br71  1  0.68578555  0.43571448  0.23386983  1
