# generated using pymatgen
data_Na10Sc4Nb4Si9(SO16)3
_symmetry_space_group_name_H-M   'P 1'
_cell_length_a   18.18478759
_cell_length_b   9.06054668
_cell_length_c   22.62689060
_cell_angle_alpha   90.04436028
_cell_angle_beta   89.51979921
_cell_angle_gamma   119.89340832
_symmetry_Int_Tables_number   1
_chemical_formula_structural   Na10Sc4Nb4Si9(SO16)3
_chemical_formula_sum   'Na30 Sc12 Nb12 Si27 S9 O144'
_cell_volume   3231.95283610
_cell_formula_units_Z   3
loop_
 _symmetry_equiv_pos_site_id
 _symmetry_equiv_pos_as_xyz
  1  'x, y, z'
loop_
 _atom_site_type_symbol
 _atom_site_label
 _atom_site_symmetry_multiplicity
 _atom_site_fract_x
 _atom_site_fract_y
 _atom_site_fract_z
 _atom_site_occupancy
  Na  Na0  1  0.18497406  0.36177143  0.24261881  1
  Na  Na1  1  0.68493089  0.36249486  0.24225009  1
  Na  Na2  1  0.18517301  0.00814722  0.74179691  1
  Na  Na3  1  0.68349531  0.00584064  0.74229746  1
  Na  Na4  1  0.65156309  0.34338629  0.58019815  1
  Na  Na5  1  0.02145529  0.70275340  0.57517918  1
  Na  Na6  1  0.51814856  0.68685574  0.58016170  1
  Na  Na7  1  0.32518170  0.97148104  0.58519334  1
  Na  Na8  1  0.15271245  0.96193636  0.08019242  1
  Na  Na9  1  0.65262639  0.96170580  0.07997940  1
  Na  Na10  1  0.32630571  0.68456276  0.08296980  1
  Na  Na11  1  0.82641231  0.68504188  0.08290039  1
  Na  Na12  1  0.02038029  0.35035546  0.08033866  1
  Na  Na13  1  0.52025351  0.35048543  0.08021283  1
  Na  Na14  1  0.48853346  0.67640596  0.91343958  1
  Na  Na15  1  0.98848368  0.67637721  0.91424453  1
  Na  Na16  1  0.35176631  0.66529126  0.40962414  1
  Na  Na17  1  0.85172819  0.67394571  0.40866212  1
  Na  Na18  1  0.01561698  0.02483247  0.49337986  1
  Na  Na19  1  0.51361380  0.01250241  0.49178229  1
  Na  Na20  1  0.00984337  0.02608244  0.99092263  1
  Na  Na21  1  0.50995642  0.02624580  0.99066686  1
  Na  Na22  1  0.34235805  0.33179422  0.82756941  1
  Na  Na23  1  0.84207527  0.33025347  0.82894593  1
  Na  Na24  1  0.34593058  0.33903908  0.32942665  1
  Na  Na25  1  0.84750036  0.33772609  0.32629456  1
  Na  Na26  1  0.16719902  0.67633815  0.16220817  1
  Na  Na27  1  0.66728971  0.67600116  0.16168795  1
  Na  Na28  1  0.17415740  0.65500498  0.66316180  1
  Na  Na29  1  0.67423404  0.67337380  0.65910846  1
  Sc  Sc30  1  0.00122003  0.00108919  0.35392511  1
  Sc  Sc31  1  0.50007172  0.99886230  0.35358606  1
  Sc  Sc32  1  0.99724613  0.00629180  0.85318120  1
  Sc  Sc33  1  0.49785912  0.00674582  0.85289559  1
  Sc  Sc34  1  0.33882189  0.33964073  0.68607320  1
  Sc  Sc35  1  0.83469081  0.33414792  0.68777835  1
  Sc  Sc36  1  0.33935141  0.34062117  0.18664521  1
  Sc  Sc37  1  0.83936354  0.34071841  0.18625225  1
  Sc  Sc38  1  0.16306389  0.66360000  0.01821032  1
  Sc  Sc39  1  0.66313680  0.66373193  0.01808384  1
  Sc  Sc40  1  0.16470100  0.66202429  0.51809679  1
  Sc  Sc41  1  0.66417525  0.66718167  0.52051323  1
  Nb  Nb42  1  0.99492960  0.98463296  0.64695364  1
  Nb  Nb43  1  0.49295522  0.98409531  0.64378562  1
  Nb  Nb44  1  0.99417588  0.00022696  0.14549930  1
  Nb  Nb45  1  0.49394360  0.00033793  0.14537044  1
  Nb  Nb46  1  0.33362085  0.32258080  0.98017992  1
  Nb  Nb47  1  0.83351768  0.32250640  0.98028328  1
  Nb  Nb48  1  0.33358509  0.33841081  0.48150049  1
  Nb  Nb49  1  0.82948154  0.34118917  0.47762394  1
  Nb  Nb50  1  0.16069948  0.64539937  0.31281738  1
  Nb  Nb51  1  0.66044241  0.64860158  0.31244147  1
  Nb  Nb52  1  0.16313045  0.67773575  0.81282870  1
  Nb  Nb53  1  0.66239748  0.67784629  0.81234459  1
  Si  Si54  1  0.35213392  0.70679922  0.25444947  1
  Si  Si55  1  0.85250916  0.70701116  0.25480212  1
  Si  Si56  1  0.99566820  0.28600829  0.25188288  1
  Si  Si57  1  0.49550977  0.28600868  0.25213617  1
  Si  Si58  1  0.99583084  0.70205618  0.75405236  1
  Si  Si59  1  0.49491947  0.70367138  0.75367202  1
  Si  Si60  1  0.35306920  0.99927196  0.75205294  1
  Si  Si61  1  0.85305463  0.99921221  0.75240828  1
  Si  Si62  1  0.47879864  0.33120631  0.58321830  1
  Si  Si63  1  0.18654078  0.04542663  0.58632468  1
  Si  Si64  1  0.68913008  0.04205618  0.58741839  1
  Si  Si65  1  0.32771638  0.61760664  0.58526515  1
  Si  Si66  1  0.83239946  0.62494685  0.58463505  1
  Si  Si67  1  0.47859377  0.62568440  0.08184600  1
  Si  Si68  1  0.97865496  0.62585668  0.08180154  1
  Si  Si69  1  0.33118594  0.04111540  0.08550449  1
  Si  Si70  1  0.83127674  0.04096299  0.08554273  1
  Si  Si71  1  0.18859022  0.33200609  0.08668266  1
  Si  Si72  1  0.68852925  0.33210137  0.08673916  1
  Si  Si73  1  0.01979233  0.37090220  0.91936532  1
  Si  Si74  1  0.51997949  0.37112202  0.91939009  1
  Si  Si75  1  0.16715388  0.96711567  0.91912710  1
  Si  Si76  1  0.66715822  0.96714091  0.91909594  1
  Si  Si77  1  0.16576807  0.36552113  0.41885982  1
  Si  Si78  1  0.66260160  0.36820279  0.41928023  1
  Si  Si79  1  0.02053474  0.66698549  0.42051776  1
  Si  Si80  1  0.51951280  0.66605492  0.42023904  1
  S  S81  1  0.14376801  0.99158378  0.24919266  1
  S  S82  1  0.64387805  0.99210466  0.24928652  1
  S  S83  1  0.14271254  0.29277418  0.74964041  1
  S  S84  1  0.64438116  0.29562899  0.74954461  1
  S  S85  1  0.97703504  0.32621707  0.58277878  1
  S  S86  1  0.31062384  0.66188769  0.91641002  1
  S  S87  1  0.81064397  0.66188094  0.91642839  1
  S  S88  1  0.30975417  0.95997953  0.41605543  1
  S  S89  1  0.80990851  0.96001849  0.41639465  1
  O  O90  1  0.10106256  0.01247092  0.30128223  1
  O  O91  1  0.60126028  0.01253713  0.30143046  1
  O  O92  1  0.40646167  0.79308150  0.31238230  1
  O  O93  1  0.90647332  0.79274679  0.31294442  1
  O  O94  1  0.49560649  0.17809619  0.30727348  1
  O  O95  1  0.99500006  0.17725139  0.30703817  1
  O  O96  1  0.10274991  0.18760523  0.80257675  1
  O  O97  1  0.60313685  0.18686407  0.80122421  1
  O  O98  1  0.49474332  0.80197877  0.81222350  1
  O  O99  1  0.99170533  0.79670594  0.81228279  1
  O  O100  1  0.41252529  0.02297898  0.80645250  1
  O  O101  1  0.91162383  0.02452384  0.80765108  1
  O  O102  1  0.40183308  0.97700466  0.69067823  1
  O  O103  1  0.90516343  0.97993762  0.69271580  1
  O  O104  1  0.08973739  0.21013575  0.69609108  1
  O  O105  1  0.59420496  0.21816692  0.69446699  1
  O  O106  1  0.01440594  0.83240582  0.69435802  1
  O  O107  1  0.51387464  0.83222212  0.69388315  1
  O  O108  1  0.40451352  0.83099633  0.19447698  1
  O  O109  1  0.90478654  0.83078212  0.19476169  1
  O  O110  1  0.01497277  0.20056823  0.19107764  1
  O  O111  1  0.51523791  0.20080154  0.19131686  1
  O  O112  1  0.09307697  0.97019784  0.19412749  1
  O  O113  1  0.59339109  0.97009941  0.19424028  1
  O  O114  1  0.43572664  0.36673708  0.63909345  1
  O  O115  1  0.93735280  0.35058678  0.63600425  1
  O  O116  1  0.24307542  0.12031522  0.64454946  1
  O  O117  1  0.74046808  0.12683078  0.64663899  1
  O  O118  1  0.31604982  0.50497241  0.64158180  1
  O  O119  1  0.82279790  0.50345414  0.63843553  1
  O  O120  1  0.43471414  0.50055997  0.13688057  1
  O  O121  1  0.93472835  0.50078374  0.13682972  1
  O  O122  1  0.31101127  0.12565160  0.14000496  1
  O  O123  1  0.81104374  0.12568289  0.13998330  1
  O  O124  1  0.24288340  0.36495074  0.14568544  1
  O  O125  1  0.74280628  0.36499658  0.14577957  1
  O  O126  1  0.23919396  0.30156794  0.02949476  1
  O  O127  1  0.73923153  0.30167149  0.02959605  1
  O  O128  1  0.41801541  0.54158803  0.02225896  1
  O  O129  1  0.91809502  0.54144286  0.02223041  1
  O  O130  1  0.35255779  0.16876636  0.02597589  1
  O  O131  1  0.85256608  0.16878964  0.02604127  1
  O  O132  1  0.23786568  0.16861425  0.52779716  1
  O  O133  1  0.74186131  0.17429257  0.52955071  1
  O  O134  1  0.34805850  0.53479557  0.52485532  1
  O  O135  1  0.85142414  0.53790828  0.52340615  1
  O  O136  1  0.41540878  0.29838585  0.52550272  1
  O  O137  1  0.92572943  0.30478943  0.52930941  1
  O  O138  1  0.27261825  0.67942309  0.97186422  1
  O  O139  1  0.77263691  0.67912525  0.97195799  1
  O  O140  1  0.07059436  0.45615915  0.97933862  1
  O  O141  1  0.57074559  0.45601299  0.97944311  1
  O  O142  1  0.15698890  0.85243925  0.97614069  1
  O  O143  1  0.65745586  0.85288139  0.97616353  1
  O  O144  1  0.27119381  0.86267452  0.47132751  1
  O  O145  1  0.77017424  0.85584483  0.46926528  1
  O  O146  1  0.16020760  0.47355556  0.47299333  1
  O  O147  1  0.66044956  0.46574041  0.47713724  1
  O  O148  1  0.07192387  0.68886796  0.48029685  1
  O  O149  1  0.57301326  0.69021050  0.47897028  1
  O  O150  1  0.07474221  0.64859770  0.36261673  1
  O  O151  1  0.57472655  0.65013106  0.36176566  1
  O  O152  1  0.25686958  0.86925080  0.36409144  1
  O  O153  1  0.75825419  0.87977317  0.36280558  1
  O  O154  1  0.18048845  0.49141654  0.35753657  1
  O  O155  1  0.68108908  0.49682243  0.35957250  1
  O  O156  1  0.07480969  0.50479371  0.86257865  1
  O  O157  1  0.57501299  0.50522594  0.86267316  1
  O  O158  1  0.17990137  0.86733682  0.85877180  1
  O  O159  1  0.67983254  0.86797382  0.85866144  1
  O  O160  1  0.25817567  0.64725230  0.86459671  1
  O  O161  1  0.75848216  0.64742843  0.86457536  1
  O  O162  1  0.99841458  0.81808598  0.41398572  1
  O  O163  1  0.49951148  0.82055324  0.41353632  1
  O  O164  1  0.39439912  0.97404134  0.41184880  1
  O  O165  1  0.89510268  0.97728045  0.41149138  1
  O  O166  1  0.08517611  0.18004865  0.41239608  1
  O  O167  1  0.58494344  0.18059368  0.41216354  1
  O  O168  1  0.00473387  0.18235779  0.91264844  1
  O  O169  1  0.50495773  0.18281613  0.91243679  1
  O  O170  1  0.08159265  0.97629527  0.91217591  1
  O  O171  1  0.58175440  0.97704993  0.91270434  1
  O  O172  1  0.39746918  0.81060079  0.91232987  1
  O  O173  1  0.89756836  0.81058160  0.91264459  1
  O  O174  1  0.48507752  0.15479919  0.58896698  1
  O  O175  1  0.98739203  0.17389994  0.58767399  1
  O  O176  1  0.09142092  0.03187415  0.59139934  1
  O  O177  1  0.59569138  0.03910726  0.59014293  1
  O  O178  1  0.42144865  0.80576139  0.58952723  1
  O  O179  1  0.92313257  0.81146486  0.59009824  1
  O  O180  1  0.48556920  0.81504732  0.09033407  1
  O  O181  1  0.98542391  0.81493588  0.09021580  1
  O  O182  1  0.42177362  0.03545291  0.09045217  1
  O  O183  1  0.92173898  0.03509717  0.09053473  1
  O  O184  1  0.09473936  0.15285450  0.09079628  1
  O  O185  1  0.59478067  0.15291146  0.09085927  1
  O  O186  1  0.33064141  0.14994103  0.74711274  1
  O  O187  1  0.83151128  0.15124260  0.74642102  1
  O  O188  1  0.22663761  0.30699501  0.74407168  1
  O  O189  1  0.72911481  0.31084643  0.74519668  1
  O  O190  1  0.41516783  0.51736905  0.74842330  1
  O  O191  1  0.91784386  0.51502122  0.74543194  1
  O  O192  1  0.33173971  0.51261409  0.24739926  1
  O  O193  1  0.83190778  0.51241155  0.24778911  1
  O  O194  1  0.41566698  0.31215830  0.24741234  1
  O  O195  1  0.91584162  0.31210673  0.24687287  1
  O  O196  1  0.22752933  0.14685681  0.24502479  1
  O  O197  1  0.72779681  0.14706230  0.24525911  1
  O  O198  1  0.31840477  0.50474614  0.91801891  1
  O  O199  1  0.81862402  0.50478234  0.91807432  1
  O  O200  1  0.42871626  0.37569203  0.92117250  1
  O  O201  1  0.92862624  0.37572143  0.92100143  1
  O  O202  1  0.25500983  0.15446404  0.92246987  1
  O  O203  1  0.75508784  0.15478560  0.92241374  1
  O  O204  1  0.31779328  0.13050910  0.41832627  1
  O  O205  1  0.81942382  0.13300978  0.42193745  1
  O  O206  1  0.25664723  0.36346051  0.42168870  1
  O  O207  1  0.75561966  0.36443569  0.42205202  1
  O  O208  1  0.42562037  0.48611167  0.42189857  1
  O  O209  1  0.92639295  0.48281855  0.42345194  1
  O  O210  1  0.17452632  0.49337419  0.07733351  1
  O  O211  1  0.67461122  0.49361713  0.07744195  1
  O  O212  1  0.07493933  0.65884444  0.07798537  1
  O  O213  1  0.57492279  0.65880820  0.07795572  1
  O  O214  1  0.25620818  0.84843135  0.07632305  1
  O  O215  1  0.75618523  0.84835457  0.07641321  1
  O  O216  1  0.17071585  0.85223604  0.57801547  1
  O  O217  1  0.66932740  0.84960533  0.57990835  1
  O  O218  1  0.25598992  0.67072095  0.57776224  1
  O  O219  1  0.75167996  0.64776334  0.57783244  1
  O  O220  1  0.06229079  0.48150834  0.57833524  1
  O  O221  1  0.57408744  0.49061150  0.57749580  1
  O  O222  1  0.15273646  0.83814274  0.25386817  1
  O  O223  1  0.65311659  0.83849911  0.25391629  1
  O  O224  1  0.25794371  0.70125086  0.25708776  1
  O  O225  1  0.75819293  0.70100942  0.25751021  1
  O  O226  1  0.08703153  0.47813792  0.25582138  1
  O  O227  1  0.58746837  0.47832448  0.25625494  1
  O  O228  1  0.15135898  0.46454288  0.75460224  1
  O  O229  1  0.65384666  0.46743782  0.75568080  1
  O  O230  1  0.08867446  0.69856461  0.75577385  1
  O  O231  1  0.58779800  0.69698005  0.75608310  1
  O  O232  1  0.25898953  0.81536451  0.75730390  1
  O  O233  1  0.75903145  0.81748429  0.75709825  1
