# generated using pymatgen
data_MgFe8(OF)8
_symmetry_space_group_name_H-M   'P 1'
_cell_length_a   9.78882706
_cell_length_b   9.87824014
_cell_length_c   3.07167300
_cell_angle_alpha   90.00000000
_cell_angle_beta   90.00000000
_cell_angle_gamma   84.49289457
_symmetry_Int_Tables_number   1
_chemical_formula_structural   MgFe8(OF)8
_chemical_formula_sum   'Mg1 Fe8 O8 F8'
_cell_volume   295.64872075
_cell_formula_units_Z   1
loop_
 _symmetry_equiv_pos_site_id
 _symmetry_equiv_pos_as_xyz
  1  'x, y, z'
loop_
 _atom_site_type_symbol
 _atom_site_label
 _atom_site_symmetry_multiplicity
 _atom_site_fract_x
 _atom_site_fract_y
 _atom_site_fract_z
 _atom_site_occupancy
  Mg  Mg0  1  0.76322700  0.77088900  0.00000000  1
  Fe  Fe1  1  0.03410200  0.02704100  0.00000000  1
  Fe  Fe2  1  0.02456200  0.55548000  0.00000000  1
  Fe  Fe3  1  0.20746800  0.27263900  0.50000000  1
  Fe  Fe4  1  0.23386800  0.77015000  0.50000000  1
  Fe  Fe5  1  0.47512100  0.49043300  0.00000000  1
  Fe  Fe6  1  0.49798500  0.99781000  0.00000000  1
  Fe  Fe7  1  0.73363600  0.25083100  0.50000000  1
  Fe  Fe8  1  0.73141300  0.51380600  0.50000000  1
  O  O9  1  0.09215300  0.44467800  0.50000000  1
  O  O10  1  0.12701100  0.94248000  0.50000000  1
  O  O11  1  0.13546800  0.18515300  0.00000000  1
  O  O12  1  0.14798800  0.69271100  0.00000000  1
  O  O13  1  0.58111600  0.38537400  0.50000000  1
  O  O14  1  0.64537200  0.61479200  0.00000000  1
  O  O15  1  0.80730000  0.36287500  0.00000000  1
  O  O16  1  0.88207900  0.63777100  0.50000000  1
  F  F17  1  0.32732600  0.34841400  0.00000000  1
  F  F18  1  0.36489200  0.84985000  0.00000000  1
  F  F19  1  0.39645100  0.10685200  0.50000000  1
  F  F20  1  0.37921100  0.61282400  0.50000000  1
  F  F21  1  0.63516700  0.87832100  0.50000000  1
  F  F22  1  0.65416700  0.13215100  0.00000000  1
  F  F23  1  0.88468600  0.90706800  0.00000000  1
  F  F24  1  0.90490100  0.12460300  0.50000000  1
