# generated using pymatgen
data_As3(HO2)5
_symmetry_space_group_name_H-M   'P 1'
_cell_length_a   4.69429714
_cell_length_b   5.69108914
_cell_length_c   7.29084090
_cell_angle_alpha   100.94754165
_cell_angle_beta   95.54432458
_cell_angle_gamma   101.80025676
_symmetry_Int_Tables_number   1
_chemical_formula_structural   As3(HO2)5
_chemical_formula_sum   'As3 H5 O10'
_cell_volume   185.32489212
_cell_formula_units_Z   1
loop_
 _symmetry_equiv_pos_site_id
 _symmetry_equiv_pos_as_xyz
  1  'x, y, z'
loop_
 _atom_site_type_symbol
 _atom_site_label
 _atom_site_symmetry_multiplicity
 _atom_site_fract_x
 _atom_site_fract_y
 _atom_site_fract_z
 _atom_site_occupancy
  As  As0  1  0.50000254  0.49999542  0.49999421  1
  As  As1  1  0.90415776  0.24707411  0.23108407  1
  As  As2  1  0.09583740  0.75290629  0.76890356  1
  H  H3  1  0.78140490  0.84067021  0.10281453  1
  H  H4  1  0.21858533  0.15932836  0.89719159  1
  H  H5  1  0.00000094  0.50002601  -0.00000754  1
  H  H6  1  0.45968215  0.80448859  0.33602202  1
  H  H7  1  0.54032126  0.19552693  0.66399090  1
  O  O8  1  0.02316765  0.30356175  0.02900737  1
  O  O9  1  0.68442458  0.95460798  0.18461192  1
  O  O10  1  0.31556621  0.04538472  0.81539067  1
  O  O11  1  0.68270941  0.44410793  0.28459534  1
  O  O12  1  0.81588059  0.76305045  0.60580912  1
  O  O13  1  0.18411761  0.23694763  0.39418963  1
  O  O14  1  0.67443549  0.29717963  0.59924168  1
  O  O15  1  0.32556355  0.70282544  0.40076113  1
  O  O16  1  0.31730256  0.55588687  0.71540889  1
  O  O17  1  0.97683806  0.69643067  0.97099093  1
