# generated using pymatgen
data_Ca2PbO4
_symmetry_space_group_name_H-M   'P 1'
_cell_length_a   3.39822018
_cell_length_b   5.85128628
_cell_length_c   9.77047035
_cell_angle_alpha   90.00000000
_cell_angle_beta   90.00000000
_cell_angle_gamma   90.00000000
_symmetry_Int_Tables_number   1
_chemical_formula_structural   Ca2PbO4
_chemical_formula_sum   'Ca4 Pb2 O8'
_cell_volume   194.27563298
_cell_formula_units_Z   2
loop_
 _symmetry_equiv_pos_site_id
 _symmetry_equiv_pos_as_xyz
  1  'x, y, z'
loop_
 _atom_site_type_symbol
 _atom_site_label
 _atom_site_symmetry_multiplicity
 _atom_site_fract_x
 _atom_site_fract_y
 _atom_site_fract_z
 _atom_site_occupancy
  Ca  Ca0  1  0.50000000  0.42735853  0.81815432  1
  Ca  Ca1  1  0.50000000  0.57264147  0.18184568  1
  Ca  Ca2  1  0.50000000  0.92735853  0.68184568  1
  Ca  Ca3  1  0.50000000  0.07264147  0.31815432  1
  Pb  Pb4  1  0.00000000  0.50000000  0.50000000  1
  Pb  Pb5  1  -0.00000000  0.00000000  0.00000000  1
  O  O6  1  0.00000000  0.14029697  0.79924152  1
  O  O7  1  -0.00000000  0.85970303  0.20075848  1
  O  O8  1  0.00000000  0.64029697  0.70075848  1
  O  O9  1  -0.00000000  0.35970303  0.29924152  1
  O  O10  1  0.50000000  0.26068974  0.54823361  1
  O  O11  1  0.50000000  0.73931026  0.45176639  1
  O  O12  1  0.50000000  0.23931026  0.04823361  1
  O  O13  1  0.50000000  0.76068974  0.95176639  1
