# generated using pymatgen
data_Na7Al3ZnSi3(SO8)3
_symmetry_space_group_name_H-M   'P 1'
_cell_length_a   8.87204138
_cell_length_b   8.81116482
_cell_length_c   21.69172858
_cell_angle_alpha   90.80313931
_cell_angle_beta   90.20921436
_cell_angle_gamma   119.68887329
_symmetry_Int_Tables_number   1
_chemical_formula_structural   Na7Al3ZnSi3(SO8)3
_chemical_formula_sum   'Na21 Al9 Zn3 Si9 S9 O72'
_cell_volume   1472.85418446
_cell_formula_units_Z   3
loop_
 _symmetry_equiv_pos_site_id
 _symmetry_equiv_pos_as_xyz
  1  'x, y, z'
loop_
 _atom_site_type_symbol
 _atom_site_label
 _atom_site_symmetry_multiplicity
 _atom_site_fract_x
 _atom_site_fract_y
 _atom_site_fract_z
 _atom_site_occupancy
  Na  Na0  1  0.63733849  0.99885694  0.24289435  1
  Na  Na1  1  0.37900255  0.37198623  0.24172708  1
  Na  Na2  1  0.98198900  0.63202513  0.25411560  1
  Na  Na3  1  0.62507377  0.62535700  0.74190443  1
  Na  Na4  1  0.99376268  0.35457287  0.74953350  1
  Na  Na5  1  0.38535905  0.01611573  0.75602014  1
  Na  Na6  1  0.01952967  0.69378589  0.57626453  1
  Na  Na7  1  0.66521562  0.96071065  0.58397684  1
  Na  Na8  1  0.31622068  0.98175705  0.08108131  1
  Na  Na9  1  0.65430125  0.68962971  0.08938553  1
  Na  Na10  1  0.69391314  0.03384778  0.91576498  1
  Na  Na11  1  0.33167751  0.29049311  0.91678132  1
  Na  Na12  1  0.96478737  0.29778097  0.41265870  1
  Na  Na13  1  0.33252762  0.02589928  0.41551945  1
  Na  Na14  1  0.72179699  0.68481481  0.41651211  1
  Na  Na15  1  0.99443500  0.99289737  0.49897037  1
  Na  Na16  1  0.00774661  0.00706609  0.00200915  1
  Na  Na17  1  0.66085612  0.32714632  0.83239899  1
  Na  Na18  1  0.67544007  0.34519727  0.33118361  1
  Na  Na19  1  0.34008829  0.65565430  0.16119530  1
  Na  Na20  1  0.34951091  0.64808294  0.66582739  1
  Al  Al21  1  0.01558466  0.00870405  0.85034774  1
  Al  Al22  1  0.98453910  0.99908753  0.65123238  1
  Al  Al23  1  0.98178493  0.00772642  0.14344535  1
  Al  Al24  1  0.63235730  0.29671618  0.98688622  1
  Al  Al25  1  0.69186605  0.35472970  0.47843131  1
  Al  Al26  1  0.33064749  0.67473982  0.02024558  1
  Al  Al27  1  0.35298080  0.67656518  0.51575259  1
  Al  Al28  1  0.34853949  0.68628367  0.31755140  1
  Al  Al29  1  0.34969572  0.67676772  0.81191213  1
  Zn  Zn30  1  0.97972954  0.97423923  0.35535239  1
  Zn  Zn31  1  0.64460285  0.33033959  0.68629755  1
  Zn  Zn32  1  0.64963091  0.33773195  0.17179060  1
  Si  Si33  1  0.70113717  0.70166568  0.24939927  1
  Si  Si34  1  0.28114294  0.28989157  0.75191672  1
  Si  Si35  1  0.71256148  0.99690400  0.75328242  1
  Si  Si36  1  0.66372088  0.62753771  0.58334143  1
  Si  Si37  1  0.66708356  0.03816238  0.08255258  1
  Si  Si38  1  0.35323967  0.33410480  0.08170067  1
  Si  Si39  1  0.32137083  0.94746181  0.91639002  1
  Si  Si40  1  0.62527685  0.96990686  0.41945935  1
  Si  Si41  1  0.05534635  0.66347469  0.41823990  1
  S  S42  1  0.28609963  0.99343381  0.25187227  1
  S  S43  1  0.00904941  0.29566319  0.25149130  1
  S  S44  1  0.00762147  0.71902591  0.75075162  1
  S  S45  1  0.96694206  0.33488603  0.58311067  1
  S  S46  1  0.36777125  0.03730279  0.58214660  1
  S  S47  1  0.95878710  0.62001903  0.08150765  1
  S  S48  1  0.62735395  0.66538416  0.91679391  1
  S  S49  1  0.04387813  0.38622945  0.91564966  1
  S  S50  1  0.34090278  0.38610915  0.41690169  1
  O  O51  1  0.21114376  0.02442115  0.30832616  1
  O  O52  1  0.81250348  0.76941534  0.31317165  1
  O  O53  1  0.99153727  0.19910020  0.30867243  1
  O  O54  1  0.19978544  0.17310930  0.81329848  1
  O  O55  1  0.98101203  0.80621545  0.80500413  1
  O  O56  1  0.83468515  0.01901793  0.81388511  1
  O  O57  1  0.79166193  0.95869250  0.69025905  1
  O  O58  1  0.15228774  0.18931119  0.69240150  1
  O  O59  1  0.03213261  0.82163687  0.69338203  1
  O  O60  1  0.80271758  0.83622572  0.19149330  1
  O  O61  1  0.03184767  0.20357749  0.19689056  1
  O  O62  1  0.18035633  0.97422320  0.19595399  1
  O  O63  1  0.89238177  0.36596480  0.63932875  1
  O  O64  1  0.47559599  0.10572840  0.63895493  1
  O  O65  1  0.64076945  0.52496552  0.64650741  1
  O  O66  1  0.89712458  0.52892445  0.14048390  1
  O  O67  1  0.62781882  0.11690281  0.14504954  1
  O  O68  1  0.47833540  0.39893422  0.14277980  1
  O  O69  1  0.45247481  0.29355746  0.02408394  1
  O  O70  1  0.83572452  0.52712825  0.02943502  1
  O  O71  1  0.69692146  0.15955995  0.02223335  1
  O  O72  1  0.45475747  0.14507550  0.52793147  1
  O  O73  1  0.70047952  0.53012892  0.52390643  1
  O  O74  1  0.85000796  0.30555284  0.52789660  1
  O  O75  1  0.54290057  0.69454699  0.97117355  1
  O  O76  1  0.16013949  0.47306436  0.96909405  1
  O  O77  1  0.30419609  0.83496110  0.97719466  1
  O  O78  1  0.53662392  0.84006275  0.47692359  1
  O  O79  1  0.31369171  0.46938770  0.47196592  1
  O  O80  1  0.16975010  0.67639310  0.47912103  1
  O  O81  1  0.14333297  0.62967767  0.35603667  1
  O  O82  1  0.50399642  0.88441966  0.35703237  1
  O  O83  1  0.36868060  0.49238637  0.36033954  1
  O  O84  1  0.12596603  0.48225825  0.85818652  1
  O  O85  1  0.36083427  0.85664510  0.85644287  1
  O  O86  1  0.51480835  0.63139297  0.86013384  1
  O  O87  1  0.04051685  0.84115880  0.41945801  1
  O  O88  1  0.82264300  0.00202200  0.41691905  1
  O  O89  1  0.18669169  0.21047816  0.41167829  1
  O  O90  1  0.02225503  0.20380714  0.91401625  1
  O  O91  1  0.15193377  0.97916112  0.91036718  1
  O  O92  1  0.79943119  0.82547535  0.91113445  1
  O  O93  1  0.97655061  0.17020679  0.58561698  1
  O  O94  1  0.19202449  0.01858880  0.58767346  1
  O  O95  1  0.84766735  0.82720407  0.58825232  1
  O  O96  1  0.97846047  0.80008705  0.08580454  1
  O  O97  1  0.83367237  0.00601230  0.08622689  1
  O  O98  1  0.17376313  0.14683465  0.09391383  1
  O  O99  1  0.69653868  0.17398778  0.74863730  1
  O  O100  1  0.47730127  0.31800773  0.75093177  1
  O  O101  1  0.85532037  0.54192886  0.74780999  1
  O  O102  1  0.67969843  0.50518275  0.24331815  1
  O  O103  1  0.85370141  0.31554195  0.24581618  1
  O  O104  1  0.46573454  0.14185905  0.24896641  1
  O  O105  1  0.64570124  0.50720482  0.92283937  1
  O  O106  1  0.86875458  0.36759519  0.92061226  1
  O  O107  1  0.50317070  0.14907448  0.92122002  1
  O  O108  1  0.63393461  0.16150581  0.42890816  1
  O  O109  1  0.49902131  0.36760383  0.42259611  1
  O  O110  1  0.85597779  0.49144639  0.42153561  1
  O  O111  1  0.33507665  0.50473786  0.06612538  1
  O  O112  1  0.13582125  0.64459270  0.07295759  1
  O  O113  1  0.49073720  0.84211516  0.07461668  1
  O  O114  1  0.34366743  0.85483348  0.57614767  1
  O  O115  1  0.49309093  0.65553144  0.57455448  1
  O  O116  1  0.14130467  0.48936670  0.57536344  1
  O  O117  1  0.29242025  0.82437113  0.25428556  1
  O  O118  1  0.50512503  0.68835500  0.25698547  1
  O  O119  1  0.17003216  0.47238734  0.25267294  1
  O  O120  1  0.29644101  0.48641596  0.75908517  1
  O  O121  1  0.16722738  0.70332021  0.75582407  1
  O  O122  1  0.51642416  0.82162819  0.75734416  1
