# generated using pymatgen
data_NbCl5
_symmetry_space_group_name_H-M   'P 1'
_cell_length_a   6.00715078
_cell_length_b   13.13455321
_cell_length_c   13.13455189
_cell_angle_alpha   87.57410888
_cell_angle_beta   89.66342487
_cell_angle_gamma   89.66341662
_symmetry_Int_Tables_number   1
_chemical_formula_structural   NbCl5
_chemical_formula_sum   'Nb6 Cl30'
_cell_volume   1035.36941554
_cell_formula_units_Z   6
loop_
 _symmetry_equiv_pos_site_id
 _symmetry_equiv_pos_as_xyz
  1  'x, y, z'
loop_
 _atom_site_type_symbol
 _atom_site_label
 _atom_site_symmetry_multiplicity
 _atom_site_fract_x
 _atom_site_fract_y
 _atom_site_fract_z
 _atom_site_occupancy
  Nb  Nb0  1  0.47739336  0.22337558  0.44320768  1
  Nb  Nb1  1  0.52260664  0.55679232  0.77662442  1
  Nb  Nb2  1  0.52260664  0.77662442  0.55679232  1
  Nb  Nb3  1  0.47739336  0.44320768  0.22337558  1
  Nb  Nb4  1  -0.00000000  0.89006307  0.10993693  1
  Nb  Nb5  1  0.00000000  0.10993693  0.89006307  1
  Cl  Cl6  1  0.24847733  0.33513034  0.52917637  1
  Cl  Cl7  1  0.75152267  0.47082363  0.66486966  1
  Cl  Cl8  1  0.75152267  0.66486966  0.47082363  1
  Cl  Cl9  1  0.24847733  0.52917637  0.33513034  1
  Cl  Cl10  1  0.71507778  0.19919739  0.57693888  1
  Cl  Cl11  1  0.28492222  0.42306112  0.80080261  1
  Cl  Cl12  1  0.75985352  0.24360829  0.86558403  1
  Cl  Cl13  1  0.24014648  0.13441597  0.75639171  1
  Cl  Cl14  1  0.24014648  0.75639171  0.13441597  1
  Cl  Cl15  1  0.75985352  0.86558403  0.24360829  1
  Cl  Cl16  1  0.22272370  0.19602453  0.00213428  1
  Cl  Cl17  1  0.77727630  0.99786572  0.80397547  1
  Cl  Cl18  1  0.77727630  0.80397547  0.99786572  1
  Cl  Cl19  1  0.22272370  0.00213428  0.19602453  1
  Cl  Cl20  1  0.77913172  0.05031904  0.05031904  1
  Cl  Cl21  1  0.22086828  0.94968096  0.94968096  1
  Cl  Cl22  1  0.25976493  0.28296917  0.28296917  1
  Cl  Cl23  1  0.74023507  0.71703083  0.71703083  1
  Cl  Cl24  1  0.23989380  0.46743318  0.08953924  1
  Cl  Cl25  1  0.76010520  0.91046076  0.53256682  1
  Cl  Cl26  1  0.76010520  0.53256682  0.91046076  1
  Cl  Cl27  1  0.23989380  0.08953924  0.46743318  1
  Cl  Cl28  1  0.70586039  0.33122808  0.13741206  1
  Cl  Cl29  1  0.29413961  0.86258794  0.66877192  1
  Cl  Cl30  1  0.29413961  0.66877192  0.86258794  1
  Cl  Cl31  1  0.70586039  0.13741206  0.33122808  1
  Cl  Cl32  1  0.69455627  0.38379269  0.38379269  1
  Cl  Cl33  1  0.30544373  0.61620731  0.61620731  1
  Cl  Cl34  1  0.71507778  0.57693888  0.19919739  1
  Cl  Cl35  1  0.28492222  0.80080261  0.42306112  1
