# generated using pymatgen
data_Na3ZrZn(PO4)3
_symmetry_space_group_name_H-M   'P 1'
_cell_length_a   9.09543083
_cell_length_b   9.08149388
_cell_length_c   22.33817424
_cell_angle_alpha   90.00000000
_cell_angle_beta   90.15863743
_cell_angle_gamma   119.94932705
_symmetry_Int_Tables_number   1
_chemical_formula_structural   Na3ZrZn(PO4)3
_chemical_formula_sum   'Na18 Zr6 Zn6 P18 O72'
_cell_volume   1598.74128078
_cell_formula_units_Z   6
loop_
 _symmetry_equiv_pos_site_id
 _symmetry_equiv_pos_as_xyz
  1  'x, y, z'
loop_
 _atom_site_type_symbol
 _atom_site_label
 _atom_site_symmetry_multiplicity
 _atom_site_fract_x
 _atom_site_fract_y
 _atom_site_fract_z
 _atom_site_occupancy
  Na  Na0  1  0.98168982  0.96602847  0.49024653  1
  Na  Na1  1  0.98168982  0.01566135  0.99024653  1
  Na  Na2  1  0.66630047  0.33863965  0.82341254  1
  Na  Na3  1  0.66630047  0.32765982  0.32341254  1
  Na  Na4  1  0.32741453  0.66062493  0.15676656  1
  Na  Na5  1  0.32741453  0.66679060  0.65676656  1
  Na  Na6  1  0.37383792  0.36107791  0.24416734  1
  Na  Na7  1  0.98678767  0.63137133  0.24452724  1
  Na  Na8  1  0.98678767  0.35541634  0.74452724  1
  Na  Na9  1  0.37383792  0.01276000  0.74416734  1
  Na  Na10  1  0.30868832  0.34611016  0.57746338  1
  Na  Na11  1  0.65531775  0.96248246  0.57787955  1
  Na  Na12  1  0.30868832  0.96257717  0.07746338  1
  Na  Na13  1  0.65531775  0.69283428  0.07787955  1
  Na  Na14  1  0.97776939  0.68288696  0.91048381  1
  Na  Na15  1  0.32107448  0.29368528  0.91155643  1
  Na  Na16  1  0.97776939  0.29488343  0.41048381  1
  Na  Na17  1  0.32107448  0.02739020  0.41155643  1
  Zr  Zr18  1  0.99722210  0.99233863  0.64825373  1
  Zr  Zr19  1  0.99722210  0.00488346  0.14825373  1
  Zr  Zr20  1  0.67168271  0.32762542  0.98140570  1
  Zr  Zr21  1  0.67168271  0.34405629  0.48140570  1
  Zr  Zr22  1  0.34262235  0.67295351  0.31488749  1
  Zr  Zr23  1  0.34262235  0.66966984  0.81488749  1
  Zn  Zn24  1  0.99003346  0.99376503  0.34754163  1
  Zn  Zn25  1  0.99003346  0.99626842  0.84754163  1
  Zn  Zn26  1  0.67062155  0.34334614  0.68089802  1
  Zn  Zn27  1  0.67062155  0.32727441  0.18089802  1
  Zn  Zn28  1  0.33049227  0.66149659  0.01454963  1
  Zn  Zn29  1  0.33049227  0.66899668  0.51454963  1
  P  P30  1  0.29697925  0.00323992  0.25249621  1
  P  P31  1  0.70574107  0.70228676  0.24979943  1
  P  P32  1  0.99826211  0.29763802  0.25543299  1
  P  P33  1  0.29697925  0.29373932  0.75249621  1
  P  P34  1  0.99826211  0.70062410  0.75543299  1
  P  P35  1  0.70574107  0.00345431  0.74979943  1
  P  P36  1  0.96602139  0.33593314  0.58651990  1
  P  P37  1  0.37287443  0.03750155  0.58576446  1
  P  P38  1  0.66178643  0.62813382  0.58575238  1
  P  P39  1  0.96602139  0.63008725  0.08651990  1
  P  P40  1  0.66178643  0.03365162  0.08575238  1
  P  P41  1  0.37287443  0.33537188  0.08576446  1
  P  P42  1  0.63417942  0.67062845  0.92230394  1
  P  P43  1  0.04154664  0.37105897  0.91606472  1
  P  P44  1  0.33242621  0.96347533  0.91925468  1
  P  P45  1  0.63417942  0.96355197  0.42230394  1
  P  P46  1  0.33242621  0.36895188  0.41925468  1
  P  P47  1  0.04154664  0.67048867  0.41606472  1
  O  O48  1  0.21386712  0.02426789  0.30892347  1
  O  O49  1  0.81802317  0.79023329  0.30320772  1
  O  O50  1  0.98469298  0.20505921  0.31386765  1
  O  O51  1  0.21386712  0.18959922  0.80892347  1
  O  O52  1  0.98469298  0.77963376  0.81386765  1
  O  O53  1  0.81802317  0.02778989  0.80320772  1
  O  O54  1  0.78793646  0.98247035  0.69104042  1
  O  O55  1  0.17928970  0.20201115  0.69666401  1
  O  O56  1  0.01758412  0.82054543  0.70171258  1
  O  O57  1  0.78793646  0.80546611  0.19104042  1
  O  O58  1  0.01758412  0.19703869  0.20171258  1
  O  O59  1  0.17928970  0.97727855  0.19666401  1
  O  O60  1  0.88308847  0.34932899  0.64394771  1
  O  O61  1  0.47604560  0.12007342  0.64264393  1
  O  O62  1  0.63761462  0.51964560  0.64046115  1
  O  O63  1  0.88308847  0.53375848  0.14394771  1
  O  O64  1  0.63761462  0.11796802  0.14046115  1
  O  O65  1  0.47604560  0.35597118  0.14264393  1
  O  O66  1  0.46586374  0.31001840  0.03054300  1
  O  O67  1  0.85136813  0.53580761  0.03065872  1
  O  O68  1  0.68257979  0.14191294  0.02848324  1
  O  O69  1  0.46586374  0.15584434  0.53054300  1
  O  O70  1  0.68257979  0.54066585  0.52848324  1
  O  O71  1  0.85136813  0.31555952  0.53065872  1
  O  O72  1  0.55601240  0.68541337  0.98065981  1
  O  O73  1  0.15411410  0.45837740  0.97005631  1
  O  O74  1  0.31517070  0.86084623  0.97577774  1
  O  O75  1  0.55601240  0.87060003  0.48065981  1
  O  O76  1  0.31517070  0.45432547  0.47577774  1
  O  O77  1  0.15411410  0.69573770  0.47005631  1
  O  O78  1  0.12563270  0.64386600  0.35835301  1
  O  O79  1  0.51252225  0.86534242  0.36845289  1
  O  O80  1  0.34886360  0.47776447  0.36252618  1
  O  O81  1  0.12563270  0.48176770  0.85835301  1
  O  O82  1  0.34886360  0.87110013  0.86252618  1
  O  O83  1  0.51252225  0.64718084  0.86845289  1
  O  O84  1  0.01707665  0.82446102  0.40985265  1
  O  O85  1  0.81403290  0.99452384  0.41415087  1
  O  O86  1  0.17624612  0.18884838  0.41469431  1
  O  O87  1  0.01707665  0.19261564  0.90985265  1
  O  O88  1  0.17624612  0.98739773  0.91469431  1
  O  O89  1  0.81403290  0.81950907  0.91415087  1
  O  O90  1  0.97371014  0.16480297  0.58682014  1
  O  O91  1  0.19603092  0.02937759  0.58819660  1
  O  O92  1  0.82507449  0.80842986  0.58796137  1
  O  O93  1  0.97371014  0.80890717  0.08682014  1
  O  O94  1  0.82507449  0.01664463  0.08796137  1
  O  O95  1  0.19603092  0.16665333  0.08819660  1
  O  O96  1  0.67868604  0.15820675  0.74540123  1
  O  O97  1  0.47303999  0.31310481  0.74557347  1
  O  O98  1  0.85062536  0.51899352  0.74780497  1
  O  O99  1  0.67868604  0.52047829  0.24540123  1
  O  O100  1  0.85062536  0.33163084  0.24780497  1
  O  O101  1  0.47303999  0.15993418  0.24557347  1
  O  O102  1  0.64190877  0.49976167  0.92164649  1
  O  O103  1  0.86663136  0.36675938  0.92067653  1
  O  O104  1  0.49372242  0.14585591  0.92021876  1
  O  O105  1  0.64190877  0.14214610  0.42164649  1
  O  O106  1  0.49372242  0.34786551  0.42021876  1
  O  O107  1  0.86663136  0.49987098  0.42067653  1
  O  O108  1  0.35184872  0.49145584  0.07884346  1
  O  O109  1  0.14751513  0.66377627  0.08030604  1
  O  O110  1  0.50700447  0.85306393  0.07983423  1
  O  O111  1  0.35184872  0.86039388  0.57884346  1
  O  O112  1  0.50700447  0.65394154  0.57983423  1
  O  O113  1  0.14751513  0.48373986  0.58030604  1
  O  O114  1  0.30542941  0.83464197  0.25466845  1
  O  O115  1  0.52428844  0.68342372  0.25401079  1
  O  O116  1  0.17018725  0.47481513  0.25393181  1
  O  O117  1  0.30542941  0.47078844  0.75466845  1
  O  O118  1  0.17018725  0.69537312  0.75393181  1
  O  O119  1  0.52428844  0.84086573  0.75401079  1
