# generated using pymatgen
data_Na6ZnSi2Sn3(PO6)4
_symmetry_space_group_name_H-M   'P 1'
_cell_length_a   9.01857548
_cell_length_b   9.01620116
_cell_length_c   22.32452028
_cell_angle_alpha   90.23413802
_cell_angle_beta   89.85940365
_cell_angle_gamma   119.98052693
_symmetry_Int_Tables_number   1
_chemical_formula_structural   Na6ZnSi2Sn3(PO6)4
_chemical_formula_sum   'Na18 Zn3 Si6 Sn9 P12 O72'
_cell_volume   1572.37385522
_cell_formula_units_Z   3
loop_
 _symmetry_equiv_pos_site_id
 _symmetry_equiv_pos_as_xyz
  1  'x, y, z'
loop_
 _atom_site_type_symbol
 _atom_site_label
 _atom_site_symmetry_multiplicity
 _atom_site_fract_x
 _atom_site_fract_y
 _atom_site_fract_z
 _atom_site_occupancy
  Na  Na0  1  0.00171854  0.99527520  0.49930213  1
  Na  Na1  1  0.00061903  0.99675082  0.99779911  1
  Na  Na2  1  0.65233292  0.30612618  0.83141433  1
  Na  Na3  1  0.65200163  0.33182623  0.32301125  1
  Na  Na4  1  0.32867501  0.66728621  0.16337298  1
  Na  Na5  1  0.32662412  0.66603698  0.66539966  1
  Na  Na6  1  0.64049897  0.01490206  0.24397221  1
  Na  Na7  1  0.98678276  0.62399589  0.24029387  1
  Na  Na8  1  0.63311991  0.61648650  0.74357364  1
  Na  Na9  1  0.98810965  0.36654680  0.74726774  1
  Na  Na10  1  0.66602733  0.97012337  0.58651043  1
  Na  Na11  1  0.66691018  0.68908754  0.07939737  1
  Na  Na12  1  0.02525021  0.33738770  0.08359178  1
  Na  Na13  1  0.96860088  0.66838181  0.91964596  1
  Na  Na14  1  0.33518396  0.30364027  0.91778661  1
  Na  Na15  1  0.96425781  0.28275795  0.41198336  1
  Na  Na16  1  0.32573233  0.03182287  0.41051621  1
  Na  Na17  1  0.71505958  0.68505418  0.41632503  1
  Zn  Zn18  1  0.99606962  0.99948019  0.34764597  1
  Zn  Zn19  1  0.65575426  0.33110328  0.68000217  1
  Zn  Zn20  1  0.66448504  0.33702388  0.17834165  1
  Si  Si21  1  0.66801077  0.63028263  0.58642272  1
  Si  Si22  1  0.96546827  0.63067974  0.08606016  1
  Si  Si23  1  0.62549060  0.66723077  0.91676791  1
  Si  Si24  1  0.03915815  0.37343408  0.91619866  1
  Si  Si25  1  0.33635101  0.96312385  0.91553751  1
  Si  Si26  1  0.62873643  0.96497906  0.41792780  1
  Sn  Sn27  1  0.99651191  0.00019772  0.85380073  1
  Sn  Sn28  1  0.00428472  0.99639467  0.64663345  1
  Sn  Sn29  1  0.00795251  0.00170254  0.15025119  1
  Sn  Sn30  1  0.66746107  0.33241976  0.98148885  1
  Sn  Sn31  1  0.66686542  0.33512994  0.48637900  1
  Sn  Sn32  1  0.33184386  0.67345055  0.01659452  1
  Sn  Sn33  1  0.33625673  0.66341010  0.52127387  1
  Sn  Sn34  1  0.33674629  0.66773598  0.31492229  1
  Sn  Sn35  1  0.33579078  0.67380914  0.81612017  1
  P  P36  1  0.29575751  0.99898429  0.25464482  1
  P  P37  1  0.70252472  0.70377441  0.25197318  1
  P  P38  1  0.00459863  0.29817813  0.25269380  1
  P  P39  1  0.29090945  0.29281664  0.75118797  1
  P  P40  1  0.00587060  0.70757882  0.75091281  1
  P  P41  1  0.70466065  0.99837657  0.74828660  1
  P  P42  1  0.96456074  0.33423829  0.58599848  1
  P  P43  1  0.37085559  0.03842039  0.58282908  1
  P  P44  1  0.66639280  0.03805301  0.08763685  1
  P  P45  1  0.37081589  0.33354310  0.08359784  1
  P  P46  1  0.33658838  0.37527812  0.41728425  1
  P  P47  1  0.04112095  0.66087470  0.41746491  1
  O  O48  1  0.21435603  0.01461342  0.31289239  1
  O  O49  1  0.80625950  0.78435825  0.30933326  1
  O  O50  1  0.98708426  0.19493571  0.30902242  1
  O  O51  1  0.20640455  0.19187487  0.80919955  1
  O  O52  1  0.98056704  0.79204532  0.80798157  1
  O  O53  1  0.82274340  0.02687750  0.80275492  1
  O  O54  1  0.78565391  0.96636922  0.69062639  1
  O  O55  1  0.16955856  0.20575451  0.69656300  1
  O  O56  1  0.03330801  0.82085889  0.69528713  1
  O  O57  1  0.78668205  0.82272737  0.19577444  1
  O  O58  1  0.02827966  0.21530806  0.19401678  1
  O  O59  1  0.17509536  0.96330332  0.19953080  1
  O  O60  1  0.88294928  0.35530310  0.64209805  1
  O  O61  1  0.49341621  0.12023912  0.63433818  1
  O  O62  1  0.64436489  0.52474652  0.64594981  1
  O  O63  1  0.88767432  0.51548553  0.14528201  1
  O  O64  1  0.64066194  0.11104309  0.14597081  1
  O  O65  1  0.48349882  0.36152831  0.13787715  1
  O  O66  1  0.44257033  0.30296478  0.02463189  1
  O  O67  1  0.84147165  0.54684760  0.02656243  1
  O  O68  1  0.69819576  0.15440177  0.03275853  1
  O  O69  1  0.44294078  0.13677409  0.52201141  1
  O  O70  1  0.69446472  0.54958632  0.52282277  1
  O  O71  1  0.85121915  0.29726789  0.52760703  1
  O  O72  1  0.54508574  0.69864734  0.97786840  1
  O  O73  1  0.16116798  0.45287564  0.97548710  1
  O  O74  1  0.28306530  0.83487052  0.97264991  1
  O  O75  1  0.54029212  0.84230657  0.47593190  1
  O  O76  1  0.29650779  0.45434006  0.47197651  1
  O  O77  1  0.15869619  0.68877582  0.47102945  1
  O  O78  1  0.11434354  0.62205726  0.35939400  1
  O  O79  1  0.50374172  0.88518151  0.35827401  1
  O  O80  1  0.37503981  0.49300965  0.36155979  1
  O  O81  1  0.11820221  0.49306890  0.85617132  1
  O  O82  1  0.37695627  0.88745870  0.85568772  1
  O  O83  1  0.50627611  0.62590884  0.85682816  1
  O  O84  1  0.02245917  0.82025486  0.41359937  1
  O  O85  1  0.81777191  0.98572083  0.41325679  1
  O  O86  1  0.18217575  0.19452965  0.41151639  1
  O  O87  1  0.02823553  0.18801241  0.91151673  1
  O  O88  1  0.16431462  0.98177164  0.91030771  1
  O  O89  1  0.81980121  0.82980158  0.91189435  1
  O  O90  1  0.98320252  0.17039656  0.58757675  1
  O  O91  1  0.19278871  0.02465197  0.58770109  1
  O  O92  1  0.83593038  0.82887678  0.58589462  1
  O  O93  1  0.97447413  0.81924717  0.08951117  1
  O  O94  1  0.83545824  0.02532011  0.08984436  1
  O  O95  1  0.18279169  0.17947493  0.08886492  1
  O  O96  1  0.68919426  0.15840496  0.74417568  1
  O  O97  1  0.47004361  0.31671404  0.74718662  1
  O  O98  1  0.84634112  0.52888135  0.74782318  1
  O  O99  1  0.68393761  0.52733712  0.24458317  1
  O  O100  1  0.84447078  0.31691041  0.24869334  1
  O  O101  1  0.47686780  0.14870212  0.24701122  1
  O  O102  1  0.64093473  0.49383562  0.92177976  1
  O  O103  1  0.85430078  0.36252185  0.92252399  1
  O  O104  1  0.49847844  0.15532221  0.92355375  1
  O  O105  1  0.64291064  0.15594290  0.42299026  1
  O  O106  1  0.50503295  0.36675517  0.42249020  1
  O  O107  1  0.86113319  0.49631568  0.42290546  1
  O  O108  1  0.35505980  0.49876604  0.07934709  1
  O  O109  1  0.15346425  0.64288585  0.07962771  1
  O  O110  1  0.51495668  0.85143818  0.08010785  1
  O  O111  1  0.34621925  0.85484868  0.57718000  1
  O  O112  1  0.50054047  0.66058877  0.58196987  1
  O  O113  1  0.14243739  0.49623495  0.57783930  1
  O  O114  1  0.30257927  0.82483363  0.25364616  1
  O  O115  1  0.52504267  0.69887533  0.25354577  1
  O  O116  1  0.16725507  0.48341053  0.25368942  1
  O  O117  1  0.30130295  0.47350432  0.75247115  1
  O  O118  1  0.16876607  0.68754104  0.75229110  1
  O  O119  1  0.53119919  0.82519647  0.75262383  1
