# generated using pymatgen
data_MgCd2(CoO3)2
_symmetry_space_group_name_H-M   'P 1'
_cell_length_a   5.78382593
_cell_length_b   5.77647529
_cell_length_c   5.77993363
_cell_angle_alpha   55.18188372
_cell_angle_beta   55.13841479
_cell_angle_gamma   55.14871863
_symmetry_Int_Tables_number   1
_chemical_formula_structural   MgCd2(CoO3)2
_chemical_formula_sum   'Mg1 Cd2 Co2 O6'
_cell_volume   121.16945109
_cell_formula_units_Z   1
loop_
 _symmetry_equiv_pos_site_id
 _symmetry_equiv_pos_as_xyz
  1  'x, y, z'
loop_
 _atom_site_type_symbol
 _atom_site_label
 _atom_site_symmetry_multiplicity
 _atom_site_fract_x
 _atom_site_fract_y
 _atom_site_fract_z
 _atom_site_occupancy
  Mg  Mg0  1  0.79825294  0.79911685  0.79812703  1
  Cd  Cd1  1  0.35009404  0.35083306  0.34960044  1
  Cd  Cd2  1  0.58362092  0.58431358  0.58259644  1
  Co  Co3  1  0.15085000  0.15189891  0.15110480  1
  Co  Co4  1  0.97703345  0.97821964  0.97735236  1
  O  O5  1  0.02414494  0.81338158  0.35229416  1
  O  O6  1  0.57002190  0.95096035  0.16017020  1
  O  O7  1  0.16097058  0.57074594  0.94930560  1
  O  O8  1  0.81220376  0.35340470  0.02510988  1
  O  O9  1  0.35168485  0.02542669  0.81254230  1
  O  O10  1  0.95028962  0.16128270  0.57096379  1
