# generated using pymatgen
data_Na15Ca10Nb2P9(SO8)9
_symmetry_space_group_name_H-M   'P 1'
_cell_length_a   9.33558580
_cell_length_b   9.29749527
_cell_length_c   23.30235750
_cell_angle_alpha   89.94258202
_cell_angle_beta   89.81929110
_cell_angle_gamma   119.83958754
_symmetry_Int_Tables_number   1
_chemical_formula_structural   Na15Ca10Nb2P9(SO8)9
_chemical_formula_sum   'Na15 Ca10 Nb2 P9 S9 O72'
_cell_volume   1754.42053243
_cell_formula_units_Z   1
loop_
 _symmetry_equiv_pos_site_id
 _symmetry_equiv_pos_as_xyz
  1  'x, y, z'
loop_
 _atom_site_type_symbol
 _atom_site_label
 _atom_site_symmetry_multiplicity
 _atom_site_fract_x
 _atom_site_fract_y
 _atom_site_fract_z
 _atom_site_occupancy
  Na  Na0  1  0.98730751  0.33542925  0.75146552  1
  Na  Na1  1  0.30205056  0.33373822  0.58566308  1
  Na  Na2  1  0.66659168  0.96829764  0.58931549  1
  Na  Na3  1  0.30184508  0.96903956  0.08723516  1
  Na  Na4  1  0.66837807  0.69715622  0.09214635  1
  Na  Na5  1  0.97366509  0.67313122  0.90795505  1
  Na  Na6  1  0.32341806  0.28710588  0.90722961  1
  Na  Na7  1  0.33435228  0.04422908  0.40457871  1
  Na  Na8  1  0.69958993  0.67014365  0.40813528  1
  Na  Na9  1  0.99993924  0.01355645  0.49454181  1
  Na  Na10  1  0.99279445  0.02857097  0.99518326  1
  Na  Na11  1  0.65087632  0.30769068  0.82585996  1
  Na  Na12  1  0.66043785  0.32558477  0.32499228  1
  Na  Na13  1  0.31375323  0.65316082  0.17054074  1
  Na  Na14  1  0.33496251  0.68160127  0.67003214  1
  Ca  Ca15  1  0.00070165  0.00950262  0.34549578  1
  Ca  Ca16  1  0.99608867  0.99811778  0.84539842  1
  Ca  Ca17  1  0.99668463  0.98885358  0.66116662  1
  Ca  Ca18  1  0.00247885  0.00138097  0.16156095  1
  Ca  Ca19  1  0.66421338  0.34118166  0.68699404  1
  Ca  Ca20  1  0.66567003  0.32975331  0.18772779  1
  Ca  Ca21  1  0.67401328  0.31826365  0.97729346  1
  Ca  Ca22  1  0.67360114  0.33282086  0.47810953  1
  Ca  Ca23  1  0.32760255  0.66436759  0.01572762  1
  Ca  Ca24  1  0.32375434  0.66145917  0.51495948  1
  Nb  Nb25  1  0.34611255  0.66937980  0.31533671  1
  Nb  Nb26  1  0.33250266  0.67602573  0.81456764  1
  P  P27  1  0.30867210  0.99209065  0.25371084  1
  P  P28  1  0.69199517  0.69092012  0.25347299  1
  P  P29  1  0.30643218  0.31761901  0.75358211  1
  P  P30  1  0.00229287  0.68959950  0.75630054  1
  P  P31  1  0.68914853  0.99524877  0.74843718  1
  P  P32  1  0.04444634  0.37662006  0.91370249  1
  P  P33  1  0.33090665  0.96288749  0.91743150  1
  P  P34  1  0.62438265  0.95773004  0.41768958  1
  P  P35  1  0.33445508  0.37181524  0.41731832  1
  S  S36  1  0.01226759  0.32020901  0.25285719  1
  S  S37  1  0.96768087  0.32727988  0.58587141  1
  S  S38  1  0.36688120  0.03751727  0.58136635  1
  S  S39  1  0.66781829  0.63910236  0.57980958  1
  S  S40  1  0.96531069  0.63887974  0.08197351  1
  S  S41  1  0.66845317  0.02750584  0.08430139  1
  S  S42  1  0.36995079  0.33047003  0.08123306  1
  S  S43  1  0.62481409  0.66444126  0.91693698  1
  S  S44  1  0.04071252  0.66921473  0.41311991  1
  O  O45  1  0.22097752  0.01018493  0.30629321  1
  O  O46  1  0.79102608  0.78003404  0.30647135  1
  O  O47  1  0.99065046  0.21865673  0.30366745  1
  O  O48  1  0.22104590  0.21546902  0.80731262  1
  O  O49  1  0.97976863  0.76128248  0.81201879  1
  O  O50  1  0.81367688  0.02274899  0.79512210  1
  O  O51  1  0.73770017  0.95360824  0.69001899  1
  O  O52  1  0.19536676  0.25103644  0.69945932  1
  O  O53  1  0.03168486  0.79621187  0.70336648  1
  O  O54  1  0.75470264  0.79049908  0.19717000  1
  O  O55  1  0.04215913  0.25004570  0.20032478  1
  O  O56  1  0.21061086  0.95940316  0.19731430  1
  O  O57  1  0.88842239  0.33676232  0.63941509  1
  O  O58  1  0.47466352  0.12853709  0.63011523  1
  O  O59  1  0.65651038  0.53469633  0.62927806  1
  O  O60  1  0.87436593  0.53642139  0.13171142  1
  O  O61  1  0.65503282  0.11506955  0.13461146  1
  O  O62  1  0.47532509  0.34378429  0.13035174  1
  O  O63  1  0.44567183  0.31498656  0.02669544  1
  O  O64  1  0.87804289  0.56113927  0.02758006  1
  O  O65  1  0.68058348  0.11847352  0.03078181  1
  O  O66  1  0.44291454  0.12769661  0.52656405  1
  O  O67  1  0.67821158  0.56226317  0.52533094  1
  O  O68  1  0.86848568  0.31872443  0.53516216  1
  O  O69  1  0.55598631  0.67990466  0.97203774  1
  O  O70  1  0.14407201  0.45773756  0.96739840  1
  O  O71  1  0.32463945  0.87830833  0.97434681  1
  O  O72  1  0.54708836  0.86809449  0.47406890  1
  O  O73  1  0.32005168  0.44364818  0.47456558  1
  O  O74  1  0.12898214  0.68189407  0.46641556  1
  O  O75  1  0.13567844  0.65915498  0.36285569  1
  O  O76  1  0.50223753  0.84016118  0.36675658  1
  O  O77  1  0.33327374  0.49021298  0.36684678  1
  O  O78  1  0.15348107  0.49069570  0.86052658  1
  O  O79  1  0.33541948  0.84596817  0.86699172  1
  O  O80  1  0.51695746  0.65939128  0.86818128  1
  O  O81  1  0.02501102  0.82127958  0.40937076  1
  O  O82  1  0.79186536  0.96738687  0.41039843  1
  O  O83  1  0.19127113  0.19312069  0.41120945  1
  O  O84  1  0.02519065  0.20330460  0.90898230  1
  O  O85  1  0.17032999  0.97149997  0.91192177  1
  O  O86  1  0.79545615  0.80394950  0.91136128  1
  O  O87  1  0.98100789  0.17179545  0.58542375  1
  O  O88  1  0.20298396  0.02792752  0.58679218  1
  O  O89  1  0.81162015  0.81019254  0.58373647  1
  O  O90  1  0.97685165  0.80672977  0.08575901  1
  O  O91  1  0.81349537  0.00081946  0.08730252  1
  O  O92  1  0.20361260  0.17836100  0.08666764  1
  O  O93  1  0.66720250  0.14798029  0.74624272  1
  O  O94  1  0.48047029  0.34597096  0.74752465  1
  O  O95  1  0.86968285  0.50651065  0.74987417  1
  O  O96  1  0.65881328  0.51381474  0.24988322  1
  O  O97  1  0.87249891  0.34928965  0.24763013  1
  O  O98  1  0.48660827  0.13410652  0.25004036  1
  O  O99  1  0.62670560  0.50401875  0.91468492  1
  O  O100  1  0.88141893  0.38149710  0.91039599  1
  O  O101  1  0.48312804  0.13733165  0.91037508  1
  O  O102  1  0.62277378  0.12206608  0.41142787  1
  O  O103  1  0.50337512  0.37692101  0.41101472  1
  O  O104  1  0.87206368  0.52168569  0.41249757  1
  O  O105  1  0.35828936  0.48518400  0.08101688  1
  O  O106  1  0.13815774  0.66779036  0.08250488  1
  O  O107  1  0.51377589  0.85858641  0.08346296  1
  O  O108  1  0.35101657  0.86927504  0.58085666  1
  O  O109  1  0.51151046  0.65081166  0.58135115  1
  O  O110  1  0.13923435  0.47246295  0.58328210  1
  O  O111  1  0.32091576  0.82483389  0.26518246  1
  O  O112  1  0.50873907  0.67391575  0.26408503  1
  O  O113  1  0.16840594  0.48947351  0.26062320  1
  O  O114  1  0.32321984  0.49840745  0.76334131  1
  O  O115  1  0.17346444  0.68145509  0.76246218  1
  O  O116  1  0.51375934  0.83864369  0.76585837  1
