# generated using pymatgen
data_Na6Y4Si3(SO8)3
_symmetry_space_group_name_H-M   'P 1'
_cell_length_a   9.45324918
_cell_length_b   9.45461140
_cell_length_c   23.50228275
_cell_angle_alpha   90.04086542
_cell_angle_beta   89.97736883
_cell_angle_gamma   119.85173183
_symmetry_Int_Tables_number   1
_chemical_formula_structural   Na6Y4Si3(SO8)3
_chemical_formula_sum   'Na18 Y12 Si9 S9 O72'
_cell_volume   1821.84857295
_cell_formula_units_Z   3
loop_
 _symmetry_equiv_pos_site_id
 _symmetry_equiv_pos_as_xyz
  1  'x, y, z'
loop_
 _atom_site_type_symbol
 _atom_site_label
 _atom_site_symmetry_multiplicity
 _atom_site_fract_x
 _atom_site_fract_y
 _atom_site_fract_z
 _atom_site_occupancy
  Na  Na0  1  0.63570657  0.01521132  0.26067514  1
  Na  Na1  1  0.34045765  0.33908092  0.25496041  1
  Na  Na2  1  0.65739602  0.65856277  0.73369223  1
  Na  Na3  1  0.97984769  0.36310613  0.74447382  1
  Na  Na4  1  0.00892610  0.67581206  0.59397315  1
  Na  Na5  1  0.68460031  0.97233448  0.58282326  1
  Na  Na6  1  0.32190666  0.97213198  0.10060942  1
  Na  Na7  1  0.01491902  0.31772039  0.08133371  1
  Na  Na8  1  0.97190495  0.64750554  0.89478979  1
  Na  Na9  1  0.71489178  0.04855687  0.90657105  1
  Na  Na10  1  0.94902710  0.28622064  0.42437115  1
  Na  Na11  1  0.35131895  0.02886199  0.41078481  1
  Na  Na12  1  0.96107062  0.99251915  0.50799692  1
  Na  Na13  1  0.98341198  0.02228320  0.99814934  1
  Na  Na14  1  0.67303210  0.32438313  0.81932300  1
  Na  Na15  1  0.67525684  0.31978708  0.33339685  1
  Na  Na16  1  0.32591753  0.67832104  0.17653650  1
  Na  Na17  1  0.33277201  0.66491719  0.66356678  1
  Y  Y18  1  0.99001170  0.99691355  0.34888901  1
  Y  Y19  1  0.00287352  0.00853332  0.84627520  1
  Y  Y20  1  0.99551651  0.99893050  0.65072076  1
  Y  Y21  1  0.99429372  0.00058842  0.15265858  1
  Y  Y22  1  0.67232185  0.33718422  0.68151074  1
  Y  Y23  1  0.67213607  0.32407272  0.18640693  1
  Y  Y24  1  0.67351316  0.32847335  0.98258171  1
  Y  Y25  1  0.67110004  0.33918279  0.48746385  1
  Y  Y26  1  0.33703529  0.65905276  0.01643654  1
  Y  Y27  1  0.35164205  0.66327887  0.51997276  1
  Y  Y28  1  0.33034101  0.67943238  0.31482855  1
  Y  Y29  1  0.32100739  0.66699893  0.81197330  1
  Si  Si30  1  0.30041929  0.00212283  0.24824830  1
  Si  Si31  1  0.00660742  0.30488236  0.24852217  1
  Si  Si32  1  0.99471561  0.69596981  0.75190015  1
  Si  Si33  1  0.69588005  0.99963565  0.75203361  1
  Si  Si34  1  0.97298959  0.33608479  0.58167845  1
  Si  Si35  1  0.67030458  0.63824205  0.58736546  1
  Si  Si36  1  0.66454820  0.02591752  0.08225250  1
  Si  Si37  1  0.03301903  0.36276998  0.92051477  1
  Si  Si38  1  0.63620065  0.97467176  0.41587718  1
  S  S39  1  0.69660501  0.69813866  0.24988581  1
  S  S40  1  0.30205573  0.30056873  0.75083439  1
  S  S41  1  0.36569834  0.03267363  0.58046143  1
  S  S42  1  0.96788066  0.63558786  0.08115780  1
  S  S43  1  0.36822400  0.33165547  0.08441921  1
  S  S44  1  0.63592060  0.66840752  0.91563374  1
  S  S45  1  0.33088100  0.96179413  0.92019914  1
  S  S46  1  0.33226686  0.36460225  0.41280989  1
  S  S47  1  0.03716941  0.66716312  0.41858344  1
  O  O48  1  0.20383982  0.01306937  0.30461271  1
  O  O49  1  0.79533487  0.77306025  0.30116400  1
  O  O50  1  0.97666802  0.18231810  0.30242663  1
  O  O51  1  0.22341293  0.20522268  0.80305648  1
  O  O52  1  0.99090381  0.78772162  0.81180947  1
  O  O53  1  0.80755750  0.02711337  0.81033721  1
  O  O54  1  0.79284811  0.98105502  0.69721684  1
  O  O55  1  0.20121030  0.22064641  0.70060764  1
  O  O56  1  0.01386585  0.80751754  0.69667459  1
  O  O57  1  0.77768858  0.80104700  0.19922675  1
  O  O58  1  0.02444113  0.21764112  0.19002003  1
  O  O59  1  0.19946502  0.98471996  0.18906022  1
  O  O60  1  0.87917341  0.35724553  0.63758844  1
  O  O61  1  0.47232425  0.11985754  0.62920855  1
  O  O62  1  0.65052181  0.53884685  0.64619187  1
  O  O63  1  0.87902453  0.53453963  0.13088871  1
  O  O64  1  0.64140258  0.12110298  0.13733339  1
  O  O65  1  0.46051766  0.35035259  0.13711249  1
  O  O66  1  0.45954414  0.32528870  0.03424378  1
  O  O67  1  0.87406210  0.55984324  0.02848246  1
  O  O68  1  0.68661607  0.14113477  0.02606928  1
  O  O69  1  0.43871053  0.12320447  0.52667386  1
  O  O70  1  0.67733031  0.53275967  0.53332233  1
  O  O71  1  0.85888988  0.30800868  0.52418986  1
  O  O72  1  0.55123496  0.68826562  0.96616509  1
  O  O73  1  0.12698069  0.44764089  0.98088284  1
  O  O74  1  0.31513853  0.86515536  0.97245293  1
  O  O75  1  0.53597065  0.87044958  0.47181223  1
  O  O76  1  0.31080826  0.44958816  0.46198764  1
  O  O77  1  0.13329243  0.68357341  0.47006668  1
  O  O78  1  0.11886935  0.64317493  0.36799286  1
  O  O79  1  0.53074579  0.88401536  0.35767709  1
  O  O80  1  0.34829187  0.45635442  0.35969736  1
  O  O81  1  0.12969037  0.48330073  0.86715683  1
  O  O82  1  0.35943002  0.88295882  0.87060681  1
  O  O83  1  0.54291463  0.65174376  0.86392817  1
  O  O84  1  0.02706063  0.81774482  0.41218618  1
  O  O85  1  0.82340220  0.00194979  0.41552201  1
  O  O86  1  0.18256596  0.19848985  0.41087822  1
  O  O87  1  0.00227784  0.17527457  0.91730144  1
  O  O88  1  0.17900782  0.97022731  0.91515325  1
  O  O89  1  0.80216161  0.81796871  0.91453999  1
  O  O90  1  0.98784953  0.17136952  0.58585861  1
  O  O91  1  0.20029771  0.00992323  0.58642218  1
  O  O92  1  0.84268945  0.81529120  0.58567180  1
  O  O93  1  0.99868530  0.80497021  0.08498005  1
  O  O94  1  0.83522090  0.01834287  0.08477405  1
  O  O95  1  0.20663846  0.17606550  0.08462282  1
  O  O96  1  0.67806197  0.16280221  0.74728388  1
  O  O97  1  0.46756852  0.32301077  0.74717509  1
  O  O98  1  0.82260207  0.51808247  0.75049071  1
  O  O99  1  0.67010999  0.53166581  0.24315830  1
  O  O100  1  0.84189821  0.32232237  0.24656949  1
  O  O101  1  0.47840196  0.17690543  0.24744957  1
  O  O102  1  0.65899228  0.52459069  0.92258394  1
  O  O103  1  0.84771971  0.34963992  0.91907978  1
  O  O104  1  0.47518336  0.12854535  0.92452616  1
  O  O105  1  0.64921770  0.15827491  0.41524863  1
  O  O106  1  0.47527987  0.34040140  0.41832869  1
  O  O107  1  0.87147264  0.52002735  0.42061115  1
  O  O108  1  0.33511666  0.47018324  0.08066724  1
  O  O109  1  0.13127035  0.64352982  0.07991639  1
  O  O110  1  0.49319037  0.84897815  0.07884957  1
  O  O111  1  0.35138502  0.86778760  0.57831341  1
  O  O112  1  0.52101956  0.68072958  0.58340198  1
  O  O113  1  0.14503864  0.51047003  0.57700647  1
  O  O114  1  0.34253963  0.85239815  0.25057850  1
  O  O115  1  0.53366438  0.68639289  0.25439151  1
  O  O116  1  0.17876651  0.47805447  0.25394567  1
  O  O117  1  0.31582225  0.46506293  0.75518334  1
  O  O118  1  0.14390002  0.65214153  0.75233441  1
  O  O119  1  0.52435792  0.82530140  0.75692868  1
