# generated using pymatgen
data_Na3Hf3ZnP5SO24
_symmetry_space_group_name_H-M   'P 1'
_cell_length_a   8.86445240
_cell_length_b   8.86364900
_cell_length_c   23.04059039
_cell_angle_alpha   89.91218895
_cell_angle_beta   89.98371088
_cell_angle_gamma   119.96149918
_symmetry_Int_Tables_number   1
_chemical_formula_structural   Na3Hf3ZnP5SO24
_chemical_formula_sum   'Na9 Hf9 Zn3 P15 S3 O72'
_cell_volume   1568.39780544
_cell_formula_units_Z   3
loop_
 _symmetry_equiv_pos_site_id
 _symmetry_equiv_pos_as_xyz
  1  'x, y, z'
loop_
 _atom_site_type_symbol
 _atom_site_label
 _atom_site_symmetry_multiplicity
 _atom_site_fract_x
 _atom_site_fract_y
 _atom_site_fract_z
 _atom_site_occupancy
  Na  Na0  1  0.99025786  0.36318428  0.74594766  1
  Na  Na1  1  0.31042675  0.97439667  0.08551937  1
  Na  Na2  1  0.32490638  0.03090221  0.41143350  1
  Na  Na3  1  0.98616835  0.99882225  0.49495388  1
  Na  Na4  1  0.99138027  0.00046859  0.99872908  1
  Na  Na5  1  0.65696423  0.33304090  0.82830849  1
  Na  Na6  1  0.66796072  0.33487973  0.32671982  1
  Na  Na7  1  0.33326556  0.66156388  0.16747025  1
  Na  Na8  1  0.34121001  0.66870255  0.66578639  1
  Hf  Hf9  1  0.00229098  -0.00030612  0.85253064  1
  Hf  Hf10  1  0.99381737  0.99754895  0.64706621  1
  Hf  Hf11  1  0.99920482  0.99831961  0.14832701  1
  Hf  Hf12  1  0.66968040  0.33516861  0.98052321  1
  Hf  Hf13  1  0.67969800  0.34416288  0.48039009  1
  Hf  Hf14  1  0.33295827  0.66091771  0.01893225  1
  Hf  Hf15  1  0.33487068  0.65951411  0.51879783  1
  Hf  Hf16  1  0.33336029  0.67152897  0.31395642  1
  Hf  Hf17  1  0.33857163  0.67103686  0.81345319  1
  Zn  Zn18  1  0.00118174  0.00168058  0.35189652  1
  Zn  Zn19  1  0.66768520  0.34570933  0.68532550  1
  Zn  Zn20  1  0.65825959  0.32512053  0.18177570  1
  P  P21  1  0.29731015  0.00695684  0.25178571  1
  P  P22  1  0.29500897  0.28928296  0.74955232  1
  P  P23  1  0.99830464  0.70768256  0.74998403  1
  P  P24  1  0.70780050  0.00233507  0.74987847  1
  P  P25  1  0.95807979  0.33425029  0.58603108  1
  P  P26  1  0.66668188  0.62296657  0.58502698  1
  P  P27  1  0.95457799  0.62040428  0.08552680  1
  P  P28  1  0.66813117  0.04375081  0.08415236  1
  P  P29  1  0.37860873  0.33537936  0.08511460  1
  P  P30  1  0.62562142  0.66682941  0.91663266  1
  P  P31  1  0.04142033  0.37468911  0.91558656  1
  P  P32  1  0.33427158  0.95894012  0.91766318  1
  P  P33  1  0.62912863  0.95780680  0.41698347  1
  P  P34  1  0.33101891  0.37223167  0.41584695  1
  P  P35  1  0.04388112  0.66928700  0.41656313  1
  S  S36  1  0.70958550  0.70521369  0.25152953  1
  S  S37  1  0.99623090  0.29063062  0.25125646  1
  S  S38  1  0.37630795  0.04207249  0.58354578  1
  O  O39  1  0.21068617  0.02441648  0.30681134  1
  O  O40  1  0.81230474  0.78995174  0.30332025  1
  O  O41  1  0.97444733  0.18641398  0.30315753  1
  O  O42  1  0.20088687  0.17877809  0.80405038  1
  O  O43  1  0.97859983  0.79998362  0.80386348  1
  O  O44  1  0.82440598  0.02682397  0.80346925  1
  O  O45  1  0.79421435  0.97143888  0.69585972  1
  O  O46  1  0.17260742  0.20448792  0.69640807  1
  O  O47  1  0.02834826  0.82323901  0.69607648  1
  O  O48  1  0.79055617  0.81809528  0.19820640  1
  O  O49  1  0.02385474  0.20684941  0.19808903  1
  O  O50  1  0.18019094  0.97641093  0.19588261  1
  O  O51  1  0.88300132  0.36174816  0.64176389  1
  O  O52  1  0.48167239  0.11865211  0.63533618  1
  O  O53  1  0.63177360  0.51282525  0.63875564  1
  O  O54  1  0.87857973  0.51314015  0.13956415  1
  O  O55  1  0.62559448  0.11501838  0.13748330  1
  O  O56  1  0.48509275  0.36702345  0.13929612  1
  O  O57  1  0.45834268  0.29901858  0.03027392  1
  O  O58  1  0.84503491  0.53987882  0.02999380  1
  O  O59  1  0.69548471  0.15527573  0.02901325  1
  O  O60  1  0.45487212  0.14648031  0.52944050  1
  O  O61  1  0.69170719  0.53674020  0.52957770  1
  O  O62  1  0.84328697  0.30702750  0.53130739  1
  O  O63  1  0.53835122  0.69300236  0.97061780  1
  O  O64  1  0.15578626  0.46339671  0.96920806  1
  O  O65  1  0.30787347  0.84952154  0.97308261  1
  O  O66  1  0.53477930  0.84511591  0.47078114  1
  O  O67  1  0.31042516  0.46401285  0.46993703  1
  O  O68  1  0.15956194  0.69398166  0.47011635  1
  O  O69  1  0.12988532  0.63831268  0.36242273  1
  O  O70  1  0.50612617  0.87222271  0.36336352  1
  O  O71  1  0.36190624  0.49019761  0.36237171  1
  O  O72  1  0.12544433  0.48480232  0.86027051  1
  O  O73  1  0.35951346  0.86920832  0.86399051  1
  O  O74  1  0.51164736  0.64025198  0.86260910  1
  O  O75  1  0.02974901  0.83291000  0.41174271  1
  O  O76  1  0.80735908  0.97800473  0.41032543  1
  O  O77  1  0.17330304  0.18951537  0.41228967  1
  O  O78  1  0.02289758  0.19291261  0.91017401  1
  O  O79  1  0.17055134  0.97646275  0.91073166  1
  O  O80  1  0.80669484  0.83017331  0.91011706  1
  O  O81  1  0.98015161  0.17043440  0.58935040  1
  O  O82  1  0.19998957  0.02411855  0.58872625  1
  O  O83  1  0.83251738  0.80664522  0.58922813  1
  O  O84  1  0.98287584  0.81112875  0.09061694  1
  O  O85  1  0.82990207  0.02118380  0.09064014  1
  O  O86  1  0.19368072  0.16574753  0.09078510  1
  O  O87  1  0.69574451  0.16709910  0.74454398  1
  O  O88  1  0.47334460  0.30793522  0.74499567  1
  O  O89  1  0.84212958  0.52372017  0.74691719  1
  O  O90  1  0.68964110  0.53368351  0.24401578  1
  O  O91  1  0.84697826  0.31526500  0.24380733  1
  O  O92  1  0.47878981  0.16432423  0.24449019  1
  O  O93  1  0.64264984  0.50319233  0.92365050  1
  O  O94  1  0.86084365  0.35770071  0.92308539  1
  O  O95  1  0.49730636  0.14046471  0.92367152  1
  O  O96  1  0.63158408  0.13518501  0.42458045  1
  O  O97  1  0.49559426  0.35191208  0.42434005  1
  O  O98  1  0.86324449  0.50233529  0.42255508  1
  O  O99  1  0.35020331  0.49206810  0.07537974  1
  O  O100  1  0.14485859  0.65498800  0.07560780  1
  O  O101  1  0.50239879  0.86034407  0.07419631  1
  O  O102  1  0.35344241  0.86443929  0.57558538  1
  O  O103  1  0.50757940  0.65010345  0.57566331  1
  O  O104  1  0.14109384  0.49659369  0.57551566  1
  O  O105  1  0.30765775  0.83318418  0.25574727  1
  O  O106  1  0.53222078  0.69231276  0.25556241  1
  O  O107  1  0.16264401  0.46600635  0.25538169  1
  O  O108  1  0.29972382  0.46840850  0.75680402  1
  O  O109  1  0.16456737  0.68867544  0.75667818  1
  O  O110  1  0.52785213  0.83530442  0.75622313  1
