# generated using pymatgen
data_Al2Hg3Cl8
_symmetry_space_group_name_H-M   'P 1'
_cell_length_a   15.26263017
_cell_length_b   7.16382571
_cell_length_c   14.28616881
_cell_angle_alpha   80.45305406
_cell_angle_beta   90.00000000
_cell_angle_gamma   90.00000000
_symmetry_Int_Tables_number   1
_chemical_formula_structural   Al2Hg3Cl8
_chemical_formula_sum   'Al8 Hg12 Cl32'
_cell_volume   1540.39877708
_cell_formula_units_Z   4
loop_
 _symmetry_equiv_pos_site_id
 _symmetry_equiv_pos_as_xyz
  1  'x, y, z'
loop_
 _atom_site_type_symbol
 _atom_site_label
 _atom_site_symmetry_multiplicity
 _atom_site_fract_x
 _atom_site_fract_y
 _atom_site_fract_z
 _atom_site_occupancy
  Al  Al0  1  0.68069568  0.39909610  0.09468360  1
  Al  Al1  1  0.39802869  0.19415715  0.27613323  1
  Al  Al2  1  0.89802869  0.80584285  0.22386677  1
  Al  Al3  1  0.60197131  0.80584285  0.72386677  1
  Al  Al4  1  0.10197131  0.19415715  0.77613323  1
  Al  Al5  1  0.81930432  0.39909610  0.59468360  1
  Al  Al6  1  0.31930432  0.60090390  0.90531640  1
  Al  Al7  1  0.18069568  0.60090390  0.40531640  1
  Hg  Hg8  1  0.52721549  0.62720565  0.30201055  1
  Hg  Hg9  1  0.02721549  0.37279435  0.19798945  1
  Hg  Hg10  1  0.47278451  0.37279435  0.69798945  1
  Hg  Hg11  1  0.97278451  0.62720565  0.80201055  1
  Hg  Hg12  1  0.76142532  0.99109607  0.46664026  1
  Hg  Hg13  1  0.26142532  0.00890393  0.03335974  1
  Hg  Hg14  1  0.23857468  0.00890393  0.53335974  1
  Hg  Hg15  1  0.73857468  0.99109607  0.96664026  1
  Hg  Hg16  1  0.63845614  0.81271198  0.39112863  1
  Hg  Hg17  1  0.13845614  0.18728802  0.10887137  1
  Hg  Hg18  1  0.36154386  0.18728802  0.60887137  1
  Hg  Hg19  1  0.86154386  0.81271198  0.89112863  1
  Cl  Cl20  1  0.41361333  0.48263265  0.19886710  1
  Cl  Cl21  1  0.91361333  0.51736735  0.30113290  1
  Cl  Cl22  1  0.58638667  0.51736735  0.80113290  1
  Cl  Cl23  1  0.08638667  0.48263265  0.69886710  1
  Cl  Cl24  1  0.47703783  0.17370651  0.40103408  1
  Cl  Cl25  1  0.06354933  0.00189884  0.68512358  1
  Cl  Cl26  1  0.56354933  -0.00189884  0.81487642  1
  Cl  Cl27  1  0.93645067  -0.00189884  0.31487642  1
  Cl  Cl28  1  0.67063989  0.32091008  0.24487126  1
  Cl  Cl29  1  0.17063989  0.67908992  0.25512874  1
  Cl  Cl30  1  0.32936011  0.67908992  0.75512874  1
  Cl  Cl31  1  0.82936011  0.32091008  0.74487126  1
  Cl  Cl32  1  0.81365630  0.40752783  0.04533650  1
  Cl  Cl33  1  0.31365630  0.59247217  0.45466350  1
  Cl  Cl34  1  0.18634370  0.59247217  0.95466350  1
  Cl  Cl35  1  0.68634370  0.40752783  0.54533650  1
  Cl  Cl36  1  0.61520089  0.17787475  0.02976851  1
  Cl  Cl37  1  0.11520089  0.82212525  0.47023149  1
  Cl  Cl38  1  0.38479911  0.82212525  0.97023149  1
  Cl  Cl39  1  0.88479911  0.17787475  0.52976851  1
  Cl  Cl40  1  0.60904854  0.65128895  0.04546615  1
  Cl  Cl41  1  0.10904854  0.34871105  0.45453385  1
  Cl  Cl42  1  0.39095146  0.34871105  0.95453385  1
  Cl  Cl43  1  0.89095146  0.65128895  0.54546615  1
  Cl  Cl44  1  0.43645067  0.00189884  0.18512358  1
  Cl  Cl45  1  0.02296217  0.17370651  0.90103408  1
  Cl  Cl46  1  0.52296217  0.82629349  0.59896592  1
  Cl  Cl47  1  0.97703783  0.82629349  0.09896592  1
  Cl  Cl48  1  0.23769045  0.15540394  0.80929228  1
  Cl  Cl49  1  0.73769045  0.84459606  0.69070772  1
  Cl  Cl50  1  0.76230955  0.84459606  0.19070772  1
  Cl  Cl51  1  0.26230955  0.15540394  0.30929228  1
