# generated using pymatgen
data_Na3YTi3Si3(SO8)3
_symmetry_space_group_name_H-M   'P 1'
_cell_length_a   8.89446641
_cell_length_b   8.95084429
_cell_length_c   22.71814601
_cell_angle_alpha   89.73459649
_cell_angle_beta   90.54872241
_cell_angle_gamma   120.25759635
_symmetry_Int_Tables_number   1
_chemical_formula_structural   Na3YTi3Si3(SO8)3
_chemical_formula_sum   'Na9 Y3 Ti9 Si9 S9 O72'
_cell_volume   1562.19170138
_cell_formula_units_Z   3
loop_
 _symmetry_equiv_pos_site_id
 _symmetry_equiv_pos_as_xyz
  1  'x, y, z'
loop_
 _atom_site_type_symbol
 _atom_site_label
 _atom_site_symmetry_multiplicity
 _atom_site_fract_x
 _atom_site_fract_y
 _atom_site_fract_z
 _atom_site_occupancy
  Na  Na0  1  0.35311268  0.35422776  0.24187540  1
  Na  Na1  1  0.63219142  0.62513572  0.75547153  1
  Na  Na2  1  0.96953417  0.29010125  0.41593159  1
  Na  Na3  1  0.99429352  0.99960168  0.50308159  1
  Na  Na4  1  0.99514930  0.99113723  0.99953667  1
  Na  Na5  1  0.66405900  0.33072221  0.83560851  1
  Na  Na6  1  0.67585174  0.32721614  0.33141089  1
  Na  Na7  1  0.31126559  0.66339649  0.16345048  1
  Na  Na8  1  0.29889209  0.65317926  0.66521919  1
  Y  Y9  1  0.99618376  0.99759136  0.35765992  1
  Y  Y10  1  0.67814170  0.33601691  0.68726928  1
  Y  Y11  1  0.68891206  0.34539381  0.17760783  1
  Ti  Ti12  1  0.00561164  0.98662789  0.85524748  1
  Ti  Ti13  1  0.01806792  0.02147036  0.64891835  1
  Ti  Ti14  1  0.01699724  0.02089875  0.14094793  1
  Ti  Ti15  1  0.66360421  0.36612971  0.98246596  1
  Ti  Ti16  1  0.65906193  0.30939983  0.47898019  1
  Ti  Ti17  1  0.33768930  0.66247872  0.01923259  1
  Ti  Ti18  1  0.33745052  0.65285368  0.51901724  1
  Ti  Ti19  1  0.34148583  0.65681725  0.31602947  1
  Ti  Ti20  1  0.31800192  0.64752365  0.81259210  1
  Si  Si21  1  0.00309165  0.29985540  0.25222846  1
  Si  Si22  1  0.28086780  0.28610134  0.75565851  1
  Si  Si23  1  0.01620356  0.72691226  0.75016507  1
  Si  Si24  1  0.96699328  0.33129049  0.58152851  1
  Si  Si25  1  0.97635560  0.64645572  0.08046766  1
  Si  Si26  1  0.37229102  0.34095331  0.08375800  1
  Si  Si27  1  0.62127483  0.67486872  0.91490703  1
  Si  Si28  1  0.60754744  0.94742175  0.41938776  1
  Si  Si29  1  0.35312551  0.38289135  0.41925227  1
  S  S30  1  0.28816058  0.98764350  0.24760440  1
  S  S31  1  0.69891947  0.70882395  0.24850662  1
  S  S32  1  0.71448497  0.99041178  0.75294129  1
  S  S33  1  0.36594751  0.03193977  0.58082726  1
  S  S34  1  0.66943885  0.63233144  0.58166958  1
  S  S35  1  0.66699041  0.03418489  0.07856865  1
  S  S36  1  0.04144698  0.37624845  0.91713176  1
  S  S37  1  0.33937175  0.95669731  0.91567671  1
  S  S38  1  0.04753278  0.65334052  0.41945504  1
  O  O39  1  0.20777563  0.00850458  0.30143492  1
  O  O40  1  0.79737480  0.78014006  0.30406151  1
  O  O41  1  0.99448163  0.20272158  0.31337417  1
  O  O42  1  0.17157426  0.16858733  0.81095685  1
  O  O43  1  0.98651650  0.81857280  0.80902037  1
  O  O44  1  0.81627801  0.00806059  0.80650651  1
  O  O45  1  0.79782274  0.97239278  0.69860177  1
  O  O46  1  0.16749516  0.20049112  0.69373694  1
  O  O47  1  0.03108134  0.84627189  0.69236750  1
  O  O48  1  0.78768698  0.80861967  0.19690904  1
  O  O49  1  0.02749938  0.18915753  0.19544611  1
  O  O50  1  0.18029148  0.97211696  0.19467405  1
  O  O51  1  0.89397454  0.36953464  0.64001642  1
  O  O52  1  0.46754323  0.10727408  0.63479550  1
  O  O53  1  0.63617881  0.53617017  0.63806700  1
  O  O54  1  0.92212659  0.52904874  0.13831899  1
  O  O55  1  0.63271985  0.09790053  0.13360782  1
  O  O56  1  0.46667801  0.37220998  0.14619286  1
  O  O57  1  0.47817276  0.31201029  0.02932083  1
  O  O58  1  0.83329984  0.53487342  0.02565045  1
  O  O59  1  0.69308012  0.14796055  0.02795556  1
  O  O60  1  0.45721626  0.14670339  0.52907964  1
  O  O61  1  0.68453060  0.53486405  0.53225251  1
  O  O62  1  0.83439693  0.30442520  0.52386372  1
  O  O63  1  0.51822985  0.69319336  0.97019368  1
  O  O64  1  0.15123171  0.46523285  0.96870692  1
  O  O65  1  0.31204083  0.85290670  0.96873641  1
  O  O66  1  0.50082614  0.83791981  0.47599962  1
  O  O67  1  0.32292749  0.48613496  0.47257482  1
  O  O68  1  0.14770667  0.67122578  0.47288031  1
  O  O69  1  0.12880331  0.63187826  0.36531378  1
  O  O70  1  0.49336910  0.85451876  0.35906478  1
  O  O71  1  0.36817557  0.49702243  0.35826687  1
  O  O72  1  0.12420225  0.48476384  0.86278309  1
  O  O73  1  0.35350934  0.86928458  0.86262820  1
  O  O74  1  0.49951646  0.64468767  0.85570458  1
  O  O75  1  0.02550229  0.80521527  0.41629116  1
  O  O76  1  0.80314681  0.97998104  0.42131598  1
  O  O77  1  0.17883966  0.19581044  0.41963953  1
  O  O78  1  0.02755121  0.20546580  0.91226683  1
  O  O79  1  0.17994624  0.97773823  0.91080614  1
  O  O80  1  0.81724521  0.84479416  0.90898030  1
  O  O81  1  0.98119135  0.15383295  0.58939668  1
  O  O82  1  0.19315160  0.02193681  0.58435478  1
  O  O83  1  0.82737061  0.80570169  0.58575797  1
  O  O84  1  0.97987288  0.82949723  0.09152533  1
  O  O85  1  0.82525697  0.01695299  0.08601109  1
  O  O86  1  0.17753389  0.16444818  0.08700848  1
  O  O87  1  0.69042383  0.14145430  0.75008027  1
  O  O88  1  0.47523415  0.31884388  0.75254261  1
  O  O89  1  0.83898363  0.54079104  0.74998837  1
  O  O90  1  0.65985011  0.52590791  0.24639907  1
  O  O91  1  0.83669916  0.32479180  0.24949444  1
  O  O92  1  0.46122595  0.14731981  0.24349365  1
  O  O93  1  0.63810646  0.49776725  0.92374909  1
  O  O94  1  0.86662802  0.35864464  0.92153043  1
  O  O95  1  0.49632534  0.13199995  0.92049475  1
  O  O96  1  0.63050416  0.14565650  0.42427229  1
  O  O97  1  0.53156681  0.37805574  0.42815906  1
  O  O98  1  0.87273391  0.49159063  0.42225183  1
  O  O99  1  0.34152657  0.50221276  0.06872597  1
  O  O100  1  0.16576869  0.67714868  0.06121384  1
  O  O101  1  0.51477759  0.85705726  0.07052338  1
  O  O102  1  0.33966336  0.85713104  0.57343629  1
  O  O103  1  0.51477824  0.65687441  0.57440383  1
  O  O104  1  0.16014869  0.50034460  0.57050155  1
  O  O105  1  0.30326403  0.83142268  0.25162905  1
  O  O106  1  0.52529858  0.70092416  0.25300411  1
  O  O107  1  0.18919428  0.49090190  0.25582398  1
  O  O108  1  0.29587079  0.47975614  0.76013509  1
  O  O109  1  0.19028408  0.71179428  0.75995311  1
  O  O110  1  0.54063217  0.82792827  0.75515383  1
