# generated using pymatgen
data_Na3YTaSi2PO12
_symmetry_space_group_name_H-M   'P 1'
_cell_length_a   16.09647482
_cell_length_b   27.73962145
_cell_length_c   9.13624077
_cell_angle_alpha   90.00000000
_cell_angle_beta   125.27671146
_cell_angle_gamma   90.00000000
_symmetry_Int_Tables_number   1
_chemical_formula_structural   Na3YTaSi2PO12
_chemical_formula_sum   'Na36 Y12 Ta12 Si24 P12 O144'
_cell_volume   3330.32911697
_cell_formula_units_Z   12
loop_
 _symmetry_equiv_pos_site_id
 _symmetry_equiv_pos_as_xyz
  1  'x, y, z'
loop_
 _atom_site_type_symbol
 _atom_site_label
 _atom_site_symmetry_multiplicity
 _atom_site_fract_x
 _atom_site_fract_y
 _atom_site_fract_z
 _atom_site_occupancy
  Na  Na0  1  0.24818631  0.25672428  0.99864475  1
  Na  Na1  1  0.23981486  0.58841086  0.00802042  1
  Na  Na2  1  0.24136262  0.92003370  0.00783690  1
  Na  Na3  1  0.74818631  0.24327572  0.49864475  1
  Na  Na4  1  0.74136262  0.57996630  0.50783690  1
  Na  Na5  1  0.73981486  0.91158914  0.50802042  1
  Na  Na6  1  0.73981486  0.08841086  0.00802042  1
  Na  Na7  1  0.74136262  0.42003370  0.00783690  1
  Na  Na8  1  0.74818631  0.75672428  0.99864475  1
  Na  Na9  1  0.24136262  0.07996630  0.50783690  1
  Na  Na10  1  0.23981486  0.41158914  0.50802042  1
  Na  Na11  1  0.24818631  0.74327572  0.49864475  1
  Na  Na12  1  0.49284189  0.03150747  0.75270462  1
  Na  Na13  1  0.49573768  0.36548459  0.76096519  1
  Na  Na14  1  0.49257441  0.69781064  0.75056330  1
  Na  Na15  1  0.49257441  0.30218936  0.25056330  1
  Na  Na16  1  0.49573768  0.63451541  0.26096519  1
  Na  Na17  1  0.49284189  0.96849253  0.25270462  1
  Na  Na18  1  0.99257441  0.19781064  0.75056330  1
  Na  Na19  1  0.99284189  0.53150747  0.75270462  1
  Na  Na20  1  0.99573768  0.86548459  0.76096519  1
  Na  Na21  1  0.99573768  0.13451541  0.26096519  1
  Na  Na22  1  0.99284189  0.46849253  0.25270462  1
  Na  Na23  1  0.99257441  0.80218936  0.25056330  1
  Na  Na24  1  0.81977201  0.64382399  0.19944692  1
  Na  Na25  1  0.81994396  0.97710686  0.20544776  1
  Na  Na26  1  0.19187725  0.30584637  0.28879298  1
  Na  Na27  1  0.19187725  0.69415363  0.78879298  1
  Na  Na28  1  0.81994396  0.02289314  0.70544776  1
  Na  Na29  1  0.81977201  0.35617601  0.69944692  1
  Na  Na30  1  0.31977201  0.14382399  0.19944692  1
  Na  Na31  1  0.31994396  0.47710686  0.20544776  1
  Na  Na32  1  0.69187725  0.80584637  0.28879298  1
  Na  Na33  1  0.69187725  0.19415363  0.78879298  1
  Na  Na34  1  0.31994396  0.52289314  0.70544776  1
  Na  Na35  1  0.31977201  0.85617601  0.69944692  1
  Y  Y36  1  0.89916312  0.25136464  0.94471509  1
  Y  Y37  1  0.89193976  0.58364563  0.92939455  1
  Y  Y38  1  0.89196706  0.91521090  0.93355904  1
  Y  Y39  1  0.89196706  0.08478910  0.43355904  1
  Y  Y40  1  0.89193976  0.41635437  0.42939455  1
  Y  Y41  1  0.89916312  0.74863536  0.44471509  1
  Y  Y42  1  0.39193976  0.08364563  0.92939455  1
  Y  Y43  1  0.39196706  0.41521090  0.93355904  1
  Y  Y44  1  0.39916312  0.75136464  0.94471509  1
  Y  Y45  1  0.39916312  0.24863536  0.44471509  1
  Y  Y46  1  0.39196706  0.58478910  0.43355904  1
  Y  Y47  1  0.39193976  0.91635437  0.42939455  1
  Ta  Ta48  1  0.10526874  0.24809801  0.56223172  1
  Ta  Ta49  1  0.10540676  0.58247119  0.56380444  1
  Ta  Ta50  1  0.10598251  0.91659304  0.56421197  1
  Ta  Ta51  1  0.10598251  0.08340696  0.06421197  1
  Ta  Ta52  1  0.10540676  0.41752881  0.06380444  1
  Ta  Ta53  1  0.10526874  0.75190199  0.06223172  1
  Ta  Ta54  1  0.60540676  0.08247119  0.56380444  1
  Ta  Ta55  1  0.60598251  0.41659304  0.56421197  1
  Ta  Ta56  1  0.60526874  0.74809801  0.56223172  1
  Ta  Ta57  1  0.60526874  0.25190199  0.06223172  1
  Ta  Ta58  1  0.60598251  0.58340696  0.06421197  1
  Ta  Ta59  1  0.60540676  0.91752881  0.06380444  1
  Si  Si60  1  0.34525932  0.29466618  0.74622591  1
  Si  Si61  1  0.35000232  0.62839822  0.76077763  1
  Si  Si62  1  0.34930647  0.96118487  0.75584896  1
  Si  Si63  1  0.64521497  0.30405429  0.74255321  1
  Si  Si64  1  0.64284880  0.63588825  0.73920203  1
  Si  Si65  1  0.64390902  0.97022632  0.74036826  1
  Si  Si66  1  0.64390902  0.02977368  0.24036826  1
  Si  Si67  1  0.64284880  0.36411175  0.23920203  1
  Si  Si68  1  0.64521497  0.69594571  0.24255321  1
  Si  Si69  1  0.34930647  0.03881513  0.25584896  1
  Si  Si70  1  0.35000232  0.37160178  0.26077763  1
  Si  Si71  1  0.34525932  0.70533382  0.24622591  1
  Si  Si72  1  0.85000232  0.12839822  0.76077763  1
  Si  Si73  1  0.84930647  0.46118487  0.75584896  1
  Si  Si74  1  0.84525932  0.79466618  0.74622591  1
  Si  Si75  1  0.14284880  0.13588825  0.73920203  1
  Si  Si76  1  0.14390902  0.47022632  0.74036826  1
  Si  Si77  1  0.14521497  0.80405429  0.74255321  1
  Si  Si78  1  0.14521497  0.19594571  0.24255321  1
  Si  Si79  1  0.14390902  0.52977368  0.24036826  1
  Si  Si80  1  0.14284880  0.86411175  0.23920203  1
  Si  Si81  1  0.84525932  0.20533382  0.24622591  1
  Si  Si82  1  0.84930647  0.53881513  0.25584896  1
  Si  Si83  1  0.85000232  0.87160178  0.26077763  1
  P  P84  1  0.01289770  0.31934299  0.75497349  1
  P  P85  1  0.00952394  0.65179246  0.74925050  1
  P  P86  1  0.01009766  0.98653247  0.74954499  1
  P  P87  1  0.01009766  0.01346753  0.24954499  1
  P  P88  1  0.00952394  0.34820754  0.24925050  1
  P  P89  1  0.01289770  0.68065701  0.25497349  1
  P  P90  1  0.50952394  0.15179246  0.74925050  1
  P  P91  1  0.51009766  0.48653247  0.74954499  1
  P  P92  1  0.51289770  0.81934299  0.75497349  1
  P  P93  1  0.51289770  0.18065701  0.25497349  1
  P  P94  1  0.51009766  0.51346753  0.24954499  1
  P  P95  1  0.50952394  0.84820754  0.24925050  1
  O  O96  1  0.14007087  0.19678668  0.74157146  1
  O  O97  1  0.14270810  0.53111189  0.74881531  1
  O  O98  1  0.14342606  0.86405432  0.74679536  1
  O  O99  1  0.83848611  0.18684813  0.75288724  1
  O  O100  1  0.84380519  0.51911130  0.74911391  1
  O  O101  1  0.83972871  0.85331414  0.74777308  1
  O  O102  1  0.83972871  0.14668586  0.24777308  1
  O  O103  1  0.84380519  0.48088870  0.24911391  1
  O  O104  1  0.83848611  0.81315187  0.25288724  1
  O  O105  1  0.14342606  0.13594568  0.24679536  1
  O  O106  1  0.14270810  0.46888811  0.24881531  1
  O  O107  1  0.14007087  0.80321332  0.24157146  1
  O  O108  1  0.64270810  0.03111189  0.74881531  1
  O  O109  1  0.64342606  0.36405432  0.74679536  1
  O  O110  1  0.64007087  0.69678668  0.74157146  1
  O  O111  1  0.34380519  0.01911130  0.74911391  1
  O  O112  1  0.33972871  0.35331414  0.74777308  1
  O  O113  1  0.33848611  0.68684813  0.75288724  1
  O  O114  1  0.33848611  0.31315187  0.25288724  1
  O  O115  1  0.33972871  0.64668586  0.24777308  1
  O  O116  1  0.34380519  0.98088870  0.24911391  1
  O  O117  1  0.64007087  0.30321332  0.24157146  1
  O  O118  1  0.64342606  0.63594568  0.24679536  1
  O  O119  1  0.64270810  0.96888811  0.24881531  1
  O  O120  1  0.44566641  0.17782098  0.57159743  1
  O  O121  1  0.44259661  0.51442200  0.57638595  1
  O  O122  1  0.44925868  0.85049780  0.59136554  1
  O  O123  1  0.56724676  0.18921806  0.90804500  1
  O  O124  1  0.56754086  0.52344452  0.91282889  1
  O  O125  1  0.57473743  0.85314853  0.92860014  1
  O  O126  1  0.57473743  0.14685147  0.42860014  1
  O  O127  1  0.56754086  0.47655548  0.41282889  1
  O  O128  1  0.56724676  0.81078194  0.40804500  1
  O  O129  1  0.44925868  0.14950220  0.09136554  1
  O  O130  1  0.44259661  0.48557800  0.07638595  1
  O  O131  1  0.44566641  0.82217902  0.07159743  1
  O  O132  1  0.94259661  0.01442200  0.57638595  1
  O  O133  1  0.94925868  0.35049780  0.59136554  1
  O  O134  1  0.94566641  0.67782098  0.57159743  1
  O  O135  1  0.06754086  0.02344452  0.91282889  1
  O  O136  1  0.07473743  0.35314853  0.92860014  1
  O  O137  1  0.06724676  0.68921806  0.90804500  1
  O  O138  1  0.06724676  0.31078194  0.40804500  1
  O  O139  1  0.07473743  0.64685147  0.42860014  1
  O  O140  1  0.06754086  0.97655548  0.41282889  1
  O  O141  1  0.94566641  0.32217902  0.07159743  1
  O  O142  1  0.94925868  0.64950220  0.09136554  1
  O  O143  1  0.94259661  0.98557800  0.07638595  1
  O  O144  1  0.24865044  0.26992351  0.73700464  1
  O  O145  1  0.25372076  0.60248921  0.75177592  1
  O  O146  1  0.25277610  0.93515857  0.74625168  1
  O  O147  1  0.74366117  0.28567720  0.75189113  1
  O  O148  1  0.74023880  0.61746082  0.75049736  1
  O  O149  1  0.74429907  0.95584402  0.75031039  1
  O  O150  1  0.74429907  0.04415598  0.25031039  1
  O  O151  1  0.74023880  0.38253918  0.25049736  1
  O  O152  1  0.74366117  0.71432280  0.25189113  1
  O  O153  1  0.25277610  0.06484143  0.24625168  1
  O  O154  1  0.25372076  0.39751079  0.25177592  1
  O  O155  1  0.24865044  0.73007649  0.23700464  1
  O  O156  1  0.75372076  0.10248921  0.75177592  1
  O  O157  1  0.75277610  0.43515857  0.74625168  1
  O  O158  1  0.74865044  0.76992351  0.73700464  1
  O  O159  1  0.24023880  0.11746082  0.75049736  1
  O  O160  1  0.24429907  0.45584402  0.75031039  1
  O  O161  1  0.24366117  0.78567720  0.75189113  1
  O  O162  1  0.24366117  0.21432280  0.25189113  1
  O  O163  1  0.24429907  0.54415598  0.25031039  1
  O  O164  1  0.24023880  0.88253918  0.25049736  1
  O  O165  1  0.74865044  0.23007649  0.23700464  1
  O  O166  1  0.75277610  0.56484143  0.24625168  1
  O  O167  1  0.75372076  0.89751079  0.25177592  1
  O  O168  1  0.33360812  0.28126523  0.56427681  1
  O  O169  1  0.34461032  0.60810178  0.59269599  1
  O  O170  1  0.34742416  0.93885630  0.59416522  1
  O  O171  1  0.63511760  0.28541347  0.91082966  1
  O  O172  1  0.63698189  0.61985911  0.91816222  1
  O  O173  1  0.64026047  0.95224123  0.92009732  1
  O  O174  1  0.64026047  0.04775877  0.42009732  1
  O  O175  1  0.63698189  0.38014089  0.41816222  1
  O  O176  1  0.63511760  0.71458653  0.41082966  1
  O  O177  1  0.34742416  0.06114370  0.09416522  1
  O  O178  1  0.34461032  0.39189822  0.09269599  1
  O  O179  1  0.33360812  0.71873477  0.06427681  1
  O  O180  1  0.84461032  0.10810178  0.59269599  1
  O  O181  1  0.84742416  0.43885630  0.59416522  1
  O  O182  1  0.83360812  0.78126523  0.56427681  1
  O  O183  1  0.13698189  0.11985911  0.91816222  1
  O  O184  1  0.14026047  0.45224123  0.92009732  1
  O  O185  1  0.13511760  0.78541347  0.91082966  1
  O  O186  1  0.13511760  0.21458653  0.41082966  1
  O  O187  1  0.14026047  0.54775877  0.42009732  1
  O  O188  1  0.13698189  0.88014089  0.41816222  1
  O  O189  1  0.83360812  0.21873477  0.06427681  1
  O  O190  1  0.84742416  0.56114370  0.09416522  1
  O  O191  1  0.84461032  0.89189822  0.09269599  1
  O  O192  1  0.45890689  0.27251551  0.92114932  1
  O  O193  1  0.46205972  0.60688120  0.94274543  1
  O  O194  1  0.46332874  0.93858880  0.93993976  1
  O  O195  1  0.54358316  0.28525866  0.56061179  1
  O  O196  1  0.53722190  0.62080908  0.55912741  1
  O  O197  1  0.54065901  0.95359332  0.56084894  1
  O  O198  1  0.54065901  0.04640668  0.06084894  1
  O  O199  1  0.53722190  0.37919092  0.05912741  1
  O  O200  1  0.54358316  0.71474134  0.06061179  1
  O  O201  1  0.46332874  0.06141120  0.43993976  1
  O  O202  1  0.46205972  0.39311880  0.44274543  1
  O  O203  1  0.45890689  0.72748449  0.42114932  1
  O  O204  1  0.96205972  0.10688120  0.94274543  1
  O  O205  1  0.96332874  0.43858880  0.93993976  1
  O  O206  1  0.95890689  0.77251551  0.92114932  1
  O  O207  1  0.03722190  0.12080908  0.55912741  1
  O  O208  1  0.04065901  0.45359332  0.56084894  1
  O  O209  1  0.04358316  0.78525866  0.56061179  1
  O  O210  1  0.04358316  0.21474134  0.06061179  1
  O  O211  1  0.04065901  0.54640668  0.06084894  1
  O  O212  1  0.03722190  0.87919092  0.05912741  1
  O  O213  1  0.95890689  0.22748449  0.42114932  1
  O  O214  1  0.96332874  0.56141120  0.43993976  1
  O  O215  1  0.96205972  0.89311880  0.44274543  1
  O  O216  1  0.09089239  0.28841233  0.74762113  1
  O  O217  1  0.09749459  0.62484112  0.75270666  1
  O  O218  1  0.09164641  0.95654271  0.74821725  1
  O  O219  1  0.93991233  0.28520708  0.76352719  1
  O  O220  1  0.94580956  0.61403692  0.76367152  1
  O  O221  1  0.94096548  0.95257426  0.76701131  1
  O  O222  1  0.94096548  0.04742574  0.26701131  1
  O  O223  1  0.94580956  0.38596308  0.26367152  1
  O  O224  1  0.93991233  0.71479292  0.26352719  1
  O  O225  1  0.09164641  0.04345729  0.24821725  1
  O  O226  1  0.09749459  0.37515888  0.25270666  1
  O  O227  1  0.09089239  0.71158767  0.24762113  1
  O  O228  1  0.59749459  0.12484112  0.75270666  1
  O  O229  1  0.59164641  0.45654271  0.74821725  1
  O  O230  1  0.59089239  0.78841233  0.74762113  1
  O  O231  1  0.44580956  0.11403692  0.76367152  1
  O  O232  1  0.44096548  0.45257426  0.76701131  1
  O  O233  1  0.43991233  0.78520708  0.76352719  1
  O  O234  1  0.43991233  0.21479292  0.26352719  1
  O  O235  1  0.44096548  0.54742574  0.26701131  1
  O  O236  1  0.44580956  0.88596308  0.26367152  1
  O  O237  1  0.59089239  0.21158767  0.24762113  1
  O  O238  1  0.59164641  0.54345729  0.24821725  1
  O  O239  1  0.59749459  0.87515888  0.25270666  1
