# generated using pymatgen
data_Na3Y2Mg2PS5O24
_symmetry_space_group_name_H-M   'P 1'
_cell_length_a   8.94648917
_cell_length_b   8.96288300
_cell_length_c   23.40882986
_cell_angle_alpha   90.24432793
_cell_angle_beta   89.80981645
_cell_angle_gamma   119.89569431
_symmetry_Int_Tables_number   1
_chemical_formula_structural   Na3Y2Mg2PS5O24
_chemical_formula_sum   'Na9 Y6 Mg6 P3 S15 O72'
_cell_volume   1627.27837073
_cell_formula_units_Z   3
loop_
 _symmetry_equiv_pos_site_id
 _symmetry_equiv_pos_as_xyz
  1  'x, y, z'
loop_
 _atom_site_type_symbol
 _atom_site_label
 _atom_site_symmetry_multiplicity
 _atom_site_fract_x
 _atom_site_fract_y
 _atom_site_fract_z
 _atom_site_occupancy
  Na  Na0  1  0.36653422  0.99410429  0.74989082  1
  Na  Na1  1  0.65932077  0.97080759  0.58854644  1
  Na  Na2  1  0.67316782  0.69387104  0.08232099  1
  Na  Na3  1  0.02757587  0.00196466  0.50697002  1
  Na  Na4  1  0.01662356  0.00317180  0.00579521  1
  Na  Na5  1  0.68185187  0.33660517  0.83308033  1
  Na  Na6  1  0.66695742  0.33350150  0.33298926  1
  Na  Na7  1  0.30587932  0.66388324  0.16660683  1
  Na  Na8  1  0.33076010  0.65876793  0.66670133  1
  Y  Y9  1  0.00097071  0.99966852  0.35365121  1
  Y  Y10  1  0.98831122  0.00017628  0.85333717  1
  Y  Y11  1  0.66955857  0.33352313  0.68167762  1
  Y  Y12  1  0.67487705  0.33597043  0.18344525  1
  Y  Y13  1  0.67278037  0.33625414  0.98232431  1
  Y  Y14  1  0.65646014  0.32878557  0.48182444  1
  Mg  Mg15  1  0.00160855  0.99945669  0.65136947  1
  Mg  Mg16  1  0.00869012  0.99966652  0.15138648  1
  Mg  Mg17  1  0.31996229  0.66811875  0.01740952  1
  Mg  Mg18  1  0.32735185  0.66900818  0.51686183  1
  Mg  Mg19  1  0.33244637  0.66655847  0.31492060  1
  Mg  Mg20  1  0.34274899  0.66749689  0.81497575  1
  P  P21  1  0.69602485  0.99045088  0.74640105  1
  P  P22  1  0.35410464  0.02101641  0.58469448  1
  P  P23  1  0.97556551  0.64545416  0.08368445  1
  S  S24  1  0.29352152  0.99085710  0.24920674  1
  S  S25  1  0.69648810  0.70801210  0.24836928  1
  S  S26  1  0.01082571  0.29903240  0.24928595  1
  S  S27  1  0.28940598  0.29799349  0.74941159  1
  S  S28  1  0.00736257  0.70825073  0.75011510  1
  S  S29  1  0.97617472  0.33348053  0.58179320  1
  S  S30  1  0.66688707  0.64240277  0.58252890  1
  S  S31  1  0.66708101  0.02427822  0.08303296  1
  S  S32  1  0.35994065  0.33400208  0.08302045  1
  S  S33  1  0.61349391  0.66365251  0.91890755  1
  S  S34  1  0.05382456  0.38763785  0.91611170  1
  S  S35  1  0.33444774  0.95202749  0.91515633  1
  S  S36  1  0.61503296  0.94859359  0.41712846  1
  S  S37  1  0.33363762  0.38824151  0.41617147  1
  S  S38  1  0.04881358  0.66382989  0.41618922  1
  O  O39  1  0.21525137  0.01750598  0.30174163  1
  O  O40  1  0.80649332  0.79221624  0.29923635  1
  O  O41  1  0.98765930  0.19653397  0.30168498  1
  O  O42  1  0.21452857  0.18820260  0.80092606  1
  O  O43  1  0.98403439  0.78698062  0.80290027  1
  O  O44  1  0.80685178  0.01472165  0.79973414  1
  O  O45  1  0.78257702  0.97760792  0.69103733  1
  O  O46  1  0.18667919  0.21272130  0.69820380  1
  O  O47  1  0.03084967  0.81783608  0.69997468  1
  O  O48  1  0.77995216  0.80628030  0.19576699  1
  O  O49  1  0.02457993  0.20983210  0.19821892  1
  O  O50  1  0.18954226  0.97458679  0.19843663  1
  O  O51  1  0.89850764  0.36637165  0.63347126  1
  O  O52  1  0.47181737  0.10396043  0.63881790  1
  O  O53  1  0.64270706  0.53668111  0.63405943  1
  O  O54  1  0.88688005  0.52905273  0.13634586  1
  O  O55  1  0.63502768  0.10350580  0.13404113  1
  O  O56  1  0.47484991  0.36440524  0.13322698  1
  O  O57  1  0.43965930  0.30107861  0.03184302  1
  O  O58  1  0.85063803  0.55705315  0.03177392  1
  O  O59  1  0.69227453  0.13257353  0.03192043  1
  O  O60  1  0.44932046  0.14273093  0.53341087  1
  O  O61  1  0.69595248  0.55991606  0.53174179  1
  O  O62  1  0.85934404  0.30393422  0.53220173  1
  O  O63  1  0.53253383  0.67585054  0.97243169  1
  O  O64  1  0.14774396  0.46994306  0.96850981  1
  O  O65  1  0.32204308  0.85172569  0.96583590  1
  O  O66  1  0.53691785  0.85701976  0.47102898  1
  O  O67  1  0.32175784  0.47198842  0.46868009  1
  O  O68  1  0.14591763  0.67942175  0.46849251  1
  O  O69  1  0.13154678  0.65001682  0.36377485  1
  O  O70  1  0.51471085  0.86204040  0.36614352  1
  O  O71  1  0.34557811  0.48269216  0.36389918  1
  O  O72  1  0.13719666  0.48319914  0.86365299  1
  O  O73  1  0.34795095  0.87306399  0.86095031  1
  O  O74  1  0.51609264  0.65303994  0.86738850  1
  O  O75  1  0.02792927  0.82052644  0.41444840  1
  O  O76  1  0.79204662  0.96944782  0.41435962  1
  O  O77  1  0.17857915  0.21012358  0.41482257  1
  O  O78  1  0.03340226  0.21076402  0.91486926  1
  O  O79  1  0.17833955  0.97341405  0.91424567  1
  O  O80  1  0.79113265  0.81911731  0.91702537  1
  O  O81  1  0.98037962  0.17097160  0.58889657  1
  O  O82  1  0.17617275  0.00385507  0.59218528  1
  O  O83  1  0.81995067  0.81704260  0.58871313  1
  O  O84  1  0.98083391  0.82055298  0.09123560  1
  O  O85  1  0.82396604  0.00982406  0.09029489  1
  O  O86  1  0.18744559  0.18355096  0.09132424  1
  O  O87  1  0.67076020  0.15315660  0.74575281  1
  O  O88  1  0.46553591  0.31467922  0.74459369  1
  O  O89  1  0.85243692  0.53479509  0.74526346  1
  O  O90  1  0.67703229  0.53157921  0.24586443  1
  O  O91  1  0.85223957  0.31629103  0.24668457  1
  O  O92  1  0.46895870  0.14714153  0.24511976  1
  O  O93  1  0.63388395  0.50699728  0.91930812  1
  O  O94  1  0.87509221  0.36476608  0.91761842  1
  O  O95  1  0.49117896  0.12826242  0.91832623  1
  O  O96  1  0.63708583  0.12654497  0.41861139  1
  O  O97  1  0.49064030  0.36712731  0.41771151  1
  O  O98  1  0.87170946  0.50857184  0.41893814  1
  O  O99  1  0.35466135  0.49584368  0.07571732  1
  O  O100  1  0.15345854  0.66362995  0.07575385  1
  O  O101  1  0.51604831  0.84902898  0.07570604  1
  O  O102  1  0.35060636  0.84758703  0.57634372  1
  O  O103  1  0.51082963  0.65844984  0.57589315  1
  O  O104  1  0.14856903  0.48287453  0.57379111  1
  O  O105  1  0.30960258  0.83489416  0.25454340  1
  O  O106  1  0.52525899  0.69251441  0.25507546  1
  O  O107  1  0.16516553  0.47207646  0.25410027  1
  O  O108  1  0.30744060  0.46958136  0.75641889  1
  O  O109  1  0.16491453  0.69309241  0.75521081  1
  O  O110  1  0.51230857  0.83112496  0.75310070  1
