# generated using pymatgen
data_K3NO4
_symmetry_space_group_name_H-M   'P 1'
_cell_length_a   5.67896763
_cell_length_b   7.92291416
_cell_length_c   10.87878269
_cell_angle_alpha   90.00000000
_cell_angle_beta   90.00000000
_cell_angle_gamma   90.00000000
_symmetry_Int_Tables_number   1
_chemical_formula_structural   K3NO4
_chemical_formula_sum   'K12 N4 O16'
_cell_volume   489.47965517
_cell_formula_units_Z   4
loop_
 _symmetry_equiv_pos_site_id
 _symmetry_equiv_pos_as_xyz
  1  'x, y, z'
loop_
 _atom_site_type_symbol
 _atom_site_label
 _atom_site_symmetry_multiplicity
 _atom_site_fract_x
 _atom_site_fract_y
 _atom_site_fract_z
 _atom_site_occupancy
  K  K0  1  0.67506971  0.49156389  0.35648122  1
  K  K1  1  0.17506971  0.50843611  0.14351878  1
  K  K2  1  0.32493029  0.99156389  0.64351878  1
  K  K3  1  0.82493029  0.00843611  0.85648122  1
  K  K4  1  0.32493029  0.50843611  0.64351878  1
  K  K5  1  0.82493029  0.49156389  0.85648122  1
  K  K6  1  0.67506971  0.00843611  0.35648122  1
  K  K7  1  0.17506971  0.99156389  0.14351878  1
  K  K8  1  0.87520361  0.75000000  0.56816975  1
  K  K9  1  0.37520361  0.25000000  0.93183025  1
  K  K10  1  0.12479639  0.25000000  0.43183025  1
  K  K11  1  0.62479639  0.75000000  0.06816975  1
  N  N12  1  0.28701036  0.75000000  0.38365661  1
  N  N13  1  0.21298964  0.75000000  0.88365661  1
  N  N14  1  0.71298964  0.25000000  0.61634339  1
  N  N15  1  0.78701036  0.25000000  0.11634339  1
  O  O16  1  0.35142961  0.60524577  0.89202344  1
  O  O17  1  0.85142961  0.39475423  0.60797656  1
  O  O18  1  0.64857039  0.10524577  0.10797656  1
  O  O19  1  0.14857039  0.89475423  0.39202344  1
  O  O20  1  0.09240000  0.75000000  0.77220437  1
  O  O21  1  0.59240000  0.25000000  0.72779563  1
  O  O22  1  0.90760000  0.25000000  0.22779563  1
  O  O23  1  0.40760000  0.75000000  0.27220437  1
  O  O24  1  0.64857039  0.39475423  0.10797656  1
  O  O25  1  0.85142961  0.10524577  0.60797656  1
  O  O26  1  0.35142961  0.89475423  0.89202344  1
  O  O27  1  0.14857039  0.60524577  0.39202344  1
  O  O28  1  0.45098881  0.75000000  0.47961464  1
  O  O29  1  0.95098881  0.25000000  0.02038536  1
  O  O30  1  0.54901119  0.25000000  0.52038536  1
  O  O31  1  0.04901119  0.75000000  0.97961464  1
