# generated using pymatgen
data_Ba2MgNiWO6
_symmetry_space_group_name_H-M   'P 1'
_cell_length_a   6.26038342
_cell_length_b   6.26038327
_cell_length_c   6.26676154
_cell_angle_alpha   57.05276782
_cell_angle_beta   57.05276856
_cell_angle_gamma   57.00424556
_symmetry_Int_Tables_number   1
_chemical_formula_structural   Ba2MgNiWO6
_chemical_formula_sum   'Ba2 Mg1 Ni1 W1 O6'
_cell_volume   161.80725652
_cell_formula_units_Z   1
loop_
 _symmetry_equiv_pos_site_id
 _symmetry_equiv_pos_as_xyz
  1  'x, y, z'
loop_
 _atom_site_type_symbol
 _atom_site_label
 _atom_site_symmetry_multiplicity
 _atom_site_fract_x
 _atom_site_fract_y
 _atom_site_fract_z
 _atom_site_occupancy
  Ba  Ba0  1  0.21902143  0.21902143  0.21912884  1
  Ba  Ba1  1  0.75728948  0.75728948  0.75799385  1
  Mg  Mg2  1  0.43311382  0.43311382  0.43353040  1
  Ni  Ni3  1  0.58421420  0.58421420  0.58179982  1
  W  W4  1  0.98231635  0.98231635  0.98261340  1
  O  O5  1  0.20817079  0.75685469  0.75863740  1
  O  O6  1  0.21461422  0.74715997  0.21486963  1
  O  O7  1  0.75685469  0.20817079  0.75863740  1
  O  O8  1  0.21458747  0.21458747  0.74759358  1
  O  O9  1  0.74715997  0.21461422  0.21486963  1
  O  O10  1  0.75765758  0.75765758  0.20793004  1
