# generated using pymatgen
data_Na3Al2Ge2P5SO24
_symmetry_space_group_name_H-M   'P 1'
_cell_length_a   8.41327097
_cell_length_b   8.38857155
_cell_length_c   21.69336971
_cell_angle_alpha   90.32321086
_cell_angle_beta   89.93169625
_cell_angle_gamma   119.89582090
_symmetry_Int_Tables_number   1
_chemical_formula_structural   Na3Al2Ge2P5SO24
_chemical_formula_sum   'Na9 Al6 Ge6 P15 S3 O72'
_cell_volume   1327.26556557
_cell_formula_units_Z   3
loop_
 _symmetry_equiv_pos_site_id
 _symmetry_equiv_pos_as_xyz
  1  'x, y, z'
loop_
 _atom_site_type_symbol
 _atom_site_label
 _atom_site_symmetry_multiplicity
 _atom_site_fract_x
 _atom_site_fract_y
 _atom_site_fract_z
 _atom_site_occupancy
  Na  Na0  1  0.00154288  0.36444768  0.75061203  1
  Na  Na1  1  0.66740986  0.96725993  0.58328409  1
  Na  Na2  1  0.03381856  0.33332260  0.08332847  1
  Na  Na3  1  0.00533064  0.99720382  0.50048636  1
  Na  Na4  1  0.00274160  0.99491090  0.00015422  1
  Na  Na5  1  0.65974542  0.32977727  0.83411398  1
  Na  Na6  1  0.67235664  0.33560208  0.33328181  1
  Na  Na7  1  0.34062454  0.67045956  0.16735952  1
  Na  Na8  1  0.33364746  0.66701478  0.66668377  1
  Al  Al9  1  0.00428112  0.99910816  0.64658523  1
  Al  Al10  1  0.99366641  0.99674450  0.14630934  1
  Al  Al11  1  0.33029060  0.67045948  0.01999616  1
  Al  Al12  1  0.32936804  0.67064502  0.51991495  1
  Al  Al13  1  0.33108832  0.66590198  0.31365695  1
  Al  Al14  1  0.33288782  0.67379208  0.81331536  1
  Ge  Ge15  1  0.98181156  0.98779922  0.35215532  1
  Ge  Ge16  1  0.01028063  0.00689004  0.85134960  1
  Ge  Ge17  1  0.66265865  0.33490825  0.68579997  1
  Ge  Ge18  1  0.67416040  0.34041736  0.18517463  1
  Ge  Ge19  1  0.66582667  0.32575343  0.98135822  1
  Ge  Ge20  1  0.67421014  0.33394700  0.48114036  1
  P  P21  1  0.70729872  0.71071236  0.24846727  1
  P  P22  1  0.00231613  0.28907510  0.24935063  1
  P  P23  1  0.29141642  0.28957578  0.74897769  1
  P  P24  1  0.00098204  0.71710953  0.74911468  1
  P  P25  1  0.70811617  0.99289256  0.74901228  1
  P  P26  1  0.96202770  0.33816460  0.58394308  1
  P  P27  1  0.37526664  0.04791871  0.58253451  1
  P  P28  1  0.66556872  0.61936945  0.58275039  1
  P  P29  1  0.95453737  0.62651757  0.08236370  1
  P  P30  1  0.66100889  0.03968208  0.08414855  1
  P  P31  1  0.38128378  0.33346577  0.08342907  1
  P  P32  1  0.04570229  0.37950316  0.91655334  1
  P  P33  1  0.33267965  0.95305374  0.91681903  1
  P  P34  1  0.61697687  0.95267358  0.41677592  1
  P  P35  1  0.04772705  0.66773676  0.41598444  1
  S  S36  1  0.28678949  0.99936755  0.24954675  1
  S  S37  1  0.61970424  0.66703364  0.91658276  1
  S  S38  1  0.33285226  0.37905054  0.41641310  1
  O  O39  1  0.21039236  0.03793328  0.30653283  1
  O  O40  1  0.82935306  0.78528546  0.30768177  1
  O  O41  1  0.96332307  0.16671576  0.30788019  1
  O  O42  1  0.21335544  0.17109336  0.80806944  1
  O  O43  1  0.95887746  0.79337033  0.80873529  1
  O  O44  1  0.83693854  0.04349627  0.80688719  1
  O  O45  1  0.79442378  0.96670007  0.69072222  1
  O  O46  1  0.16585391  0.20549248  0.69346829  1
  O  O47  1  0.03320647  0.83276738  0.69257849  1
  O  O48  1  0.79839193  0.83050819  0.19270953  1
  O  O49  1  0.03362259  0.20407330  0.19113268  1
  O  O50  1  0.17410036  0.96883249  0.19448552  1
  O  O51  1  0.87749487  0.37372009  0.64302110  1
  O  O52  1  0.50504495  0.12702203  0.64004902  1
  O  O53  1  0.62622999  0.49939873  0.64098669  1
  O  O54  1  0.87709922  0.49774728  0.13965786  1
  O  O55  1  0.62474301  0.12663866  0.14187667  1
  O  O56  1  0.50184699  0.37229914  0.14166432  1
  O  O57  1  0.46306485  0.29446733  0.02502024  1
  O  O58  1  0.83136414  0.53955538  0.02481887  1
  O  O59  1  0.71234224  0.16877225  0.02690961  1
  O  O60  1  0.46215600  0.16917214  0.52484599  1
  O  O61  1  0.70495154  0.53668254  0.52467784  1
  O  O62  1  0.83097750  0.28797418  0.52724988  1
  O  O63  1  0.54042598  0.69806394  0.97254845  1
  O  O64  1  0.16085902  0.46019567  0.97511622  1
  O  O65  1  0.30093960  0.83825447  0.97440186  1
  O  O66  1  0.54003787  0.83983993  0.47576926  1
  O  O67  1  0.30135434  0.45854072  0.47237393  1
  O  O68  1  0.16194529  0.70011194  0.47410137  1
  O  O69  1  0.12969969  0.63288518  0.35850166  1
  O  O70  1  0.50179374  0.86734535  0.35945071  1
  O  O71  1  0.36489648  0.48954484  0.36097351  1
  O  O72  1  0.12867167  0.49284509  0.85820096  1
  O  O73  1  0.36848249  0.87213594  0.85907759  1
  O  O74  1  0.50905627  0.63501360  0.86097432  1
  O  O75  1  0.02786726  0.84377278  0.40887714  1
  O  O76  1  0.81476341  0.97855409  0.41072314  1
  O  O77  1  0.16755970  0.19209806  0.41000533  1
  O  O78  1  0.02097769  0.18232896  0.90980789  1
  O  O79  1  0.15853954  0.97394769  0.91001268  1
  O  O80  1  0.80583020  0.83323900  0.91088278  1
  O  O81  1  0.97309752  0.16259066  0.59144773  1
  O  O82  1  0.18884108  0.02955380  0.59094683  1
  O  O83  1  0.83445901  0.81065666  0.59040471  1
  O  O84  1  0.97392828  0.81391951  0.09176768  1
  O  O85  1  0.83617557  0.02763576  0.09130092  1
  O  O86  1  0.18967676  0.16425946  0.09146986  1
  O  O87  1  0.69378938  0.17221833  0.74333753  1
  O  O88  1  0.48238198  0.30728963  0.74274078  1
  O  O89  1  0.82916677  0.51893714  0.74357161  1
  O  O90  1  0.68889924  0.51616153  0.24271011  1
  O  O91  1  0.82540568  0.30531526  0.24321780  1
  O  O92  1  0.47211392  0.16604100  0.24436244  1
  O  O93  1  0.64031173  0.50044780  0.92220767  1
  O  O94  1  0.85132303  0.35969218  0.92341936  1
  O  O95  1  0.50504550  0.14990879  0.92348893  1
  O  O96  1  0.63953444  0.14880967  0.42344706  1
  O  O97  1  0.49914422  0.35891525  0.42226194  1
  O  O98  1  0.85084671  0.49591281  0.42318159  1
  O  O99  1  0.35808335  0.50256255  0.07516035  1
  O  O100  1  0.14181318  0.63878591  0.07515990  1
  O  O101  1  0.49341620  0.85279483  0.07490212  1
  O  O102  1  0.36247856  0.85939067  0.57555591  1
  O  O103  1  0.49653563  0.64177009  0.57472955  1
  O  O104  1  0.14768294  0.50691506  0.57482039  1
  O  O105  1  0.30573763  0.83556208  0.25667904  1
  O  O106  1  0.51930292  0.69133660  0.25864597  1
  O  O107  1  0.17035734  0.47882792  0.25849588  1
  O  O108  1  0.30962302  0.47910558  0.75895036  1
  O  O109  1  0.16607690  0.68767792  0.75748798  1
  O  O110  1  0.52052863  0.82596851  0.75850609  1
