# generated using pymatgen
data_Na6Ca4Zr4Si3(S3O16)3
_symmetry_space_group_name_H-M   'P 1'
_cell_length_a   18.38872781
_cell_length_b   9.13861883
_cell_length_c   23.80741590
_cell_angle_alpha   89.92983371
_cell_angle_beta   89.97501026
_cell_angle_gamma   119.86250439
_symmetry_Int_Tables_number   1
_chemical_formula_structural   Na6Ca4Zr4Si3(S3O16)3
_chemical_formula_sum   'Na18 Ca12 Zr12 Si9 S27 O144'
_cell_volume   3469.56113710
_cell_formula_units_Z   3
loop_
 _symmetry_equiv_pos_site_id
 _symmetry_equiv_pos_as_xyz
  1  'x, y, z'
loop_
 _atom_site_type_symbol
 _atom_site_label
 _atom_site_symmetry_multiplicity
 _atom_site_fract_x
 _atom_site_fract_y
 _atom_site_fract_z
 _atom_site_occupancy
  Na  Na0  1  0.99765778  0.63025420  0.25114098  1
  Na  Na1  1  0.49893352  0.61695908  0.23982694  1
  Na  Na2  1  0.00258832  0.37512776  0.73937832  1
  Na  Na3  1  0.49758176  0.36770773  0.74994779  1
  Na  Na4  1  0.67680375  0.33142840  0.91020767  1
  Na  Na5  1  0.17399524  0.02662820  0.41568987  1
  Na  Na6  1  0.99097381  0.01191631  0.50440551  1
  Na  Na7  1  0.50541690  0.01147440  0.49979759  1
  Na  Na8  1  0.00186930  0.99239946  0.99032132  1
  Na  Na9  1  0.49120488  0.97071492  0.99761589  1
  Na  Na10  1  0.30042253  0.29427801  0.83216070  1
  Na  Na11  1  0.83879586  0.36691866  0.83756040  1
  Na  Na12  1  0.33356460  0.30666883  0.34121314  1
  Na  Na13  1  0.81449930  0.32799582  0.34371037  1
  Na  Na14  1  0.17773921  0.64622884  0.16119390  1
  Na  Na15  1  0.66271487  0.66050319  0.16131259  1
  Na  Na16  1  0.16222185  0.64583680  0.67274441  1
  Na  Na17  1  0.68104933  0.71313069  0.66514591  1
  Ca  Ca18  1  0.99415436  0.00154675  0.35421415  1
  Ca  Ca19  1  0.49421318  0.98583100  0.85298454  1
  Ca  Ca20  1  0.31677779  0.32556974  0.68585565  1
  Ca  Ca21  1  0.83301148  0.32232089  0.67735255  1
  Ca  Ca22  1  0.33126331  0.34053702  0.17724859  1
  Ca  Ca23  1  0.82632410  0.32267878  0.18104086  1
  Ca  Ca24  1  0.83916699  0.34156915  0.98533124  1
  Ca  Ca25  1  0.33882657  0.33729823  0.48690171  1
  Ca  Ca26  1  0.17190431  0.66815035  0.31528682  1
  Ca  Ca27  1  0.67559774  0.66082325  0.31653522  1
  Ca  Ca28  1  0.17400761  0.68286734  0.81353557  1
  Ca  Ca29  1  0.67340208  0.67739131  0.81488082  1
  Zr  Zr30  1  0.50153159  0.01714632  0.36178656  1
  Zr  Zr31  1  0.00831819  0.99530136  0.85775037  1
  Zr  Zr32  1  0.00352956  0.01839805  0.64725084  1
  Zr  Zr33  1  0.50679170  0.99735965  0.64606360  1
  Zr  Zr34  1  0.00719496  0.01656047  0.14511909  1
  Zr  Zr35  1  0.49692639  0.98911029  0.14299362  1
  Zr  Zr36  1  0.32659186  0.33594045  0.98845668  1
  Zr  Zr37  1  0.82607589  0.31839014  0.49006362  1
  Zr  Zr38  1  0.16233514  0.66377256  0.01401562  1
  Zr  Zr39  1  0.67036863  0.67438281  0.01481364  1
  Zr  Zr40  1  0.16997525  0.66600519  0.51701101  1
  Zr  Zr41  1  0.66346522  0.65799358  0.51599473  1
  Si  Si42  1  0.14433416  0.29459885  0.75280708  1
  Si  Si43  1  0.98529333  0.33753259  0.58485594  1
  Si  Si44  1  0.68200069  0.02210918  0.58534813  1
  Si  Si45  1  0.48694123  0.62798972  0.08651557  1
  Si  Si46  1  0.18355760  0.34520764  0.08575903  1
  Si  Si47  1  0.81565447  0.66541825  0.91500989  1
  Si  Si48  1  0.17378882  0.97203147  0.91693826  1
  Si  Si49  1  0.31216779  0.96610320  0.41520814  1
  Si  Si50  1  0.67447349  0.37416568  0.41635380  1
  S  S51  1  0.14461665  0.99810974  0.25004383  1
  S  S52  1  0.63896445  0.99749508  0.24997761  1
  S  S53  1  0.36081583  0.71888661  0.25110353  1
  S  S54  1  0.85614078  0.71003333  0.24554677  1
  S  S55  1  0.99892355  0.29722312  0.24710432  1
  S  S56  1  0.49889376  0.28517082  0.25007946  1
  S  S57  1  0.64495219  0.29173431  0.75008427  1
  S  S58  1  0.99661293  0.71011449  0.74934176  1
  S  S59  1  0.50091725  0.70186649  0.74702266  1
  S  S60  1  0.35814311  0.00374900  0.74532161  1
  S  S61  1  0.85875669  0.00148797  0.75084678  1
  S  S62  1  0.48775652  0.33425824  0.58745159  1
  S  S63  1  0.17765005  0.02233639  0.58066142  1
  S  S64  1  0.33458368  0.64440963  0.58367142  1
  S  S65  1  0.83228614  0.63377802  0.58146576  1
  S  S66  1  0.98818630  0.64128228  0.08780723  1
  S  S67  1  0.33197002  0.02990473  0.08236635  1
  S  S68  1  0.83308345  0.02322915  0.08476894  1
  S  S69  1  0.67834478  0.33337796  0.08238868  1
  S  S70  1  0.31417115  0.66388777  0.92030539  1
  S  S71  1  0.01993257  0.36857316  0.91419017  1
  S  S72  1  0.51743140  0.37330014  0.91810609  1
  S  S73  1  0.66532438  0.96658415  0.91847975  1
  S  S74  1  0.81331414  0.96552264  0.41986925  1
  S  S75  1  0.16618034  0.36577256  0.41829178  1
  S  S76  1  0.01754646  0.66088286  0.41714502  1
  S  S77  1  0.52061307  0.67061802  0.41272910  1
  O  O78  1  0.10506780  0.00715320  0.30316478  1
  O  O79  1  0.59497071  0.00657333  0.30072119  1
  O  O80  1  0.41060648  0.81608743  0.30032542  1
  O  O81  1  0.90228738  0.78789720  0.29795371  1
  O  O82  1  0.49979138  0.19188161  0.30168474  1
  O  O83  1  0.99361288  0.20527921  0.29865538  1
  O  O84  1  0.08722856  0.17724940  0.80634963  1
  O  O85  1  0.60566212  0.20367525  0.80353356  1
  O  O86  1  0.49516844  0.78289629  0.79861866  1
  O  O87  1  0.99416250  0.79896110  0.80155796  1
  O  O88  1  0.40420511  0.01686405  0.79781479  1
  O  O89  1  0.90520394  -0.00144734  0.80085430  1
  O  O90  1  0.40807721  0.99549263  0.69644938  1
  O  O91  1  0.90230136  0.99323975  0.69792177  1
  O  O92  1  0.08899723  0.18367619  0.69510974  1
  O  O93  1  0.59067129  0.18309971  0.70165144  1
  O  O94  1  0.99603027  0.80557407  0.69875759  1
  O  O95  1  0.50353772  0.80608268  0.69678666  1
  O  O96  1  0.40602362  0.81550810  0.19827721  1
  O  O97  1  0.90595366  0.81402402  0.19633496  1
  O  O98  1  0.00126511  0.19943858  0.19678570  1
  O  O99  1  0.50087973  0.19122091  0.19949810  1
  O  O100  1  0.09040842  0.99810800  0.20147128  1
  O  O101  1  0.58989719  0.99402540  0.19833424  1
  O  O102  1  0.45248452  0.36207267  0.63888459  1
  O  O103  1  0.95908039  0.37389103  0.64543754  1
  O  O104  1  0.23149187  0.10042546  0.62940928  1
  O  O105  1  0.73258245  0.08738720  0.64237595  1
  O  O106  1  0.32224836  0.54140043  0.63353385  1
  O  O107  1  0.81502261  0.53567545  0.63299934  1
  O  O108  1  0.46029125  0.54286841  0.14791466  1
  O  O109  1  0.95247962  0.54268775  0.13988850  1
  O  O110  1  0.31707830  0.09497124  0.13435226  1
  O  O111  1  0.81955546  0.09964661  0.13520275  1
  O  O112  1  0.23326117  0.37837449  0.14327309  1
  O  O113  1  0.73094163  0.36035005  0.13204495  1
  O  O114  1  0.22993179  0.30963360  0.03214011  1
  O  O115  1  0.71089691  0.29733502  0.03139960  1
  O  O116  1  0.41951654  0.52312690  0.03639259  1
  O  O117  1  0.93500846  0.56477654  0.03892109  1
  O  O118  1  0.34679883  0.14106818  0.03351752  1
  O  O119  1  0.84850279  0.12529362  0.03447115  1
  O  O120  1  0.21109391  0.12294245  0.52890859  1
  O  O121  1  0.72750662  0.15017975  0.53121957  1
  O  O122  1  0.35035754  0.57563876  0.53259939  1
  O  O123  1  0.84246120  0.54515895  0.53212530  1
  O  O124  1  0.43589030  0.30550670  0.53759071  1
  O  O125  1  0.91828076  0.31422274  0.53430364  1
  O  O126  1  0.26424898  0.67113289  0.96905277  1
  O  O127  1  0.76524814  0.68610271  0.97188292  1
  O  O128  1  0.07356218  0.46183572  0.96490318  1
  O  O129  1  0.57781310  0.47779814  0.96412800  1
  O  O130  1  0.16045343  0.84764399  0.97229171  1
  O  O131  1  0.65949980  0.86050820  0.96872168  1
  O  O132  1  0.26462892  0.84492457  0.47084518  1
  O  O133  1  0.76292162  0.85620487  0.46776369  1
  O  O134  1  0.16098426  0.46052209  0.46787717  1
  O  O135  1  0.65872510  0.47070710  0.47010126  1
  O  O136  1  0.07743454  0.67675199  0.46274089  1
  O  O137  1  0.57433052  0.68789696  0.46248445  1
  O  O138  1  0.04772747  0.63658145  0.36202701  1
  O  O139  1  0.55807771  0.65399294  0.36020596  1
  O  O140  1  0.25411889  0.88479270  0.36074575  1
  O  O141  1  0.77000309  0.89966351  0.36623904  1
  O  O142  1  0.16923404  0.45281878  0.36580874  1
  O  O143  1  0.68753153  0.47065410  0.35812908  1
  O  O144  1  0.05818992  0.46291779  0.86276505  1
  O  O145  1  0.54781854  0.45905216  0.86348254  1
  O  O146  1  0.18804014  0.89885685  0.86018196  1
  O  O147  1  0.66801391  0.88419565  0.86660314  1
  O  O148  1  0.27140574  0.64476709  0.86730549  1
  O  O149  1  0.75112176  0.61922335  0.86319758  1
  O  O150  1  0.01752445  0.82484250  0.41771065  1
  O  O151  1  0.51587986  0.83117526  0.41089331  1
  O  O152  1  0.40679042  0.97923156  0.40974174  1
  O  O153  1  0.89647506  0.97646258  0.42146229  1
  O  O154  1  0.09038442  0.19268516  0.41998332  1
  O  O155  1  0.58673685  0.18268260  0.41303048  1
  O  O156  1  0.01512521  0.20029154  0.91468338  1
  O  O157  1  0.51777094  0.20972999  0.91903592  1
  O  O158  1  0.08699533  0.98793283  0.91488863  1
  O  O159  1  0.58949034  0.98737372  0.92052342  1
  O  O160  1  0.39774591  0.81936071  0.92257175  1
  O  O161  1  0.90709122  0.84039619  0.90959662  1
  O  O162  1  0.49942404  0.18231402  0.59366063  1
  O  O163  1  0.99176123  0.15980802  0.58648835  1
  O  O164  1  0.09097163  0.99563358  0.59015352  1
  O  O165  1  0.58620453  0.00380721  0.58933020  1
  O  O166  1  0.40834375  0.81980137  0.59206050  1
  O  O167  1  0.90933592  0.80219871  0.58532717  1
  O  O168  1  0.49441536  0.82303451  0.08987631  1
  O  O169  1  0.99907077  0.81546262  0.09465879  1
  O  O170  1  0.41036479  0.01398996  0.08805840  1
  O  O171  1  0.90730276  0.99789400  0.09380350  1
  O  O172  1  0.08755876  0.17101386  0.09046567  1
  O  O173  1  0.59152155  0.18477435  0.09307963  1
  O  O174  1  0.35578114  0.16378242  0.74057528  1
  O  O175  1  0.85782457  0.16333308  0.75074487  1
  O  O176  1  0.23504065  0.30815368  0.75399457  1
  O  O177  1  0.72983962  0.31977206  0.74498721  1
  O  O178  1  0.42770445  0.53060643  0.74209420  1
  O  O179  1  0.92130777  0.53880227  0.75040473  1
  O  O180  1  0.35884537  0.55482307  0.25088506  1
  O  O181  1  0.85057597  0.54105428  0.24179675  1
  O  O182  1  0.42219877  0.29957635  0.25154003  1
  O  O183  1  0.92437737  0.32002596  0.24290917  1
  O  O184  1  0.22974323  0.14052829  0.24502406  1
  O  O185  1  0.72377609  0.14588894  0.24754793  1
  O  O186  1  0.32597178  0.51411270  0.92812023  1
  O  O187  1  0.82419838  0.49729821  0.92358677  1
  O  O188  1  0.43348087  0.34819779  0.93015018  1
  O  O189  1  0.93564499  0.34549267  0.92208515  1
  O  O190  1  0.25526141  0.16031139  0.93042994  1
  O  O191  1  0.74058386  0.13504986  0.92354603  1
  O  O192  1  0.32322993  0.15278330  0.42275847  1
  O  O193  1  0.82481178  0.13855299  0.42710660  1
  O  O194  1  0.24152074  0.34713134  0.42289368  1
  O  O195  1  0.75502136  0.34725459  0.42799235  1
  O  O196  1  0.43572190  0.52706305  0.42027542  1
  O  O197  1  0.93274035  0.51732094  0.42784481  1
  O  O198  1  0.16559317  0.50060752  0.07174454  1
  O  O199  1  0.66710648  0.48388666  0.07584534  1
  O  O200  1  0.07390409  0.66419000  0.07926235  1
  O  O201  1  0.58178442  0.66570472  0.06998028  1
  O  O202  1  0.26103029  0.85587096  0.07230111  1
  O  O203  1  0.75770581  0.85060337  0.07847368  1
  O  O204  1  0.16700387  0.84924782  0.57351490  1
  O  O205  1  0.66459678  0.83174670  0.56923499  1
  O  O206  1  0.25860376  0.66420202  0.57718492  1
  O  O207  1  0.75923299  0.66236684  0.57079882  1
  O  O208  1  0.07925540  0.49201495  0.56619703  1
  O  O209  1  0.57407531  0.48311686  0.57810953  1
  O  O210  1  0.14098073  0.83130454  0.24569560  1
  O  O211  1  0.64077901  0.83655610  0.24910472  1
  O  O212  1  0.27679839  0.70005432  0.24931619  1
  O  O213  1  0.77267084  0.69550023  0.24371621  1
  O  O214  1  0.07549727  0.46684584  0.24497622  1
  O  O215  1  0.57415334  0.45706730  0.24922522  1
  O  O216  1  0.14265383  0.47011083  0.74860911  1
  O  O217  1  0.64076415  0.45073587  0.74582207  1
  O  O218  1  0.07339407  0.69617814  0.74869173  1
  O  O219  1  0.57853815  0.68936311  0.74519281  1
  O  O220  1  0.27461995  0.85430254  0.74343760  1
  O  O221  1  0.77308781  0.85434272  0.74869217  1
