# generated using pymatgen
data_Na2Sc4Nb4Si5S7O48
_symmetry_space_group_name_H-M   'P 1'
_cell_length_a   17.81813189
_cell_length_b   8.90927398
_cell_length_c   23.17578076
_cell_angle_alpha   90.00212137
_cell_angle_beta   89.92352539
_cell_angle_gamma   120.06845319
_symmetry_Int_Tables_number   1
_chemical_formula_structural   Na2Sc4Nb4Si5S7O48
_chemical_formula_sum   'Na6 Sc12 Nb12 Si15 S21 O144'
_cell_volume   3183.97028529
_cell_formula_units_Z   3
loop_
 _symmetry_equiv_pos_site_id
 _symmetry_equiv_pos_as_xyz
  1  'x, y, z'
loop_
 _atom_site_type_symbol
 _atom_site_label
 _atom_site_symmetry_multiplicity
 _atom_site_fract_x
 _atom_site_fract_y
 _atom_site_fract_z
 _atom_site_occupancy
  Na  Na0  1  0.00049561  0.99178345  0.49599612  1
  Na  Na1  1  0.49686206  0.00423600  0.99450285  1
  Na  Na2  1  0.33251856  0.32040635  0.84328526  1
  Na  Na3  1  0.83333867  0.33728525  0.83782394  1
  Na  Na4  1  0.33062606  0.32641161  0.33405421  1
  Na  Na5  1  0.84085231  0.34526933  0.33650958  1
  Sc  Sc6  1  0.00699116  0.99274953  0.35545586  1
  Sc  Sc7  1  0.50487772  0.01959157  0.85617860  1
  Sc  Sc8  1  0.00514147  0.00639086  0.65183876  1
  Sc  Sc9  1  0.50471902  0.00540268  0.15023165  1
  Sc  Sc10  1  0.32826374  0.32472661  0.97568631  1
  Sc  Sc11  1  0.83896798  0.33272693  0.98304672  1
  Sc  Sc12  1  0.33832519  0.34498912  0.48349036  1
  Sc  Sc13  1  0.83295977  0.33253954  0.47920595  1
  Sc  Sc14  1  0.15717911  0.67106990  0.30959012  1
  Sc  Sc15  1  0.66732378  0.67059122  0.30554633  1
  Sc  Sc16  1  0.16705367  0.67269377  0.80658457  1
  Sc  Sc17  1  0.65830775  0.64435777  0.80940147  1
  Nb  Nb18  1  0.50317633  0.01331029  0.35172886  1
  Nb  Nb19  1  0.00868001  0.99261357  0.85529044  1
  Nb  Nb20  1  0.50401155  0.01084856  0.64036779  1
  Nb  Nb21  1  0.00554793  0.00087446  0.13952985  1
  Nb  Nb22  1  0.33409494  0.34660784  0.68792625  1
  Nb  Nb23  1  0.82989312  0.32716245  0.69184181  1
  Nb  Nb24  1  0.32998607  0.32881910  0.18822712  1
  Nb  Nb25  1  0.83308787  0.32142321  0.18604420  1
  Nb  Nb26  1  0.16192319  0.66689514  0.02364174  1
  Nb  Nb27  1  0.66552838  0.66235799  0.02122757  1
  Nb  Nb28  1  0.16540110  0.66902291  0.52182582  1
  Nb  Nb29  1  0.66439100  0.66916222  0.52589927  1
  Si  Si30  1  0.14094102  0.99803287  0.25053736  1
  Si  Si31  1  0.64736090  0.00755545  0.24886995  1
  Si  Si32  1  0.49944601  0.29151940  0.24755289  1
  Si  Si33  1  0.14640490  0.28979403  0.74995232  1
  Si  Si34  1  0.63995484  0.28330131  0.75107939  1
  Si  Si35  1  0.00015442  0.71186208  0.74817389  1
  Si  Si36  1  0.47300607  0.33127948  0.58205033  1
  Si  Si37  1  0.69358112  0.05450610  0.58205464  1
  Si  Si38  1  0.33175381  0.62183973  0.58314110  1
  Si  Si39  1  0.97391504  0.61598290  0.08217276  1
  Si  Si40  1  0.83190903  0.04003232  0.08256208  1
  Si  Si41  1  0.19447799  0.34209892  0.08122964  1
  Si  Si42  1  0.51976278  0.37430903  0.91623115  1
  Si  Si43  1  0.17099558  0.95317860  0.91440161  1
  Si  Si44  1  0.01834216  0.66404324  0.41641313  1
  S  S45  1  0.35639202  0.70940360  0.25153298  1
  S  S46  1  0.85922620  0.71107927  0.24911907  1
  S  S47  1  0.99783852  0.28166670  0.25014129  1
  S  S48  1  0.49864053  0.71547606  0.75013656  1
  S  S49  1  0.35961993  0.00722270  0.74782558  1
  S  S50  1  0.85552740  0.00093138  0.75150385  1
  S  S51  1  0.97837736  0.33251831  0.58204042  1
  S  S52  1  0.18819818  0.04433485  0.58146668  1
  S  S53  1  0.83418213  0.62413043  0.58162215  1
  S  S54  1  0.47814099  0.62357378  0.08176574  1
  S  S55  1  0.33474377  0.04463088  0.08239437  1
  S  S56  1  0.68856496  0.33247082  0.08151203  1
  S  S57  1  0.31078074  0.67079217  0.91731027  1
  S  S58  1  0.80993178  0.66779675  0.91564294  1
  S  S59  1  0.02198536  0.37592059  0.91531217  1
  S  S60  1  0.66731574  0.95297524  0.91659758  1
  S  S61  1  0.31072248  0.95318211  0.41553039  1
  S  S62  1  0.80978254  0.95080159  0.41744203  1
  S  S63  1  0.16744568  0.38201334  0.41675427  1
  S  S64  1  0.66576186  0.37987551  0.41581936  1
  S  S65  1  0.52388346  0.66860468  0.41561182  1
  O  O66  1  0.10626390  0.04716860  0.30784830  1
  O  O67  1  0.59410482  0.03410009  0.30675073  1
  O  O68  1  0.41428076  0.79488449  0.30355033  1
  O  O69  1  0.91294035  0.78660248  0.30140006  1
  O  O70  1  0.47998443  0.15749182  0.30687592  1
  O  O71  1  0.97974397  0.17651674  0.30248321  1
  O  O72  1  0.09535495  0.15561094  0.80681919  1
  O  O73  1  0.60447703  0.16324125  0.80751193  1
  O  O74  1  0.48065865  0.78445292  0.80212961  1
  O  O75  1  0.97905470  0.79984082  0.80646809  1
  O  O76  1  0.41280311  0.04043238  0.80011106  1
  O  O77  1  0.91103068  0.03416904  0.80245599  1
  O  O78  1  0.40270683  0.98710970  0.69626473  1
  O  O79  1  0.89336270  0.97915880  0.69817360  1
  O  O80  1  0.09017469  0.20446798  0.69278142  1
  O  O81  1  0.58141327  0.17986064  0.69471438  1
  O  O82  1  0.00607717  0.82084716  0.69185120  1
  O  O83  1  0.50474274  0.81355739  0.69781515  1
  O  O84  1  0.39469036  0.81038966  0.19921504  1
  O  O85  1  0.89915499  0.81681106  0.19752816  1
  O  O86  1  0.00427658  0.19568883  0.19830647  1
  O  O87  1  0.50740153  0.19331453  0.19275422  1
  O  O88  1  0.08059629  0.98165752  0.19540665  1
  O  O89  1  0.58947670  0.97733765  0.19302033  1
  O  O90  1  0.42820040  0.36346940  0.63862772  1
  O  O91  1  0.94144058  0.36375765  0.63469057  1
  O  O92  1  0.24016113  0.12184001  0.63402610  1
  O  O93  1  0.75765935  0.14497255  0.63758467  1
  O  O94  1  0.31281716  0.49175808  0.64017587  1
  O  O95  1  0.81956978  0.51707592  0.63390159  1
  O  O96  1  0.44127901  0.51814325  0.13529626  1
  O  O97  1  0.92576570  0.49331266  0.13950517  1
  O  O98  1  0.32298617  0.13046460  0.13553364  1
  O  O99  1  0.81263613  0.13248749  0.14052924  1
  O  O100  1  0.25727063  0.37164887  0.13907447  1
  O  O101  1  0.74074244  0.35672363  0.13450996  1
  O  O102  1  0.23488159  0.29664311  0.02844701  1
  O  O103  1  0.72882049  0.30879299  0.03010736  1
  O  O104  1  0.42569133  0.54014421  0.03134373  1
  O  O105  1  0.91689483  0.53812192  0.02587322  1
  O  O106  1  0.35022932  0.15219038  0.03162430  1
  O  O107  1  0.84982037  0.16192617  0.02806888  1
  O  O108  1  0.22863249  0.14799597  0.52965557  1
  O  O109  1  0.73286571  0.16826786  0.52588977  1
  O  O110  1  0.34991981  0.53847074  0.52769431  1
  O  O111  1  0.84828663  0.54528592  0.53033365  1
  O  O112  1  0.41803422  0.29775859  0.52479253  1
  O  O113  1  0.92580445  0.31230234  0.53079708  1
  O  O114  1  0.26576943  0.68881711  0.96994542  1
  O  O115  1  0.76773092  0.68757906  0.96988131  1
  O  O116  1  0.07312465  0.45455534  0.96982953  1
  O  O117  1  0.58449662  0.48382916  0.97378881  1
  O  O118  1  0.15752000  0.83252394  0.97339103  1
  O  O119  1  0.66216270  0.84683119  0.96974920  1
  O  O120  1  0.26981793  0.84962682  0.46951862  1
  O  O121  1  0.76399195  0.84044073  0.46998836  1
  O  O122  1  0.16218289  0.47751080  0.46962452  1
  O  O123  1  0.65352086  0.45950021  0.46882369  1
  O  O124  1  0.08234913  0.68130135  0.47374453  1
  O  O125  1  0.57605405  0.68951721  0.46958661  1
  O  O126  1  0.06543055  0.64111464  0.36048360  1
  O  O127  1  0.56685494  0.64525704  0.36595479  1
  O  O128  1  0.25836153  0.86667932  0.36490944  1
  O  O129  1  0.75912481  0.86662657  0.36615938  1
  O  O130  1  0.18015181  0.48417788  0.36483046  1
  O  O131  1  0.67754888  0.48428089  0.36500441  1
  O  O132  1  0.06433867  0.48282855  0.86525702  1
  O  O133  1  0.56813129  0.48995795  0.86020173  1
  O  O134  1  0.18030778  0.85946578  0.85943587  1
  O  O135  1  0.68017587  0.87649152  0.86470888  1
  O  O136  1  0.26104636  0.64893732  0.86536100  1
  O  O137  1  0.75707307  0.64738567  0.86495952  1
  O  O138  1  0.01394736  0.84294523  0.41659951  1
  O  O139  1  0.51585919  0.82676741  0.40969579  1
  O  O140  1  0.39763849  0.96521699  0.40974793  1
  O  O141  1  0.89688472  0.96973203  0.41584468  1
  O  O142  1  0.08476798  0.21384925  0.41658836  1
  O  O143  1  0.58330827  0.20310411  0.40932971  1
  O  O144  1  0.01118512  0.19949396  0.90914764  1
  O  O145  1  0.51572629  0.18679709  0.91660201  1
  O  O146  1  0.07749805  0.96011637  0.90796628  1
  O  O147  1  0.58479888  0.95537160  0.91659904  1
  O  O148  1  0.39813986  0.82978901  0.91494568  1
  O  O149  1  0.89535100  0.82918656  0.91086180  1
  O  O150  1  0.49068797  0.17199725  0.59495381  1
  O  O151  1  0.98887299  0.17950705  0.58678586  1
  O  O152  1  0.09928291  0.01452928  0.58644701  1
  O  O153  1  0.59577522  0.01224127  0.59732612  1
  O  O154  1  0.41157400  0.80814906  0.60218984  1
  O  O155  1  0.90623904  0.80226395  0.58788695  1
  O  O156  1  0.48970871  0.79876678  0.08843512  1
  O  O157  1  0.99016896  0.80989569  0.09558896  1
  O  O158  1  0.40825010  0.01498718  0.09047645  1
  O  O159  1  0.91211695  0.01639191  0.10265986  1
  O  O160  1  0.09668642  0.18195555  0.09811655  1
  O  O161  1  0.59986995  0.18326772  0.08723024  1
  O  O162  1  0.34987259  0.16475506  0.73920912  1
  O  O163  1  0.85038611  0.16919369  0.74501945  1
  O  O164  1  0.24117751  0.29234547  0.74149842  1
  O  O165  1  0.73844380  0.30195053  0.73703613  1
  O  O166  1  0.41906167  0.53112352  0.74267386  1
  O  O167  1  0.91051815  0.51686107  0.73865600  1
  O  O168  1  0.35307217  0.53632488  0.24664697  1
  O  O169  1  0.84924524  0.53395061  0.24139103  1
  O  O170  1  0.41201551  0.30937350  0.24066451  1
  O  O171  1  0.91860715  0.30717831  0.24281416  1
  O  O172  1  0.23957248  0.17515137  0.23633506  1
  O  O173  1  0.74119958  0.19209629  0.24388477  1
  O  O174  1  0.32154728  0.51744997  0.92427212  1
  O  O175  1  0.81980371  0.51346559  0.92177380  1
  O  O176  1  0.42751644  0.36099446  0.92475595  1
  O  O177  1  0.93389819  0.35661010  0.92091558  1
  O  O178  1  0.24845267  0.14896948  0.92034560  1
  O  O179  1  0.74222394  0.13078966  0.92379505  1
  O  O180  1  0.32173652  0.12808651  0.42114188  1
  O  O181  1  0.81654250  0.12279799  0.42372399  1
  O  O182  1  0.24224745  0.35378637  0.42372570  1
  O  O183  1  0.73955761  0.35035442  0.42167717  1
  O  O184  1  0.43610620  0.51413860  0.42105471  1
  O  O185  1  0.92272320  0.49401474  0.42360276  1
  O  O186  1  0.18484425  0.51270235  0.07003767  1
  O  O187  1  0.68310569  0.49517700  0.07505859  1
  O  O188  1  0.06980457  0.63319799  0.07286622  1
  O  O189  1  0.56784548  0.64425803  0.07429676  1
  O  O190  1  0.25351296  0.87294381  0.07683600  1
  O  O191  1  0.74713732  0.84909424  0.07046678  1
  O  O192  1  0.18228468  0.86915159  0.57380605  1
  O  O193  1  0.68307047  0.85802835  0.57011550  1
  O  O194  1  0.24691729  0.64421156  0.56955206  1
  O  O195  1  0.75170781  0.63304407  0.57204452  1
  O  O196  1  0.06787586  0.49096837  0.57371879  1
  O  O197  1  0.57163546  0.50381854  0.56917020  1
  O  O198  1  0.15798558  0.83866342  0.25574951  1
  O  O199  1  0.66444292  0.85444213  0.26475783  1
  O  O200  1  0.27036610  0.68116536  0.26272291  1
  O  O201  1  0.77229857  0.68849700  0.25679995  1
  O  O202  1  0.07533499  0.45390521  0.25493475  1
  O  O203  1  0.58103677  0.47088511  0.26459455  1
  O  O204  1  0.16710121  0.47844292  0.76489858  1
  O  O205  1  0.65747209  0.47685763  0.75476527  1
  O  O206  1  0.07833982  0.68086214  0.75966184  1
  O  O207  1  0.57568854  0.69756416  0.75441546  1
  O  O208  1  0.27389926  0.85401023  0.75249364  1
  O  O209  1  0.76771817  0.85879798  0.75999021  1
