# generated using pymatgen
data_Ba3MgMn3O9
_symmetry_space_group_name_H-M   'P 1'
_cell_length_a   8.30286281
_cell_length_b   9.42247782
_cell_length_c   8.23215613
_cell_angle_alpha   37.84562103
_cell_angle_beta   41.18924662
_cell_angle_gamma   38.33146773
_symmetry_Int_Tables_number   1
_chemical_formula_structural   Ba3MgMn3O9
_chemical_formula_sum   'Ba3 Mg1 Mn3 O9'
_cell_volume   229.58759902
_cell_formula_units_Z   1
loop_
 _symmetry_equiv_pos_site_id
 _symmetry_equiv_pos_as_xyz
  1  'x, y, z'
loop_
 _atom_site_type_symbol
 _atom_site_label
 _atom_site_symmetry_multiplicity
 _atom_site_fract_x
 _atom_site_fract_y
 _atom_site_fract_z
 _atom_site_occupancy
  Ba  Ba0  1  0.81060930  0.65795394  0.79029900  1
  Ba  Ba1  1  0.19593694  0.29698556  0.20378045  1
  Ba  Ba2  1  0.00887930  0.98880697  0.99405232  1
  Mg  Mg3  1  0.74310263  0.03399700  0.76635433  1
  Mn  Mn4  1  0.61495234  0.63252168  0.59981833  1
  Mn  Mn5  1  0.40748490  0.37124065  0.38984492  1
  Mn  Mn6  1  0.45123190  0.57108779  0.47064321  1
  O  O7  1  0.51809392  0.94661571  0.50071918  1
  O  O8  1  0.04395495  0.45963879  0.50250825  1
  O  O9  1  0.52913171  0.46566937  0.00756330  1
  O  O10  1  0.33625851  0.29417881  0.74818424  1
  O  O11  1  0.27096609  0.75820968  0.25665335  1
  O  O12  1  0.74387372  0.30943864  0.32983759  1
  O  O13  1  0.68129249  0.32324568  0.69797983  1
  O  O14  1  0.64303975  0.77382411  0.21370051  1
  O  O15  1  0.15119156  0.75825262  0.68639620  1
