# generated using pymatgen
data_MgFe4(HO2)4
_symmetry_space_group_name_H-M   'P 1'
_cell_length_a   8.05625978
_cell_length_b   8.05625978
_cell_length_c   8.24764952
_cell_angle_alpha   96.56113908
_cell_angle_beta   87.58213964
_cell_angle_gamma   157.85174480
_symmetry_Int_Tables_number   1
_chemical_formula_structural   MgFe4(HO2)4
_chemical_formula_sum   'Mg1 Fe4 H4 O8'
_cell_volume   197.57277905
_cell_formula_units_Z   1
loop_
 _symmetry_equiv_pos_site_id
 _symmetry_equiv_pos_as_xyz
  1  'x, y, z'
loop_
 _atom_site_type_symbol
 _atom_site_label
 _atom_site_symmetry_multiplicity
 _atom_site_fract_x
 _atom_site_fract_y
 _atom_site_fract_z
 _atom_site_occupancy
  Mg  Mg0  1  0.56115900  0.06115900  0.50000000  1
  Fe  Fe1  1  0.30818100  0.80011400  0.17590800  1
  Fe  Fe2  1  0.62420600  0.13227300  0.82409200  1
  Fe  Fe3  1  0.19476900  0.38339800  0.48944300  1
  Fe  Fe4  1  0.89395500  0.70532700  0.51055700  1
  H  H5  1  0.04417200  0.79806100  0.92925200  1
  H  H6  1  0.86881000  0.11492100  0.07074800  1
  H  H7  1  0.21877200  0.13015200  0.25815300  1
  H  H8  1  0.87199800  0.96061800  0.74184700  1
  O  O9  1  0.11224800  0.74967200  0.95911900  1
  O  O10  1  0.79055300  0.15312900  0.04088100  1
  O  O11  1  0.26525000  0.20064100  0.37763300  1
  O  O12  1  0.82300800  0.88761700  0.62236700  1
  O  O13  1  0.58881600  0.85970400  0.36593200  1
  O  O14  1  0.49377300  0.22288500  0.63406800  1
  O  O15  1  0.16966100  0.56860300  0.64793500  1
  O  O16  1  0.92066800  0.52172600  0.35206500  1
