# generated using pymatgen
data_Na10Hf5Mg3(PO4)12
_symmetry_space_group_name_H-M   'P 1'
_cell_length_a   17.90239761
_cell_length_b   8.95717321
_cell_length_c   22.60713244
_cell_angle_alpha   89.98967512
_cell_angle_beta   89.98705429
_cell_angle_gamma   120.04854151
_symmetry_Int_Tables_number   1
_chemical_formula_structural   Na10Hf5Mg3(PO4)12
_chemical_formula_sum   'Na30 Hf15 Mg9 P36 O144'
_cell_volume   3137.94702758
_cell_formula_units_Z   3
loop_
 _symmetry_equiv_pos_site_id
 _symmetry_equiv_pos_as_xyz
  1  'x, y, z'
loop_
 _atom_site_type_symbol
 _atom_site_label
 _atom_site_symmetry_multiplicity
 _atom_site_fract_x
 _atom_site_fract_y
 _atom_site_fract_z
 _atom_site_occupancy
  Na  Na0  1  0.32108714  0.00933772  0.24906068  1
  Na  Na1  1  0.68475001  0.35824783  0.24893454  1
  Na  Na2  1  0.31802191  0.62731425  0.74883702  1
  Na  Na3  1  0.81792929  0.62697324  0.74873846  1
  Na  Na4  1  0.15401296  0.34532606  0.57917900  1
  Na  Na5  1  0.65398641  0.34458044  0.57840593  1
  Na  Na6  1  0.01800655  0.69159011  0.57939570  1
  Na  Na7  1  0.51817096  0.69236936  0.57950544  1
  Na  Na8  1  0.32762830  0.96327935  0.57950397  1
  Na  Na9  1  0.82759070  0.96472754  0.57934360  1
  Na  Na10  1  0.15398910  0.96329211  0.07924329  1
  Na  Na11  1  0.65445955  0.96433251  0.07983510  1
  Na  Na12  1  0.32758989  0.69069323  0.07999149  1
  Na  Na13  1  0.82775563  0.69181638  0.07935162  1
  Na  Na14  1  0.01764488  0.34475990  0.07951813  1
  Na  Na15  1  0.51785514  0.34426609  0.08017319  1
  Na  Na16  1  0.66123526  0.02834170  0.41178484  1
  Na  Na17  1  0.35216054  0.67642397  0.41101221  1
  Na  Na18  1  0.00014997  0.99915727  0.49420691  1
  Na  Na19  1  0.49956807  0.01340820  0.48974379  1
  Na  Na20  1  0.99998602  0.99974817  0.99555797  1
  Na  Na21  1  0.49998052  0.99955610  0.99584854  1
  Na  Na22  1  0.33370821  0.32109943  0.82933251  1
  Na  Na23  1  0.83364183  0.32123436  0.82932010  1
  Na  Na24  1  0.33503088  0.33834103  0.32498558  1
  Na  Na25  1  0.84286874  0.34028325  0.32554876  1
  Na  Na26  1  0.16259463  0.65512710  0.16526497  1
  Na  Na27  1  0.66564862  0.67699956  0.16523446  1
  Na  Na28  1  0.16182423  0.66739699  0.66602604  1
  Na  Na29  1  0.66198575  0.66765903  0.66605112  1
  Hf  Hf30  1  0.00015158  0.99951961  0.35203044  1
  Hf  Hf31  1  0.00084462  0.00226361  0.85400513  1
  Hf  Hf32  1  0.50085109  0.00241145  0.85395558  1
  Hf  Hf33  1  0.00131142  0.00307154  0.65014130  1
  Hf  Hf34  1  0.50143910  0.00234277  0.64961421  1
  Hf  Hf35  1  0.99988441  -0.00002183  0.15013578  1
  Hf  Hf36  1  0.50006519  0.99731903  0.15102515  1
  Hf  Hf37  1  0.33316339  0.33419007  0.97849444  1
  Hf  Hf38  1  0.83347955  0.33428211  0.97853294  1
  Hf  Hf39  1  0.33275449  0.32509792  0.47895105  1
  Hf  Hf40  1  0.83587149  0.33975575  0.47870671  1
  Hf  Hf41  1  0.16422090  0.66158318  0.31423542  1
  Hf  Hf42  1  0.66490026  0.66770479  0.31512047  1
  Hf  Hf43  1  0.16419633  0.66753640  0.81630220  1
  Hf  Hf44  1  0.66413186  0.66733323  0.81634921  1
  Mg  Mg45  1  0.49934858  0.00517455  0.35039204  1
  Mg  Mg46  1  0.33362703  0.32741279  0.68669960  1
  Mg  Mg47  1  0.83361658  0.32707346  0.68656943  1
  Mg  Mg48  1  0.33405538  0.34166958  0.18591834  1
  Mg  Mg49  1  0.83580618  0.33049154  0.18614502  1
  Mg  Mg50  1  0.16665590  0.66680704  0.01491918  1
  Mg  Mg51  1  0.66665250  0.66680875  0.01488027  1
  Mg  Mg52  1  0.16555976  0.66645459  0.51487748  1
  Mg  Mg53  1  0.66693123  0.66443444  0.51464606  1
  P  P54  1  0.14882059  0.00241724  0.24986141  1
  P  P55  1  0.64860352  0.00214575  0.25236780  1
  P  P56  1  0.35314581  0.70218211  0.25329308  1
  P  P57  1  0.85226647  0.70219723  0.25010189  1
  P  P58  1  0.99803175  0.29331942  0.25004603  1
  P  P59  1  0.49866443  0.29329644  0.25085788  1
  P  P60  1  0.14885265  0.29592473  0.75026257  1
  P  P61  1  0.64872997  0.29565503  0.75015768  1
  P  P62  1  0.99954029  0.70416634  0.74966912  1
  P  P63  1  0.49952123  0.70414108  0.74967218  1
  P  P64  1  0.35285598  0.00267918  0.75034187  1
  P  P65  1  0.85268209  0.00251233  0.75047329  1
  P  P66  1  0.47978988  0.33628685  0.58516629  1
  P  P67  1  0.97958276  0.33626896  0.58481902  1
  P  P68  1  0.18801118  0.04031016  0.58502187  1
  P  P69  1  0.68833863  0.04094798  0.58370228  1
  P  P70  1  0.33241934  0.62457263  0.58482675  1
  P  P71  1  0.83246223  0.62557747  0.58632051  1
  P  P72  1  0.47954890  0.62304815  0.08445691  1
  P  P73  1  0.97937342  0.62315900  0.08483866  1
  P  P74  1  0.33222406  0.04025526  0.08582116  1
  P  P75  1  0.83216755  0.04109859  0.08443814  1
  P  P76  1  0.18810802  0.33529087  0.08453527  1
  P  P77  1  0.68788456  0.33548015  0.08583454  1
  P  P78  1  0.31266032  0.66708341  0.91809000  1
  P  P79  1  0.81264056  0.66693672  0.91807974  1
  P  P80  1  0.02058987  0.37429791  0.91962269  1
  P  P81  1  0.52061000  0.37425079  0.91967981  1
  P  P82  1  0.16644958  0.95882755  0.91953545  1
  P  P83  1  0.66642646  0.95894793  0.91952051  1
  P  P84  1  0.31368497  0.95718832  0.41771889  1
  P  P85  1  0.81328628  0.95806312  0.41968456  1
  P  P86  1  0.16560139  0.37343020  0.41982846  1
  P  P87  1  0.66466871  0.37052924  0.41837109  1
  P  P88  1  0.02156411  0.66945702  0.41915610  1
  P  P89  1  0.51999709  0.66858011  0.41942963  1
  O  O90  1  0.09972393  0.01940575  0.30308998  1
  O  O91  1  0.60497103  0.02587158  0.30662389  1
  O  O92  1  0.40536495  0.79068738  0.30825273  1
  O  O93  1  0.91005941  0.80073067  0.30329741  1
  O  O94  1  0.48599827  0.17696466  0.30276390  1
  O  O95  1  0.99069699  0.17830543  0.30343550  1
  O  O96  1  0.09966237  0.18009040  0.80290507  1
  O  O97  1  0.59962383  0.18014032  0.80291427  1
  O  O98  1  0.48863311  0.80206247  0.80215825  1
  O  O99  1  0.98869498  0.80219889  0.80213784  1
  O  O100  1  0.41042494  0.01777974  0.80329881  1
  O  O101  1  0.91043401  0.01794695  0.80331023  1
  O  O102  1  0.39489062  0.97033152  0.69357248  1
  O  O103  1  0.89466260  0.97027520  0.69366166  1
  O  O104  1  0.09363270  0.21253337  0.69296072  1
  O  O105  1  0.59346553  0.21211642  0.69292266  1
  O  O106  1  0.01301994  0.81592810  0.69248051  1
  O  O107  1  0.51306118  0.81577552  0.69245429  1
  O  O108  1  0.39604850  0.82169481  0.19648210  1
  O  O109  1  0.89442783  0.81328370  0.19325429  1
  O  O110  1  0.01181146  0.20894457  0.19301798  1
  O  O111  1  0.51582348  0.21244086  0.19305161  1
  O  O112  1  0.09339838  0.97625588  0.19305896  1
  O  O113  1  0.59142988  0.97456818  0.19511811  1
  O  O114  1  0.43769987  0.36586058  0.63852088  1
  O  O115  1  0.93757522  0.36555980  0.63832513  1
  O  O116  1  0.24463116  0.12529211  0.63840198  1
  O  O117  1  0.74591547  0.12872157  0.63645264  1
  O  O118  1  0.31927541  0.51573971  0.63990982  1
  O  O119  1  0.81911206  0.51861416  0.64189963  1
  O  O120  1  0.43767304  0.51013194  0.13782355  1
  O  O121  1  0.93713048  0.51062753  0.13828686  1
  O  O122  1  0.31864029  0.11933768  0.14155342  1
  O  O123  1  0.81737234  0.12412173  0.13790527  1
  O  O124  1  0.24429859  0.36307584  0.13792184  1
  O  O125  1  0.74117212  0.36281562  0.14148803  1
  O  O126  1  0.22891490  0.30054346  0.02875008  1
  O  O127  1  0.73146828  0.30261308  0.03136446  1
  O  O128  1  0.42108200  0.54199245  0.02875815  1
  O  O129  1  0.92110625  0.54197008  0.02903524  1
  O  O130  1  0.34884808  0.16069174  0.03144072  1
  O  O131  1  0.85001626  0.15847643  0.02885227  1
  O  O132  1  0.22874953  0.15657465  0.52922987  1
  O  O133  1  0.72741147  0.15317499  0.52664666  1
  O  O134  1  0.34846983  0.54060044  0.52917235  1
  O  O135  1  0.84905044  0.53839748  0.53191680  1
  O  O136  1  0.42108528  0.30008722  0.52952083  1
  O  O137  1  0.92121763  0.30095056  0.52917538  1
  O  O138  1  0.27338836  0.69222215  0.97381944  1
  O  O139  1  0.77338021  0.69202954  0.97384000  1
  O  O140  1  0.07108436  0.44946231  0.97607297  1
  O  O141  1  0.57116862  0.44947749  0.97612753  1
  O  O142  1  0.15328210  0.85763542  0.97599752  1
  O  O143  1  0.65328192  0.85768192  0.97595880  1
  O  O144  1  0.27181850  0.84933801  0.47336947  1
  O  O145  1  0.77559026  0.85850835  0.47666878  1
  O  O146  1  0.15312371  0.44879223  0.47662984  1
  O  O147  1  0.65552095  0.45352086  0.47470030  1
  O  O148  1  0.07082492  0.69426313  0.47639396  1
  O  O149  1  0.57323948  0.69460976  0.47531212  1
  O  O150  1  0.06680941  0.64479025  0.36484642  1
  O  O151  1  0.56514289  0.64264995  0.36484319  1
  O  O152  1  0.25712863  0.86969621  0.36173972  1
  O  O153  1  0.75349239  0.86818345  0.36583564  1
  O  O154  1  0.18067515  0.49231293  0.36574654  1
  O  O155  1  0.67771627  0.48355821  0.36236203  1
  O  O156  1  0.06639056  0.48866698  0.86468085  1
  O  O157  1  0.56624863  0.48881359  0.86474541  1
  O  O158  1  0.17799930  0.86765007  0.86454528  1
  O  O159  1  0.67812911  0.86790708  0.86452663  1
  O  O160  1  0.25778070  0.64445693  0.86147283  1
  O  O161  1  0.75774408  0.64425333  0.86148611  1
  O  O162  1  0.00981840  0.82863136  0.40983168  1
  O  O163  1  0.50891630  0.82743129  0.41188596  1
  O  O164  1  0.40275893  0.97397421  0.41108135  1
  O  O165  1  0.90448250  0.98308779  0.40994131  1
  O  O166  1  0.08729343  0.19078139  0.41011595  1
  O  O167  1  0.58813640  0.18679216  0.41164792  1
  O  O168  1  0.00959885  0.19200471  0.90999244  1
  O  O169  1  0.50959101  0.19199087  0.91003746  1
  O  O170  1  0.08641645  0.98116083  0.90972491  1
  O  O171  1  0.58636329  0.98114444  0.90968627  1
  O  O172  1  0.40433718  0.82754395  0.90946640  1
  O  O173  1  0.90436641  0.82733457  0.90946227  1
  O  O174  1  0.48759956  0.16824309  0.58986372  1
  O  O175  1  0.98753455  0.16805206  0.58968325  1
  O  O176  1  0.09602506  0.02472362  0.58943100  1
  O  O177  1  0.59647145  0.02569866  0.58906831  1
  O  O178  1  0.41638378  0.80892114  0.58912518  1
  O  O179  1  0.91652815  0.80961285  0.58948106  1
  O  O180  1  0.48729379  0.80724417  0.08953321  1
  O  O181  1  0.98756808  0.80781285  0.08949575  1
  O  O182  1  0.41624607  0.02372210  0.08958120  1
  O  O183  1  0.91632479  0.02455022  0.08936836  1
  O  O184  1  0.09567107  0.16694441  0.08930667  1
  O  O185  1  0.59588079  0.16663352  0.08931838  1
  O  O186  1  0.34324254  0.15995778  0.74559402  1
  O  O187  1  0.84308613  0.15983604  0.74550046  1
  O  O188  1  0.23924739  0.32041950  0.74583695  1
  O  O189  1  0.73913124  0.31988914  0.74586968  1
  O  O190  1  0.41703902  0.52981439  0.74505297  1
  O  O191  1  0.91711121  0.52967373  0.74511573  1
  O  O192  1  0.34080082  0.52364140  0.24500084  1
  O  O193  1  0.84038494  0.52222178  0.24611950  1
  O  O194  1  0.41887714  0.31115477  0.24297609  1
  O  O195  1  0.91858134  0.31043875  0.24631113  1
  O  O196  1  0.23939035  0.15769542  0.24612353  1
  O  O197  1  0.73657825  0.16495642  0.24434684  1
  O  O198  1  0.32196394  0.50323063  0.92154694  1
  O  O199  1  0.82185900  0.50309655  0.92161546  1
  O  O200  1  0.42930535  0.35494011  0.92227093  1
  O  O201  1  0.92938323  0.35557143  0.92204801  1
  O  O202  1  0.24853292  0.14084879  0.92215281  1
  O  O203  1  0.74825342  0.14136147  0.92228481  1
  O  O204  1  0.32144964  0.13907855  0.42213599  1
  O  O205  1  0.81895689  0.13857391  0.42271831  1
  O  O206  1  0.25054902  0.36326439  0.42311046  1
  O  O207  1  0.74856634  0.35289323  0.42213243  1
  O  O208  1  0.42750250  0.50558759  0.42318052  1
  O  O209  1  0.92996513  0.50482404  0.42204229  1
  O  O210  1  0.17449146  0.49110243  0.07706233  1
  O  O211  1  0.67479140  0.49147524  0.07737648  1
  O  O212  1  0.07105292  0.65085955  0.07733553  1
  O  O213  1  0.57139816  0.65178283  0.07693117  1
  O  O214  1  0.25426337  0.85759774  0.07739898  1
  O  O215  1  0.75447718  0.85754920  0.07679759  1
  O  O216  1  0.17433798  0.85743014  0.57750830  1
  O  O217  1  0.67415038  0.85721054  0.57723796  1
  O  O218  1  0.25421276  0.65109862  0.57751821  1
  O  O219  1  0.75417779  0.65073167  0.57798778  1
  O  O220  1  0.07128165  0.49161778  0.57727314  1
  O  O221  1  0.57133142  0.49146416  0.57720145  1
  O  O222  1  0.15632821  0.83657764  0.25565291  1
  O  O223  1  0.65637301  0.83659797  0.25628034  1
  O  O224  1  0.26340409  0.69722076  0.25586188  1
  O  O225  1  0.76149173  0.68548890  0.25638926  1
  O  O226  1  0.08203529  0.47146319  0.25618336  1
  O  O227  1  0.58409052  0.47216414  0.25580951  1
  O  O228  1  0.15707252  0.47734043  0.75579200  1
  O  O229  1  0.65708154  0.47724990  0.75581118  1
  O  O230  1  0.08164341  0.69001094  0.75566407  1
  O  O231  1  0.58160149  0.68985798  0.75570964  1
  O  O232  1  0.26465604  0.83040763  0.75589184  1
  O  O233  1  0.76455005  0.83031729  0.75595633  1
