# generated using pymatgen
data_Na2HfMg3(SO4)6
_symmetry_space_group_name_H-M   'P 1'
_cell_length_a   8.68418192
_cell_length_b   8.68418165
_cell_length_c   22.90044070
_cell_angle_alpha   90.00000000
_cell_angle_beta   90.00000000
_cell_angle_gamma   120.00000104
_symmetry_Int_Tables_number   1
_chemical_formula_structural   Na2HfMg3(SO4)6
_chemical_formula_sum   'Na6 Hf3 Mg9 S18 O72'
_cell_volume   1495.65793348
_cell_formula_units_Z   3
loop_
 _symmetry_equiv_pos_site_id
 _symmetry_equiv_pos_as_xyz
  1  'x, y, z'
loop_
 _atom_site_type_symbol
 _atom_site_label
 _atom_site_symmetry_multiplicity
 _atom_site_fract_x
 _atom_site_fract_y
 _atom_site_fract_z
 _atom_site_occupancy
  Na  Na0  1  0.00000000  0.00000000  0.50942348  1
  Na  Na1  1  0.00000000  0.00000000  0.00675143  1
  Na  Na2  1  0.66666700  0.33333300  0.82668752  1
  Na  Na3  1  0.66666700  0.33333300  0.33749011  1
  Na  Na4  1  0.33333300  0.66666700  0.17804830  1
  Na  Na5  1  0.33333300  0.66666700  0.65750008  1
  Hf  Hf6  1  0.00000000  0.00000000  0.35417219  1
  Hf  Hf7  1  0.00000000  0.00000000  0.84868382  1
  Hf  Hf8  1  0.33333300  0.66666700  0.02167995  1
  Mg  Mg9  1  0.00000000  0.00000000  0.64365889  1
  Mg  Mg10  1  0.00000000  0.00000000  0.15186799  1
  Mg  Mg11  1  0.66666700  0.33333300  0.67727560  1
  Mg  Mg12  1  0.66666700  0.33333300  0.18791976  1
  Mg  Mg13  1  0.66666700  0.33333300  0.98376419  1
  Mg  Mg14  1  0.66666700  0.33333300  0.48651527  1
  Mg  Mg15  1  0.33333300  0.66666700  0.52043206  1
  Mg  Mg16  1  0.33333300  0.66666700  0.31793904  1
  Mg  Mg17  1  0.33333300  0.66666700  0.81131037  1
  S  S18  1  0.29469337  0.99814313  0.24815803  1
  S  S19  1  0.70344976  0.70530663  0.24815803  1
  S  S20  1  0.00185687  0.29655024  0.24815803  1
  S  S21  1  0.29725776  0.29654653  0.74778609  1
  S  S22  1  0.99928877  0.70274224  0.74778609  1
  S  S23  1  0.70345347  0.00071123  0.74778609  1
  S  S24  1  0.96193723  0.33467719  0.58338289  1
  S  S25  1  0.37274096  0.03806277  0.58338289  1
  S  S26  1  0.66532281  0.62725904  0.58338289  1
  S  S27  1  0.95228749  0.62640774  0.08339974  1
  S  S28  1  0.67412124  0.04771251  0.08339974  1
  S  S29  1  0.37359226  0.32587876  0.08339974  1
  S  S30  1  0.62341401  0.66212755  0.91541752  1
  S  S31  1  0.03871254  0.37658599  0.91541752  1
  S  S32  1  0.33787245  0.96128746  0.91541752  1
  S  S33  1  0.61921471  0.95983221  0.41664845  1
  S  S34  1  0.34061650  0.38078529  0.41664845  1
  S  S35  1  0.04016779  0.65938350  0.41664845  1
  O  O36  1  0.20444161  0.02110998  0.30121710  1
  O  O37  1  0.81666837  0.79555839  0.30121710  1
  O  O38  1  0.97889002  0.18333163  0.30121710  1
  O  O39  1  0.20669910  0.18362809  0.80382702  1
  O  O40  1  0.97692899  0.79330090  0.80382702  1
  O  O41  1  0.81637191  0.02307101  0.80382702  1
  O  O42  1  0.79211671  0.97687634  0.69806182  1
  O  O43  1  0.18475963  0.20788329  0.69806182  1
  O  O44  1  0.02312366  0.81524037  0.69806182  1
  O  O45  1  0.78717974  0.81278977  0.19571992  1
  O  O46  1  0.02561003  0.21282026  0.19571992  1
  O  O47  1  0.18721023  0.97438997  0.19571992  1
  O  O48  1  0.88136048  0.35915675  0.63711226  1
  O  O49  1  0.47779727  0.11863952  0.63711226  1
  O  O50  1  0.64084325  0.52220273  0.63711226  1
  O  O51  1  0.87665254  0.51747595  0.13539950  1
  O  O52  1  0.64082441  0.12334746  0.13539950  1
  O  O53  1  0.48252405  0.35917559  0.13539950  1
  O  O54  1  0.45476195  0.30695363  0.02957713  1
  O  O55  1  0.85219268  0.54523805  0.02957713  1
  O  O56  1  0.69304637  0.14780732  0.02957713  1
  O  O57  1  0.45560931  0.14608112  0.53093864  1
  O  O58  1  0.69047281  0.54439069  0.53093864  1
  O  O59  1  0.85391888  0.30952719  0.53093864  1
  O  O60  1  0.53986760  0.69015007  0.96931138  1
  O  O61  1  0.15028147  0.46013240  0.96931138  1
  O  O62  1  0.30984993  0.84971853  0.96931138  1
  O  O63  1  0.54388038  0.85097415  0.46849056  1
  O  O64  1  0.30709277  0.45611962  0.46849056  1
  O  O65  1  0.14902585  0.69290723  0.46849056  1
  O  O66  1  0.12111387  0.64015980  0.36282148  1
  O  O67  1  0.51904493  0.87888613  0.36282148  1
  O  O68  1  0.35984020  0.48095507  0.36282148  1
  O  O69  1  0.12483846  0.48144468  0.86396661  1
  O  O70  1  0.35660522  0.87516154  0.86396661  1
  O  O71  1  0.51855532  0.64339478  0.86396661  1
  O  O72  1  0.02124244  0.82614661  0.40886150  1
  O  O73  1  0.80490417  0.97875756  0.40886150  1
  O  O74  1  0.17385339  0.19509583  0.40886150  1
  O  O75  1  0.02421135  0.19610054  0.91198198  1
  O  O76  1  0.17188919  0.97578865  0.91198198  1
  O  O77  1  0.80389946  0.82811081  0.91198198  1
  O  O78  1  0.97937189  0.17322751  0.58890968  1
  O  O79  1  0.19385561  0.02062811  0.58890968  1
  O  O80  1  0.82677249  0.80614439  0.58890968  1
  O  O81  1  0.97951816  0.80690473  0.08880571  1
  O  O82  1  0.82738657  0.02048184  0.08880571  1
  O  O83  1  0.19309527  0.17261343  0.08880571  1
  O  O84  1  0.69037533  0.16272357  0.74587052  1
  O  O85  1  0.47234924  0.30962467  0.74587052  1
  O  O86  1  0.83727643  0.52765076  0.74587052  1
  O  O87  1  0.69091574  0.52980792  0.24469569  1
  O  O88  1  0.83889319  0.30908426  0.24469569  1
  O  O89  1  0.47019208  0.16110681  0.24469569  1
  O  O90  1  0.64533906  0.50694441  0.92352382  1
  O  O91  1  0.86160634  0.35466094  0.92352382  1
  O  O92  1  0.49305559  0.13839366  0.92352382  1
  O  O93  1  0.64643338  0.14048318  0.42225286  1
  O  O94  1  0.49405080  0.35356662  0.42225286  1
  O  O95  1  0.85951682  0.50594920  0.42225286  1
  O  O96  1  0.35459764  0.49244819  0.07599748  1
  O  O97  1  0.13784955  0.64540236  0.07599748  1
  O  O98  1  0.50755181  0.86215045  0.07599748  1
  O  O99  1  0.35414100  0.85935606  0.57792440  1
  O  O100  1  0.50521406  0.64585900  0.57792440  1
  O  O101  1  0.14064394  0.49478594  0.57792440  1
  O  O102  1  0.31144033  0.83894934  0.25575799  1
  O  O103  1  0.52750801  0.68855967  0.25575799  1
  O  O104  1  0.16105066  0.47249199  0.25575799  1
  O  O105  1  0.31146578  0.47047759  0.75714221  1
  O  O106  1  0.15901081  0.68853422  0.75714221  1
  O  O107  1  0.52952241  0.84098919  0.75714221  1
