# generated using pymatgen
data_Na5La2Sc2P5SO24
_symmetry_space_group_name_H-M   'P 1'
_cell_length_a   9.27387087
_cell_length_b   9.25249518
_cell_length_c   23.32016896
_cell_angle_alpha   90.31441197
_cell_angle_beta   89.88379732
_cell_angle_gamma   120.09017689
_symmetry_Int_Tables_number   1
_chemical_formula_structural   Na5La2Sc2P5SO24
_chemical_formula_sum   'Na15 La6 Sc6 P15 S3 O72'
_cell_volume   1731.33134795
_cell_formula_units_Z   3
loop_
 _symmetry_equiv_pos_site_id
 _symmetry_equiv_pos_as_xyz
  1  'x, y, z'
loop_
 _atom_site_type_symbol
 _atom_site_label
 _atom_site_symmetry_multiplicity
 _atom_site_fract_x
 _atom_site_fract_y
 _atom_site_fract_z
 _atom_site_occupancy
  Na  Na0  1  0.64205419  0.00188435  0.24948635  1
  Na  Na1  1  0.99784324  0.35869703  0.74908122  1
  Na  Na2  1  0.35515307  0.99756004  0.74847595  1
  Na  Na3  1  0.03165428  0.69562949  0.57025644  1
  Na  Na4  1  0.66177631  0.97150050  0.57575344  1
  Na  Na5  1  0.30709229  0.97760452  0.09189420  1
  Na  Na6  1  0.02195236  0.32957254  0.09279686  1
  Na  Na7  1  0.97751106  0.66390260  0.92601347  1
  Na  Na8  1  0.70049818  0.67409687  0.41317246  1
  Na  Na9  1  0.02966189  0.02451424  0.49351528  1
  Na  Na10  1  0.99750665  0.00877207  0.00688329  1
  Na  Na11  1  0.65462323  0.32312051  0.83456363  1
  Na  Na12  1  0.69278410  0.34115707  0.33299116  1
  Na  Na13  1  0.34439427  0.63832892  0.16991055  1
  Na  Na14  1  0.35518075  0.65209781  0.66424758  1
  La  La15  1  0.99625442  0.01014078  0.85693479  1
  La  La16  1  0.00070764  0.99902279  0.64471409  1
  La  La17  1  0.66410287  0.35017449  0.67893176  1
  La  La18  1  0.65976657  0.32230562  0.99390252  1
  La  La19  1  0.32520738  0.65837289  0.50115816  1
  La  La20  1  0.34738612  0.66954773  0.82119869  1
  Sc  Sc21  1  0.98669678  0.99206698  0.34385966  1
  Sc  Sc22  1  0.99019983  0.99699169  0.15585991  1
  Sc  Sc23  1  0.67411199  0.35260268  0.18381830  1
  Sc  Sc24  1  0.66934430  0.32594281  0.47871752  1
  Sc  Sc25  1  0.33273922  0.66756325  0.02304529  1
  Sc  Sc26  1  0.31822826  0.66154030  0.31616622  1
  P  P27  1  0.69667251  0.70204632  0.25230567  1
  P  P28  1  0.99637118  0.29659831  0.24862442  1
  P  P29  1  0.30483249  0.30448371  0.75062074  1
  P  P30  1  0.00173846  0.69296818  0.75299031  1
  P  P31  1  0.69053816  0.00250212  0.74403090  1
  P  P32  1  0.96288529  0.33623460  0.57953643  1
  P  P33  1  0.37027962  0.03344922  0.57768259  1
  P  P34  1  0.66885341  0.63816061  0.56861966  1
  P  P35  1  0.97332632  0.64251131  0.08517846  1
  P  P36  1  0.66725618  0.02788607  0.09275862  1
  P  P37  1  0.35573469  0.32745410  0.09016824  1
  P  P38  1  0.03722552  0.37223511  0.92385346  1
  P  P39  1  0.32904947  0.96272979  0.92400370  1
  P  P40  1  0.64069973  0.97288784  0.41014466  1
  P  P41  1  0.02243973  0.66993828  0.41433110  1
  S  S42  1  0.29774972  0.99849791  0.24972050  1
  S  S43  1  0.63964571  0.66914352  0.92682003  1
  S  S44  1  0.33185602  0.35333646  0.40872437  1
  O  O45  1  0.20434107  0.01115307  0.29810313  1
  O  O46  1  0.79446439  0.77289026  0.30913740  1
  O  O47  1  0.96599049  0.16848682  0.29643759  1
  O  O48  1  0.20464106  0.20981049  0.80405357  1
  O  O49  1  0.00131764  0.79028841  0.80701708  1
  O  O50  1  0.79838318  0.00181070  0.79434735  1
  O  O51  1  0.77023091  0.00070068  0.68579497  1
  O  O52  1  0.21240645  0.20809582  0.69589357  1
  O  O53  1  0.00049024  0.78395449  0.69734324  1
  O  O54  1  0.79705646  0.82938756  0.20445840  1
  O  O55  1  0.02468336  0.22607663  0.19166209  1
  O  O56  1  0.20783568  0.98149259  0.19512992  1
  O  O57  1  0.89694829  0.34436692  0.63985366  1
  O  O58  1  0.44480377  0.10440191  0.63762620  1
  O  O59  1  0.66663384  0.55448348  0.62543107  1
  O  O60  1  0.86614981  0.50553878  0.13024760  1
  O  O61  1  0.63576490  0.12035394  0.14323957  1
  O  O62  1  0.47995952  0.35195595  0.13884933  1
  O  O63  1  0.41475792  0.28292144  0.03462663  1
  O  O64  1  0.88747224  0.59063035  0.02627997  1
  O  O65  1  0.72051363  0.14008573  0.03913762  1
  O  O66  1  0.48572633  0.14951381  0.52978121  1
  O  O67  1  0.65932369  0.52965702  0.51610935  1
  O  O68  1  0.84705638  0.34321337  0.53260996  1
  O  O69  1  0.52578046  0.65390106  0.97350655  1
  O  O70  1  0.14913548  0.48656586  0.97387013  1
  O  O71  1  0.34187256  0.85892925  0.97461097  1
  O  O72  1  0.58081574  0.87115353  0.46658251  1
  O  O73  1  0.29523925  0.39824104  0.46588133  1
  O  O74  1  0.10178074  0.69606423  0.47456235  1
  O  O75  1  0.13816615  0.65055803  0.36997054  1
  O  O76  1  0.51821028  0.87020542  0.36062672  1
  O  O77  1  0.35441746  0.48408012  0.36616159  1
  O  O78  1  0.11873283  0.44598873  0.86521530  1
  O  O79  1  0.33000979  0.88340836  0.86556399  1
  O  O80  1  0.57545349  0.67929371  0.87035361  1
  O  O81  1  0.00274550  0.82398251  0.40180435  1
  O  O82  1  0.81501844  0.99121263  0.39943124  1
  O  O83  1  0.19256425  0.18694217  0.39402923  1
  O  O84  1  0.01058453  0.19537722  0.93217372  1
  O  O85  1  0.15799586  0.95557214  0.93098146  1
  O  O86  1  0.80507909  0.82117811  0.93606356  1
  O  O87  1  0.96298369  0.16997934  0.57135502  1
  O  O88  1  0.19236236  0.00742601  0.57144830  1
  O  O89  1  0.83694441  0.80700766  0.56490289  1
  O  O90  1  0.00489759  0.81884223  0.10103519  1
  O  O91  1  0.81782294  0.00232830  0.10351839  1
  O  O92  1  0.17919329  0.17283542  0.10097650  1
  O  O93  1  0.67964428  0.16397986  0.75095336  1
  O  O94  1  0.47565237  0.31368394  0.75550688  1
  O  O95  1  0.85170212  0.51244604  0.75581600  1
  O  O96  1  0.67904191  0.52877811  0.24027994  1
  O  O97  1  0.83332593  0.30841531  0.24366930  1
  O  O98  1  0.47071142  0.14760921  0.24763248  1
  O  O99  1  0.66504784  0.52304155  0.92414983  1
  O  O100  1  0.86929622  0.37175204  0.92360918  1
  O  O101  1  0.47698748  0.14308647  0.92329159  1
  O  O102  1  0.65429798  0.14607643  0.41699942  1
  O  O103  1  0.49356721  0.35390597  0.41070088  1
  O  O104  1  0.84523498  0.51095931  0.41454459  1
  O  O105  1  0.33482269  0.48378905  0.08380810  1
  O  O106  1  0.14779770  0.65185150  0.08279328  1
  O  O107  1  0.50221310  0.85952406  0.08300651  1
  O  O108  1  0.35727154  0.85951912  0.57372346  1
  O  O109  1  0.52264165  0.67382853  0.57078848  1
  O  O110  1  0.13842133  0.49302174  0.57492057  1
  O  O111  1  0.31880569  0.84694559  0.25575016  1
  O  O112  1  0.52286421  0.69193596  0.25636043  1
  O  O113  1  0.15037422  0.47163574  0.26101955  1
  O  O114  1  0.31775459  0.47738540  0.74665910  1
  O  O115  1  0.16388335  0.68216664  0.75050327  1
  O  O116  1  0.51093125  0.85121114  0.74492109  1
