# generated using pymatgen
data_BrF5
_symmetry_space_group_name_H-M   'P 1'
_cell_length_a   4.80207753
_cell_length_b   4.80207736
_cell_length_c   7.73188891
_cell_angle_alpha   90.00000000
_cell_angle_beta   90.00000000
_cell_angle_gamma   96.84993357
_symmetry_Int_Tables_number   1
_chemical_formula_structural   BrF5
_chemical_formula_sum   'Br2 F10'
_cell_volume   177.02426042
_cell_formula_units_Z   2
loop_
 _symmetry_equiv_pos_site_id
 _symmetry_equiv_pos_as_xyz
  1  'x, y, z'
loop_
 _atom_site_type_symbol
 _atom_site_label
 _atom_site_symmetry_multiplicity
 _atom_site_fract_x
 _atom_site_fract_y
 _atom_site_fract_z
 _atom_site_occupancy
  Br  Br0  1  0.83067583  0.16932417  0.25323230  1
  Br  Br1  1  0.16932417  0.83067583  0.75323230  1
  F  F2  1  0.09345970  0.46807501  0.24179682  1
  F  F3  1  0.90654030  0.53192499  0.74179682  1
  F  F4  1  0.34524206  0.65475794  0.60076405  1
  F  F5  1  0.65475794  0.34524206  0.10076405  1
  F  F6  1  0.35133977  0.64866023  0.90940091  1
  F  F7  1  0.64866023  0.35133977  0.40940091  1
  F  F8  1  0.01604397  0.98395603  0.56301109  1
  F  F9  1  0.98395603  0.01604397  0.06301109  1
  F  F10  1  0.46807501  0.09345970  0.74179682  1
  F  F11  1  0.53192499  0.90654030  0.24179682  1
