# generated using pymatgen
data_Al2PdCl8
_symmetry_space_group_name_H-M   'P 1'
_cell_length_a   7.31645083
_cell_length_b   6.63507740
_cell_length_c   13.43007231
_cell_angle_alpha   82.85821839
_cell_angle_beta   90.00000000
_cell_angle_gamma   90.00000000
_symmetry_Int_Tables_number   1
_chemical_formula_structural   Al2PdCl8
_chemical_formula_sum   'Al4 Pd2 Cl16'
_cell_volume   646.90753183
_cell_formula_units_Z   2
loop_
 _symmetry_equiv_pos_site_id
 _symmetry_equiv_pos_as_xyz
  1  'x, y, z'
loop_
 _atom_site_type_symbol
 _atom_site_label
 _atom_site_symmetry_multiplicity
 _atom_site_fract_x
 _atom_site_fract_y
 _atom_site_fract_z
 _atom_site_occupancy
  Al  Al0  1  0.27862964  0.65889365  0.10214775  1
  Al  Al1  1  0.22137036  0.65889365  0.60214775  1
  Al  Al2  1  0.72137036  0.34110635  0.89785225  1
  Al  Al3  1  0.77862964  0.34110635  0.39785225  1
  Pd  Pd4  1  0.50000000  0.00000000  0.50000000  1
  Pd  Pd5  1  -0.00000000  0.00000000  -0.00000000  1
  Cl  Cl6  1  0.21609475  0.35422934  0.57470442  1
  Cl  Cl7  1  0.71609475  0.64577066  0.92529558  1
  Cl  Cl8  1  0.27637948  0.86155613  0.95755910  1
  Cl  Cl9  1  0.77637948  0.13844387  0.54244090  1
  Cl  Cl10  1  0.72362052  0.13844387  0.04244090  1
  Cl  Cl11  1  0.22362052  0.86155613  0.45755910  1
  Cl  Cl12  1  0.00386240  0.76372326  0.14383517  1
  Cl  Cl13  1  0.50386240  0.23627674  0.35616483  1
  Cl  Cl14  1  0.99613760  0.23627674  0.85616483  1
  Cl  Cl15  1  0.49613760  0.76372326  0.64383517  1
  Cl  Cl16  1  0.47469063  0.74010405  0.20314241  1
  Cl  Cl17  1  0.97469063  0.25989595  0.29685759  1
  Cl  Cl18  1  0.52530937  0.25989595  0.79685759  1
  Cl  Cl19  1  0.02530937  0.74010405  0.70314241  1
  Cl  Cl20  1  0.28390525  0.35422934  0.07470442  1
  Cl  Cl21  1  0.78390525  0.64577066  0.42529558  1
