# generated using pymatgen
data_Pr2W2O9
_symmetry_space_group_name_H-M   'P 1'
_cell_length_a   9.94581249
_cell_length_b   7.69811443
_cell_length_c   9.29851612
_cell_angle_alpha   72.65095764
_cell_angle_beta   90.00000000
_cell_angle_gamma   90.00000000
_symmetry_Int_Tables_number   1
_chemical_formula_structural   Pr2W2O9
_chemical_formula_sum   'Pr8 W8 O36'
_cell_volume   679.54293272
_cell_formula_units_Z   4
loop_
 _symmetry_equiv_pos_site_id
 _symmetry_equiv_pos_as_xyz
  1  'x, y, z'
loop_
 _atom_site_type_symbol
 _atom_site_label
 _atom_site_symmetry_multiplicity
 _atom_site_fract_x
 _atom_site_fract_y
 _atom_site_fract_z
 _atom_site_occupancy
  Pr  Pr0  1  0.05242201  0.22772113  0.34736878  1
  Pr  Pr1  1  0.55242201  0.77227887  0.15263122  1
  Pr  Pr2  1  0.94757799  0.77227887  0.65263122  1
  Pr  Pr3  1  0.44757799  0.22772113  0.84736878  1
  Pr  Pr4  1  0.45389366  0.28077460  0.42589948  1
  Pr  Pr5  1  0.95389366  0.71922540  0.07410052  1
  Pr  Pr6  1  0.54610634  0.71922540  0.57410052  1
  Pr  Pr7  1  0.04610634  0.28077460  0.92589948  1
  W  W8  1  0.75097532  0.07203602  0.26150601  1
  W  W9  1  0.25097532  0.92796398  0.23849399  1
  W  W10  1  0.24902468  0.92796398  0.73849399  1
  W  W11  1  0.74902468  0.07203602  0.76150601  1
  W  W12  1  0.77294845  0.42502611  0.46461105  1
  W  W13  1  0.27294845  0.57497389  0.03538895  1
  W  W14  1  0.22705155  0.57497389  0.53538895  1
  W  W15  1  0.72705155  0.42502611  0.96461105  1
  O  O16  1  0.78043472  0.90174436  0.16119620  1
  O  O17  1  0.28043472  0.09825564  0.33880380  1
  O  O18  1  0.21956528  0.09825564  0.83880380  1
  O  O19  1  0.71956528  0.90174436  0.66119620  1
  O  O20  1  0.58991996  0.95642912  0.34200948  1
  O  O21  1  0.08991996  0.04357088  0.15799052  1
  O  O22  1  0.41008004  0.04357088  0.65799052  1
  O  O23  1  0.91008004  0.95642912  0.84200948  1
  O  O24  1  0.87838837  0.98880513  0.40367448  1
  O  O25  1  0.37838837  0.01119487  0.09632552  1
  O  O26  1  0.12161163  0.01119487  0.59632552  1
  O  O27  1  0.62161163  0.98880513  0.90367448  1
  O  O28  1  0.62278890  0.22928088  0.07777462  1
  O  O29  1  0.12278890  0.77071912  0.42222538  1
  O  O30  1  0.37721110  0.77071912  0.92222538  1
  O  O31  1  0.87721110  0.22928088  0.57777462  1
  O  O32  1  0.80967318  0.25982067  0.85953136  1
  O  O33  1  0.30967318  0.74017933  0.64046864  1
  O  O34  1  0.19032682  0.74017933  0.14046864  1
  O  O35  1  0.69032682  0.25982067  0.35953136  1
  O  O36  1  0.59730449  0.50671856  0.82459886  1
  O  O37  1  0.09730449  0.49328144  0.67540114  1
  O  O38  1  0.40269551  0.49328144  0.17540114  1
  O  O39  1  0.90269551  0.50671856  0.32459886  1
  O  O40  1  0.78986986  0.58756235  0.57294170  1
  O  O41  1  0.28986986  0.41243765  0.92705830  1
  O  O42  1  0.21013014  0.41243765  0.42705830  1
  O  O43  1  0.71013014  0.58756235  0.07294170  1
  O  O44  1  0.60575909  0.55340216  0.39307224  1
  O  O45  1  0.10575909  0.44659784  0.10692776  1
  O  O46  1  0.39424091  0.44659784  0.60692776  1
  O  O47  1  0.89424091  0.55340216  0.89307224  1
  O  O48  1  0.63516822  0.26242774  0.64009768  1
  O  O49  1  0.13516822  0.73757226  0.85990232  1
  O  O50  1  0.36483178  0.73757226  0.35990232  1
  O  O51  1  0.86483178  0.26242774  0.14009768  1
