# generated using pymatgen
data_Na3Ga4P3(SO8)3
_symmetry_space_group_name_H-M   'P 1'
_cell_length_a   8.57516269
_cell_length_b   8.57681570
_cell_length_c   22.15589709
_cell_angle_alpha   88.93399174
_cell_angle_beta   90.92383411
_cell_angle_gamma   120.05106855
_symmetry_Int_Tables_number   1
_chemical_formula_structural   Na3Ga4P3(SO8)3
_chemical_formula_sum   'Na9 Ga12 P9 S9 O72'
_cell_volume   1410.18500964
_cell_formula_units_Z   3
loop_
 _symmetry_equiv_pos_site_id
 _symmetry_equiv_pos_as_xyz
  1  'x, y, z'
loop_
 _atom_site_type_symbol
 _atom_site_label
 _atom_site_symmetry_multiplicity
 _atom_site_fract_x
 _atom_site_fract_y
 _atom_site_fract_z
 _atom_site_occupancy
  Na  Na0  1  0.36155341  0.36180859  0.25103021  1
  Na  Na1  1  0.69503121  0.02834789  0.91670207  1
  Na  Na2  1  0.97137878  0.30462924  0.41674044  1
  Na  Na3  1  0.00342012  0.99713461  0.50044881  1
  Na  Na4  1  0.00221495  0.99589519  0.00065597  1
  Na  Na5  1  0.66295837  0.33603678  0.83279122  1
  Na  Na6  1  0.66660017  0.33327793  0.33334538  1
  Na  Na7  1  0.33203267  0.67572785  0.16613128  1
  Na  Na8  1  0.33334251  0.66665698  0.66670322  1
  Ga  Ga9  1  0.01524043  0.00363051  0.35095554  1
  Ga  Ga10  1  0.99748686  0.99173231  0.85128266  1
  Ga  Ga11  1  0.99147313  0.00630912  0.64885804  1
  Ga  Ga12  1  0.99907309  0.00540839  0.14927045  1
  Ga  Ga13  1  0.67525255  0.32707739  0.68456187  1
  Ga  Ga14  1  0.66906208  0.31588430  0.18478803  1
  Ga  Ga15  1  0.66011119  0.33117941  0.98193250  1
  Ga  Ga16  1  0.66874957  0.34119452  0.48212138  1
  Ga  Ga17  1  0.34607701  0.68230762  0.01753167  1
  Ga  Ga18  1  0.31864759  0.65428979  0.51765411  1
  Ga  Ga19  1  0.31877306  0.66382167  0.31567628  1
  Ga  Ga20  1  0.34857457  0.67982703  0.81589515  1
  P  P21  1  0.28917950  0.99604805  0.24870026  1
  P  P22  1  0.99703088  0.28882726  0.25051590  1
  P  P23  1  0.70958235  0.99965399  0.75028012  1
  P  P24  1  0.95719836  0.33366229  0.58312601  1
  P  P25  1  0.66821794  0.04162626  0.08276621  1
  P  P26  1  0.62279976  0.66109216  0.91708617  1
  P  P27  1  0.32796763  0.95650976  0.91618886  1
  P  P28  1  0.33876664  0.37832027  0.41661285  1
  P  P29  1  0.04230489  0.67139860  0.41698771  1
  S  S30  1  0.71135407  0.71138539  0.24999313  1
  S  S31  1  0.29150290  0.29159327  0.74992650  1
  S  S32  1  0.00018086  0.70936119  0.74927970  1
  S  S33  1  0.37522989  0.04186508  0.58345224  1
  S  S34  1  0.66647492  0.62392692  0.58409714  1
  S  S35  1  0.95690429  0.62331932  0.08330414  1
  S  S36  1  0.37529426  0.33425344  0.08353528  1
  S  S37  1  0.04828027  0.38145732  0.91666753  1
  S  S38  1  0.62000841  0.95252901  0.41710151  1
  O  O39  1  0.21368451  0.04035445  0.30479702  1
  O  O40  1  0.82160415  0.78820991  0.30497325  1
  O  O41  1  0.96286554  0.17343787  0.30888700  1
  O  O42  1  0.21309655  0.17779580  0.80478379  1
  O  O43  1  0.96782861  0.78641340  0.80385128  1
  O  O44  1  0.82599743  0.03532198  0.80856892  1
  O  O45  1  0.79176746  0.96415687  0.69465595  1
  O  O46  1  0.18020707  0.21174494  0.69480527  1
  O  O47  1  0.03441629  0.82387753  0.69441136  1
  O  O48  1  0.78757269  0.82096016  0.19479891  1
  O  O49  1  0.03903914  0.20957065  0.19523497  1
  O  O50  1  0.17089730  0.96336137  0.19218708  1
  O  O51  1  0.87497756  0.36920202  0.63866540  1
  O  O52  1  0.48651533  0.12164821  0.63846498  1
  O  O53  1  0.63226763  0.50946594  0.63887332  1
  O  O54  1  0.87605251  0.51192040  0.13868759  1
  O  O55  1  0.63101980  0.12286578  0.13819765  1
  O  O56  1  0.48741018  0.36823909  0.13948747  1
  O  O57  1  0.45541086  0.30268848  0.02988458  1
  O  O58  1  0.84417691  0.54471499  0.02844015  1
  O  O59  1  0.70277165  0.15841716  0.02453987  1
  O  O60  1  0.45361239  0.15569526  0.52846681  1
  O  O61  1  0.69870089  0.54677720  0.52942670  1
  O  O62  1  0.84081397  0.29798861  0.52480104  1
  O  O63  1  0.54401982  0.70409960  0.97252546  1
  O  O64  1  0.15737133  0.45783463  0.97197074  1
  O  O65  1  0.29224394  0.83935908  0.97331018  1
  O  O66  1  0.54247606  0.84292045  0.47232285  1
  O  O67  1  0.29738838  0.45876925  0.47173195  1
  O  O68  1  0.16046724  0.70710477  0.47353442  1
  O  O69  1  0.11906543  0.62596944  0.36153277  1
  O  O70  1  0.51086907  0.87631800  0.36174175  1
  O  O71  1  0.37153317  0.49244439  0.35796688  1
  O  O72  1  0.12476470  0.49088842  0.86122600  1
  O  O73  1  0.37116227  0.87791367  0.86077194  1
  O  O74  1  0.50603912  0.62589896  0.86003016  1
  O  O75  1  0.01877827  0.83667241  0.40908024  1
  O  O76  1  0.80386173  0.97621706  0.41119125  1
  O  O77  1  0.16293968  0.19149696  0.41055320  1
  O  O78  1  0.02422300  0.19679135  0.91115340  1
  O  O79  1  0.16199879  0.97945619  0.90817783  1
  O  O80  1  0.80991647  0.83667200  0.90994252  1
  O  O81  1  0.97687555  0.16337249  0.58960586  1
  O  O82  1  0.19364412  0.02230035  0.59031923  1
  O  O83  1  0.83189320  0.80377298  0.59017557  1
  O  O84  1  0.97569164  0.80432742  0.08931134  1
  O  O85  1  0.83854285  0.02312688  0.09031876  1
  O  O86  1  0.19577563  0.16973425  0.08935541  1
  O  O87  1  0.68991082  0.16989278  0.74374911  1
  O  O88  1  0.47310349  0.31110242  0.74296802  1
  O  O89  1  0.83475255  0.52953231  0.74312719  1
  O  O90  1  0.68785297  0.52733594  0.24340998  1
  O  O91  1  0.83152996  0.31296625  0.24384992  1
  O  O92  1  0.47633762  0.17335698  0.24231599  1
  O  O93  1  0.64597543  0.49533486  0.92509466  1
  O  O94  1  0.86353762  0.35760378  0.92210840  1
  O  O95  1  0.50341306  0.14347383  0.92335614  1
  O  O96  1  0.64275715  0.13693394  0.42242158  1
  O  O97  1  0.50470970  0.35520414  0.42460742  1
  O  O98  1  0.85543821  0.49562714  0.42377238  1
  O  O99  1  0.35513455  0.49568248  0.07643583  1
  O  O100  1  0.13625269  0.63764896  0.07721641  1
  O  O101  1  0.49734144  0.85296454  0.07726187  1
  O  O102  1  0.36135598  0.86317137  0.57717436  1
  O  O103  1  0.50546328  0.64494684  0.57666691  1
  O  O104  1  0.14672560  0.50330034  0.57744318  1
  O  O105  1  0.31380400  0.83137589  0.25702474  1
  O  O106  1  0.52817179  0.68933006  0.25586938  1
  O  O107  1  0.17209553  0.47602590  0.25634003  1
  O  O108  1  0.30541592  0.47032606  0.75615533  1
  O  O109  1  0.16117739  0.68828608  0.75666242  1
  O  O110  1  0.52013021  0.82991535  0.75586513  1
