# generated using pymatgen
data_MgZn(CoO2)4
_symmetry_space_group_name_H-M   'P 1'
_cell_length_a   3.03852787
_cell_length_b   7.78892693
_cell_length_c   8.16304689
_cell_angle_alpha   60.79878323
_cell_angle_beta   70.75075253
_cell_angle_gamma   81.08995582
_symmetry_Int_Tables_number   1
_chemical_formula_structural   MgZn(CoO2)4
_chemical_formula_sum   'Mg1 Zn1 Co4 O8'
_cell_volume   159.20879380
_cell_formula_units_Z   1
loop_
 _symmetry_equiv_pos_site_id
 _symmetry_equiv_pos_as_xyz
  1  'x, y, z'
loop_
 _atom_site_type_symbol
 _atom_site_label
 _atom_site_symmetry_multiplicity
 _atom_site_fract_x
 _atom_site_fract_y
 _atom_site_fract_z
 _atom_site_occupancy
  Mg  Mg0  1  0.15407500  0.33693800  0.63795400  1
  Zn  Zn1  1  0.33112300  0.04604200  0.11955200  1
  Co  Co2  1  0.92868900  0.18246300  0.40111500  1
  Co  Co3  1  0.94864400  0.63347200  0.17008000  1
  Co  Co4  1  0.75856000  0.43755200  0.92947500  1
  Co  Co5  1  0.40999100  0.79983400  0.60502300  1
  O  O6  1  0.94339900  0.60641900  0.66497100  1
  O  O7  1  0.48465800  0.27297100  0.85912400  1
  O  O8  1  0.41999500  0.78782800  0.13353200  1
  O  O9  1  0.80615200  0.42267400  0.42784500  1
  O  O10  1  0.29522800  0.07394500  0.59574400  1
  O  O11  1  0.60379800  0.23985100  0.19267700  1
  O  O12  1  0.02484600  0.92363900  0.41188500  1
  O  O13  1  0.14537900  0.59604700  0.94795600  1
