# generated using pymatgen
data_Na6La4Hf4Si5S7O48
_symmetry_space_group_name_H-M   'P 1'
_cell_length_a   18.56883656
_cell_length_b   9.23967602
_cell_length_c   23.91295437
_cell_angle_alpha   89.96111300
_cell_angle_beta   89.51709079
_cell_angle_gamma   119.84900057
_symmetry_Int_Tables_number   1
_chemical_formula_structural   Na6La4Hf4Si5S7O48
_chemical_formula_sum   'Na18 La12 Hf12 Si15 S21 O144'
_cell_volume   3558.29395247
_cell_formula_units_Z   3
loop_
 _symmetry_equiv_pos_site_id
 _symmetry_equiv_pos_as_xyz
  1  'x, y, z'
loop_
 _atom_site_type_symbol
 _atom_site_label
 _atom_site_symmetry_multiplicity
 _atom_site_fract_x
 _atom_site_fract_y
 _atom_site_fract_z
 _atom_site_occupancy
  Na  Na0  1  0.99633239  0.62129932  0.25593835  1
  Na  Na1  1  0.49952045  0.62188824  0.25143097  1
  Na  Na2  1  -0.00133526  0.38135507  0.75009116  1
  Na  Na3  1  0.49811020  0.36130035  0.75278262  1
  Na  Na4  1  0.66408006  0.31121842  0.92335386  1
  Na  Na5  1  0.16412732  0.00944096  0.43541986  1
  Na  Na6  1  0.00467396  0.99586128  0.51108362  1
  Na  Na7  1  0.50538101  0.98889937  0.50330117  1
  Na  Na8  1  0.00682968  0.01841945  0.99478130  1
  Na  Na9  1  0.50569186  0.01993823  0.00480532  1
  Na  Na10  1  0.33034938  0.31504811  0.84334999  1
  Na  Na11  1  0.82961684  0.33093524  0.81827024  1
  Na  Na12  1  0.34590924  0.35322906  0.32633092  1
  Na  Na13  1  0.82379035  0.33942334  0.34858994  1
  Na  Na14  1  0.19201812  0.65050465  0.16317073  1
  Na  Na15  1  0.67281917  0.64589540  0.15754042  1
  Na  Na16  1  0.17452646  0.70343105  0.66161003  1
  Na  Na17  1  0.68717374  0.70184297  0.67260660  1
  La  La18  1  0.99290797  0.98898736  0.36050483  1
  La  La19  1  0.49898950  0.00754831  0.85591159  1
  La  La20  1  0.31877896  0.33255504  0.67554483  1
  La  La21  1  0.82265500  0.31000632  0.68519908  1
  La  La22  1  0.33057564  0.34787666  0.18200650  1
  La  La23  1  0.81708524  0.30593505  0.17498976  1
  La  La24  1  0.83254707  0.32006163  0.99272618  1
  La  La25  1  0.33411627  0.34877090  0.49612772  1
  La  La26  1  0.16956217  0.66341974  0.31419810  1
  La  La27  1  0.67198946  0.64357475  0.31462394  1
  La  La28  1  0.17381187  0.70130072  0.81482934  1
  La  La29  1  0.66667693  0.65901435  0.81120289  1
  Hf  Hf30  1  0.49860508  0.01771701  0.35263762  1
  Hf  Hf31  1  0.99880733  0.97831359  0.85152521  1
  Hf  Hf32  1  0.99660402  0.98106177  0.65065792  1
  Hf  Hf33  1  0.51122028  0.00044276  0.64357194  1
  Hf  Hf34  1  0.00551942  0.01876117  0.14005539  1
  Hf  Hf35  1  0.49572866  0.01177773  0.14920179  1
  Hf  Hf36  1  0.32688761  0.31929611  0.98362860  1
  Hf  Hf37  1  0.82785845  0.33693703  0.48477629  1
  Hf  Hf38  1  0.16159241  0.66350662  0.01453642  1
  Hf  Hf39  1  0.66554665  0.65942219  0.01878722  1
  Hf  Hf40  1  0.16443192  0.67070938  0.52081568  1
  Hf  Hf41  1  0.66083049  0.65691619  0.51550283  1
  Si  Si42  1  0.36048825  0.72222955  0.25186515  1
  Si  Si43  1  0.49761318  0.29266153  0.24987053  1
  Si  Si44  1  0.64291201  0.29146857  0.74946482  1
  Si  Si45  1  0.00068408  0.70398673  0.74960926  1
  Si  Si46  1  0.86074702  0.99941453  0.75225405  1
  Si  Si47  1  0.16998213  0.01875069  0.57775505  1
  Si  Si48  1  0.68494125  0.02439239  0.58147611  1
  Si  Si49  1  0.33454869  0.66262068  0.58362282  1
  Si  Si50  1  0.83179559  0.00852715  0.08399245  1
  Si  Si51  1  0.18518569  0.34650407  0.08279932  1
  Si  Si52  1  0.67015787  0.32453038  0.07814565  1
  Si  Si53  1  0.51539566  0.37652792  0.91810632  1
  Si  Si54  1  0.16281880  0.96967510  0.92031968  1
  Si  Si55  1  0.66429505  0.35705211  0.41946658  1
  Si  Si56  1  0.01720984  0.65181850  0.41612602  1
  S  S57  1  0.13934613  0.99552495  0.24735301  1
  S  S58  1  0.63679039  0.00184399  0.25189766  1
  S  S59  1  0.85982018  0.71310339  0.24281734  1
  S  S60  1  0.99946384  0.29157758  0.24480432  1
  S  S61  1  0.13720376  0.27263841  0.75206832  1
  S  S62  1  0.49749234  0.70383574  0.74485832  1
  S  S63  1  0.35699651  0.00445082  0.74234976  1
  S  S64  1  0.49440655  0.33638699  0.58595626  1
  S  S65  1  0.98350505  0.33000799  0.57987395  1
  S  S66  1  0.83094989  0.63811632  0.57908303  1
  S  S67  1  0.48530148  0.64100988  0.08001951  1
  S  S68  1  0.99477554  0.65114644  0.08751634  1
  S  S69  1  0.32995075  0.02430652  0.08017630  1
  S  S70  1  0.31098067  0.65368731  0.92335631  1
  S  S71  1  0.81840082  0.67535279  0.92007875  1
  S  S72  1  0.02135308  0.36723748  0.91600095  1
  S  S73  1  0.66728335  0.96321242  0.92063469  1
  S  S74  1  0.31775635  0.96369468  0.41915860  1
  S  S75  1  0.80954513  0.96805465  0.42295531  1
  S  S76  1  0.16891314  0.36737469  0.42065745  1
  S  S77  1  0.51973967  0.67340398  0.41524834  1
  O  O78  1  0.10264023  0.00297608  0.30219867  1
  O  O79  1  0.59254834  0.00823479  0.30352157  1
  O  O80  1  0.41456641  0.82658553  0.30735269  1
  O  O81  1  0.89822915  0.79067826  0.29742112  1
  O  O82  1  0.50048894  0.19265356  0.30700997  1
  O  O83  1  0.99771216  0.20501615  0.29722829  1
  O  O84  1  0.09314367  0.17761876  0.80376660  1
  O  O85  1  0.60255651  0.20976784  0.81150910  1
  O  O86  1  0.49174818  0.78278075  0.79696252  1
  O  O87  1  0.00380304  0.81065381  0.80675818  1
  O  O88  1  0.39313730  -0.00027566  0.79731240  1
  O  O89  1  0.91557778  0.00007937  0.80745629  1
  O  O90  1  0.40845895  0.00667968  0.69487577  1
  O  O91  1  0.91252461  0.00118791  0.69475616  1
  O  O92  1  0.09314838  0.18224014  0.70019289  1
  O  O93  1  0.58410161  0.16471057  0.69941209  1
  O  O94  1  0.00338531  0.81411963  0.69399315  1
  O  O95  1  0.49411869  0.79654949  0.69443872  1
  O  O96  1  0.41128924  0.81997793  0.19415885  1
  O  O97  1  0.91303937  0.81558589  0.19575273  1
  O  O98  1  -0.00078008  0.19215265  0.19527643  1
  O  O99  1  0.50017815  0.18899257  0.19419165  1
  O  O100  1  0.08944025  0.00276142  0.19980045  1
  O  O101  1  0.59234232  0.00298342  0.20014485  1
  O  O102  1  0.45760089  0.36636933  0.63648079  1
  O  O103  1  0.95996327  0.37256605  0.63375686  1
  O  O104  1  0.23473565  0.10806260  0.62857510  1
  O  O105  1  0.73449805  0.07468397  0.63948626  1
  O  O106  1  0.31063449  0.53647678  0.63715413  1
  O  O107  1  0.81226770  0.54235923  0.63076135  1
  O  O108  1  0.46153522  0.55071092  0.13470012  1
  O  O109  1  0.95899538  0.54893461  0.13864224  1
  O  O110  1  0.31153980  0.08384459  0.13223287  1
  O  O111  1  0.81198469  0.08497059  0.13967474  1
  O  O112  1  0.23316519  0.38743866  0.14217600  1
  O  O113  1  0.73272760  0.36541223  0.13108391  1
  O  O114  1  0.23922252  0.31500901  0.03466559  1
  O  O115  1  0.71005128  0.29825494  0.02027944  1
  O  O116  1  0.42556116  0.54018436  0.03598353  1
  O  O117  1  0.94072900  0.58087846  0.03873896  1
  O  O118  1  0.34489463  0.14057363  0.03248231  1
  O  O119  1  0.85921137  0.13907897  0.03186122  1
  O  O120  1  0.20890723  0.12115955  0.51900505  1
  O  O121  1  0.74003322  0.16573961  0.53284085  1
  O  O122  1  0.36012178  0.58606459  0.53007124  1
  O  O123  1  0.84625920  0.55174203  0.53102920  1
  O  O124  1  0.44227584  0.30534081  0.53609391  1
  O  O125  1  0.92545470  0.31385810  0.53445559  1
  O  O126  1  0.25699818  0.66335525  0.96839214  1
  O  O127  1  0.77553829  0.69432071  0.97041448  1
  O  O128  1  0.07425528  0.46461993  0.96564148  1
  O  O129  1  0.58858159  0.50228060  0.96232397  1
  O  O130  1  0.15254857  0.83615480  0.97062074  1
  O  O131  1  0.67335593  0.87290582  0.97023329  1
  O  O132  1  0.27468196  0.85844198  0.46898010  1
  O  O133  1  0.75685609  0.85014678  0.46734878  1
  O  O134  1  0.17143985  0.46825711  0.46901225  1
  O  O135  1  0.65270265  0.46909422  0.46869588  1
  O  O136  1  0.09140896  0.67856262  0.45975881  1
  O  O137  1  0.57192324  0.67997953  0.46425445  1
  O  O138  1  0.04520300  0.63348787  0.35170850  1
  O  O139  1  0.55925928  0.66183751  0.36217146  1
  O  O140  1  0.26787056  0.88962636  0.36802995  1
  O  O141  1  0.77204594  0.90945002  0.36747904  1
  O  O142  1  0.17010051  0.44775690  0.36662572  1
  O  O143  1  0.68905671  0.46296679  0.36063065  1
  O  O144  1  0.06140268  0.45840000  0.86356203  1
  O  O145  1  0.54153304  0.45354150  0.85461501  1
  O  O146  1  0.18685848  0.91160090  0.86211459  1
  O  O147  1  0.66815520  0.88274569  0.86780514  1
  O  O148  1  0.27135332  0.63309002  0.86857478  1
  O  O149  1  0.76866886  0.64848698  0.86953413  1
  O  O150  1  0.01637482  0.83218905  0.42074556  1
  O  O151  1  0.51378330  0.82828502  0.41501536  1
  O  O152  1  0.40123158  0.97673803  0.41339676  1
  O  O153  1  0.89257790  0.98045866  0.42626004  1
  O  O154  1  0.09134304  0.19941375  0.42441831  1
  O  O155  1  0.57994461  0.17358446  0.41249361  1
  O  O156  1  0.01519763  0.20061648  0.91603789  1
  O  O157  1  0.51443222  0.19653004  0.92502385  1
  O  O158  1  0.07839384  0.98388416  0.91449921  1
  O  O159  1  0.58972963  0.97428786  0.92619890  1
  O  O160  1  0.39268786  0.80590691  0.92662716  1
  O  O161  1  0.90210187  0.82943782  0.91479190  1
  O  O162  1  0.50841548  0.19314186  0.59310852  1
  O  O163  1  0.98907998  0.17509617  0.58386597  1
  O  O164  1  0.08027957  0.00859794  0.58944747  1
  O  O165  1  0.59201442  0.00999623  0.58681989  1
  O  O166  1  0.41421033  0.84781043  0.59528671  1
  O  O167  1  0.90689949  0.80683498  0.58486966  1
  O  O168  1  0.49036597  0.80646160  0.08532622  1
  O  O169  1  0.01019427  0.82436148  0.09663223  1
  O  O170  1  0.40602088  0.00787010  0.08639660  1
  O  O171  1  0.91338219  0.98318814  0.09510545  1
  O  O172  1  0.09147600  0.17520673  0.08900316  1
  O  O173  1  0.58025388  0.15464677  0.09037074  1
  O  O174  1  0.35236603  0.16164171  0.74303840  1
  O  O175  1  0.86091983  0.17638114  0.75329062  1
  O  O176  1  0.22202856  0.29603254  0.75333679  1
  O  O177  1  0.73592509  0.31893868  0.74878148  1
  O  O178  1  0.42643330  0.52848266  0.74408191  1
  O  O179  1  0.92016205  0.52050009  0.75057314  1
  O  O180  1  0.35706195  0.54040127  0.25312163  1
  O  O181  1  0.85476881  0.54700879  0.24307137  1
  O  O182  1  0.41551551  0.31313019  0.25092908  1
  O  O183  1  0.92662658  0.31712340  0.24395921  1
  O  O184  1  0.22493353  0.13325547  0.24571388  1
  O  O185  1  0.72162027  0.14848996  0.25316726  1
  O  O186  1  0.32093680  0.50519367  0.93304813  1
  O  O187  1  0.82899900  0.52761739  0.92602485  1
  O  O188  1  0.42343830  0.35332383  0.93497114  1
  O  O189  1  0.93926603  0.35404108  0.92150453  1
  O  O190  1  0.24547562  0.15339386  0.93344506  1
  O  O191  1  0.73896248  0.13889544  0.91914282  1
  O  O192  1  0.32766196  0.13214535  0.42437156  1
  O  O193  1  0.82093508  0.13733624  0.43179463  1
  O  O194  1  0.24051150  0.33677153  0.41934054  1
  O  O195  1  0.74705821  0.33898883  0.43252588  1
  O  O196  1  0.43663928  0.52253089  0.41963649  1
  O  O197  1  0.92501558  0.49351933  0.43176138  1
  O  O198  1  0.16776063  0.50064586  0.06780945  1
  O  O199  1  0.65520843  0.48582804  0.07170499  1
  O  O200  1  0.07765488  0.66525916  0.07640161  1
  O  O201  1  0.57043923  0.67070186  0.06605498  1
  O  O202  1  0.25862797  0.85458885  0.06727208  1
  O  O203  1  0.74962453  0.82836384  0.07206150  1
  O  O204  1  0.15436669  0.82625884  0.57133534  1
  O  O205  1  0.66659783  0.83682885  0.56282086  1
  O  O206  1  0.25016749  0.67282635  0.57004391  1
  O  O207  1  0.75952693  0.66377520  0.56495886  1
  O  O208  1  0.06923951  0.47061217  0.56503282  1
  O  O209  1  0.57770962  0.48956472  0.57565459  1
  O  O210  1  0.13874843  0.83417996  0.24348641  1
  O  O211  1  0.64039714  0.84515716  0.25193442  1
  O  O212  1  0.26767435  0.70315534  0.25008908  1
  O  O213  1  0.77663561  0.69637125  0.23885683  1
  O  O214  1  0.07568044  0.45932196  0.24090708  1
  O  O215  1  0.58012336  0.48248531  0.24787446  1
  O  O216  1  0.14025782  0.43586185  0.75189914  1
  O  O217  1  0.63859175  0.46429597  0.74135189  1
  O  O218  1  0.08454381  0.68379295  0.74699764  1
  O  O219  1  0.57546563  0.69702393  0.74155618  1
  O  O220  1  0.27248716  0.85610000  0.73795717  1
  O  O221  1  0.76889298  0.83514274  0.75089285  1
