# generated using pymatgen
data_MgZn2Co2(SiO5)2
_symmetry_space_group_name_H-M   'P 1'
_cell_length_a   5.45566495
_cell_length_b   7.27165706
_cell_length_c   7.96137460
_cell_angle_alpha   91.72481184
_cell_angle_beta   46.28453068
_cell_angle_gamma   70.95840980
_symmetry_Int_Tables_number   1
_chemical_formula_structural   MgZn2Co2(SiO5)2
_chemical_formula_sum   'Mg1 Zn2 Co2 Si2 O10'
_cell_volume   200.12766974
_cell_formula_units_Z   1
loop_
 _symmetry_equiv_pos_site_id
 _symmetry_equiv_pos_as_xyz
  1  'x, y, z'
loop_
 _atom_site_type_symbol
 _atom_site_label
 _atom_site_symmetry_multiplicity
 _atom_site_fract_x
 _atom_site_fract_y
 _atom_site_fract_z
 _atom_site_occupancy
  Mg  Mg0  1  0.92061389  0.25686243  0.53760182  1
  Zn  Zn1  1  0.19451554  0.25716318  0.84456144  1
  Zn  Zn2  1  0.54083876  0.76029396  0.27996392  1
  Co  Co3  1  0.41876096  0.51735406  0.03511179  1
  Co  Co4  1  0.56017322  0.97569734  0.95435382  1
  Si  Si5  1  0.60513099  0.21887090  0.31501641  1
  Si  Si6  1  0.47006621  0.74664582  0.64655687  1
  O  O7  1  0.54422489  0.04358167  0.22276641  1
  O  O8  1  0.63378839  0.38380389  0.17046563  1
  O  O9  1  0.43877052  0.94478408  0.77621614  1
  O  O10  1  0.47963009  0.56015632  0.75152310  1
  O  O11  1  0.85243758  0.65150894  0.33494587  1
  O  O12  1  0.11919482  0.84057576  0.66992325  1
  O  O13  1  0.18609048  0.32553392  0.61453412  1
  O  O14  1  0.95368090  0.14143348  0.28639105  1
  O  O15  1  0.52303799  0.72722242  0.05258777  1
  O  O16  1  0.52196477  0.24897682  0.88480958  1
