# generated using pymatgen
data_Na8La3NbSi5SO24
_symmetry_space_group_name_H-M   'P 1'
_cell_length_a   9.66927382
_cell_length_b   9.65586715
_cell_length_c   23.38127037
_cell_angle_alpha   90.03180427
_cell_angle_beta   90.27428899
_cell_angle_gamma   119.96808489
_symmetry_Int_Tables_number   1
_chemical_formula_structural   Na8La3NbSi5SO24
_chemical_formula_sum   'Na24 La9 Nb3 Si15 S3 O72'
_cell_volume   1891.10640918
_cell_formula_units_Z   3
loop_
 _symmetry_equiv_pos_site_id
 _symmetry_equiv_pos_as_xyz
  1  'x, y, z'
loop_
 _atom_site_type_symbol
 _atom_site_label
 _atom_site_symmetry_multiplicity
 _atom_site_fract_x
 _atom_site_fract_y
 _atom_site_fract_z
 _atom_site_occupancy
  Na  Na0  1  0.61209557  0.99718625  0.25285937  1
  Na  Na1  1  0.36963469  0.35028669  0.25837567  1
  Na  Na2  1  0.01920391  0.64811727  0.24737149  1
  Na  Na3  1  0.63718676  0.62670763  0.74783654  1
  Na  Na4  1  0.01211184  0.37062814  0.73623076  1
  Na  Na5  1  0.35092424  -0.00011070  0.74161555  1
  Na  Na6  1  0.29934455  0.34497935  0.57740820  1
  Na  Na7  1  0.04294534  0.70058226  0.57788017  1
  Na  Na8  1  0.66239662  0.95817984  0.57265498  1
  Na  Na9  1  0.30230875  0.95488371  0.07717728  1
  Na  Na10  1  0.65541792  0.70039612  0.07200135  1
  Na  Na11  1  0.04382940  0.34333060  0.07250462  1
  Na  Na12  1  0.96286262  0.67248584  0.91314965  1
  Na  Na13  1  0.70076386  0.02581518  0.91962623  1
  Na  Na14  1  0.32912817  0.29476029  0.91200532  1
  Na  Na15  1  0.97133984  0.30707402  0.42693320  1
  Na  Na16  1  0.33957466  0.03413559  0.42112099  1
  Na  Na17  1  0.69103123  0.66381804  0.42713462  1
  Na  Na18  1  0.99885354  0.00090095  0.50174866  1
  Na  Na19  1  0.99826994  0.99864564  0.99862310  1
  Na  Na20  1  0.66703704  0.34970196  0.83386467  1
  Na  Na21  1  0.64830552  0.31586381  0.34512193  1
  Na  Na22  1  0.33163098  0.68258296  0.15819807  1
  Na  Na23  1  0.32795593  0.66260913  0.65439915  1
  La  La24  1  0.00830147  0.00008687  0.35223417  1
  La  La25  1  0.00577907  0.99850249  0.84661064  1
  La  La26  1  0.01674650  0.00483901  0.64761166  1
  La  La27  1  0.01069819  0.99759571  0.14118388  1
  La  La28  1  0.66835466  0.34101167  0.67945113  1
  La  La29  1  0.65937941  0.32652193  0.17687143  1
  La  La30  1  0.33169699  0.66577697  0.00992901  1
  La  La31  1  0.33317475  0.66881023  0.51186638  1
  La  La32  1  0.33094047  0.67436418  0.32968256  1
  Nb  Nb33  1  0.66435395  0.33238490  0.98179876  1
  Nb  Nb34  1  0.66702997  0.33397866  0.48676523  1
  Nb  Nb35  1  0.31824848  0.65329854  0.82494835  1
  Si  Si36  1  0.30938552  0.99473530  0.24931070  1
  Si  Si37  1  0.30998331  0.32280740  0.75529212  1
  Si  Si38  1  0.01285254  0.68993645  0.75457856  1
  Si  Si39  1  0.96123349  0.32816589  0.58362771  1
  Si  Si40  1  0.37189453  0.04022258  0.58371626  1
  Si  Si41  1  0.67173638  0.63557489  0.58288785  1
  Si  Si42  1  0.95686210  0.62568184  0.08143565  1
  Si  Si43  1  0.67189545  0.04001294  0.07976532  1
  Si  Si44  1  0.37048516  0.33208429  0.07958411  1
  Si  Si45  1  0.62836588  0.65578878  0.91883595  1
  Si  Si46  1  0.01684664  0.36337883  0.91999590  1
  Si  Si47  1  0.34678481  0.97439217  0.91823346  1
  Si  Si48  1  0.64767163  0.99143272  0.41841968  1
  Si  Si49  1  0.34620258  0.35821482  0.41748565  1
  Si  Si50  1  0.00661633  0.65200654  0.41768720  1
  S  S51  1  0.68901202  0.69539916  0.24908884  1
  S  S52  1  0.00562448  0.30982726  0.24885524  1
  S  S53  1  0.67737484  0.98356885  0.75278943  1
  O  O54  1  0.21663209  0.00875184  0.30537981  1
  O  O55  1  0.78005617  0.78173886  0.30126964  1
  O  O56  1  0.99152780  0.21450467  0.30078405  1
  O  O57  1  0.22621208  0.21444963  0.81113835  1
  O  O58  1  0.97524229  0.76683519  0.80988539  1
  O  O59  1  0.77576455  0.00678052  0.80478470  1
  O  O60  1  0.75976226  0.96774252  0.70175521  1
  O  O61  1  0.19418521  0.24684321  0.69853203  1
  O  O62  1  0.05157453  0.80699387  0.69846957  1
  O  O63  1  0.77277177  0.78990951  0.19760663  1
  O  O64  1  0.00965581  0.22233517  0.19720106  1
  O  O65  1  0.20286560  0.97982544  0.19164185  1
  O  O66  1  0.88896710  0.34211156  0.64439892  1
  O  O67  1  0.45639457  0.10989557  0.64534125  1
  O  O68  1  0.65553881  0.54960521  0.64413449  1
  O  O69  1  0.88546336  0.54038980  0.14249677  1
  O  O70  1  0.65797627  0.11338490  0.14053258  1
  O  O71  1  0.45965957  0.34923396  0.14019649  1
  O  O72  1  0.49064979  0.32637797  0.02616294  1
  O  O73  1  0.83223647  0.50495387  0.02752126  1
  O  O74  1  0.67344267  0.16413022  0.02595237  1
  O  O75  1  0.49218128  0.16220486  0.53130535  1
  O  O76  1  0.67214689  0.51281626  0.53036966  1
  O  O77  1  0.83903306  0.32873421  0.53079040  1
  O  O78  1  0.56826542  0.69201702  0.97802697  1
  O  O79  1  0.12200991  0.42546640  0.97722873  1
  O  O80  1  0.31047590  0.87751525  0.97729255  1
  O  O81  1  0.56736920  0.86760054  0.47110505  1
  O  O82  1  0.30891659  0.44252143  0.47048339  1
  O  O83  1  0.13179914  0.69675532  0.47029536  1
  O  O84  1  0.08025203  0.61643871  0.35948506  1
  O  O85  1  0.53784360  0.91713580  0.36000638  1
  O  O86  1  0.37829875  0.46409080  0.35845696  1
  O  O87  1  0.13857959  0.49852571  0.86766740  1
  O  O88  1  0.36166634  0.85600624  0.86644867  1
  O  O89  1  0.49385304  0.63908249  0.86733850  1
  O  O90  1  0.96491085  0.79629404  0.41286567  1
  O  O91  1  0.83243806  0.03224370  0.41281187  1
  O  O92  1  0.19702846  0.17423943  0.41489784  1
  O  O93  1  0.97729694  0.18268082  0.90709468  1
  O  O94  1  0.19946839  0.00817208  0.90845353  1
  O  O95  1  0.80715214  0.80470928  0.90806460  1
  O  O96  1  0.96009396  0.15827169  0.57757730  1
  O  O97  1  0.20378873  0.04328118  0.57726383  1
  O  O98  1  0.84171189  0.80394990  0.57792461  1
  O  O99  1  0.95268129  0.79329483  0.07463645  1
  O  O100  1  0.84212982  0.04277543  0.07394066  1
  O  O101  1  0.20269483  0.16098964  0.07372445  1
  O  O102  1  0.65170207  0.12239961  0.74898304  1
  O  O103  1  0.49066752  0.34878696  0.75197427  1
  O  O104  1  0.86744910  0.50457312  0.75045619  1
  O  O105  1  0.67849906  0.53613280  0.24936382  1
  O  O106  1  0.86603787  0.33499042  0.24864346  1
  O  O107  1  0.48875922  0.15705530  0.25189232  1
  O  O108  1  0.62993259  0.48260172  0.92140001  1
  O  O109  1  0.85014125  0.37334353  0.92171434  1
  O  O110  1  0.51949720  0.14897149  0.92114398  1
  O  O111  1  0.65120290  0.16413495  0.42965616  1
  O  O112  1  0.51123855  0.34676072  0.42848866  1
  O  O113  1  0.83358399  0.48515128  0.42938916  1
  O  O114  1  0.34579229  0.48620103  0.07656796  1
  O  O115  1  0.13574544  0.64997239  0.07765667  1
  O  O116  1  0.51486246  0.86206484  0.07715326  1
  O  O117  1  0.34675690  0.86072409  0.57892188  1
  O  O118  1  0.51517143  0.65729516  0.57839755  1
  O  O119  1  0.13923467  0.48571225  0.57897251  1
  O  O120  1  0.32211990  0.82895779  0.25049334  1
  O  O121  1  0.52611352  0.67551361  0.25011403  1
  O  O122  1  0.15660087  0.46718366  0.25060236  1
  O  O123  1  0.32378318  0.50417559  0.76634556  1
  O  O124  1  0.18527435  0.68645505  0.76689664  1
  O  O125  1  0.51948425  0.83227364  0.75764714  1
