# generated using pymatgen
data_MgMo2HO6
_symmetry_space_group_name_H-M   'P 1'
_cell_length_a   7.99592635
_cell_length_b   7.99592635
_cell_length_c   4.01586593
_cell_angle_alpha   89.05691805
_cell_angle_beta   89.05691805
_cell_angle_gamma   28.12401572
_symmetry_Int_Tables_number   1
_chemical_formula_structural   MgMo2HO6
_chemical_formula_sum   'Mg1 Mo2 H1 O6'
_cell_volume   121.01156126
_cell_formula_units_Z   1
loop_
 _symmetry_equiv_pos_site_id
 _symmetry_equiv_pos_as_xyz
  1  'x, y, z'
loop_
 _atom_site_type_symbol
 _atom_site_label
 _atom_site_symmetry_multiplicity
 _atom_site_fract_x
 _atom_site_fract_y
 _atom_site_fract_z
 _atom_site_occupancy
  Mg  Mg0  1  0.25432500  0.25432500  0.69993800  1
  Mo  Mo1  1  0.07952000  0.07952000  0.23421400  1
  Mo  Mo2  1  0.91684800  0.91684800  0.75462600  1
  H  H3  1  0.75316800  0.75316800  0.03082100  1
  O  O4  1  0.94062100  0.94062100  0.23564800  1
  O  O5  1  0.05671600  0.05671600  0.72890600  1
  O  O6  1  0.57282100  0.57282100  0.21950300  1
  O  O7  1  0.38838500  0.38838500  0.70008500  1
  O  O8  1  0.20455300  0.20455300  0.23009100  1
  O  O9  1  0.77360600  0.77360600  0.79753200  1
