# generated using pymatgen
data_HfNb(PO4)3
_symmetry_space_group_name_H-M   'P 1'
_cell_length_a   8.88044987
_cell_length_b   8.88044958
_cell_length_c   22.73423977
_cell_angle_alpha   90.00000000
_cell_angle_beta   90.00000000
_cell_angle_gamma   120.00000111
_symmetry_Int_Tables_number   1
_chemical_formula_structural   HfNb(PO4)3
_chemical_formula_sum   'Hf6 Nb6 P18 O72'
_cell_volume   1552.67651059
_cell_formula_units_Z   6
loop_
 _symmetry_equiv_pos_site_id
 _symmetry_equiv_pos_as_xyz
  1  'x, y, z'
loop_
 _atom_site_type_symbol
 _atom_site_label
 _atom_site_symmetry_multiplicity
 _atom_site_fract_x
 _atom_site_fract_y
 _atom_site_fract_z
 _atom_site_occupancy
  Hf  Hf0  1  -0.00000000  0.00000000  0.35805062  1
  Hf  Hf1  1  -0.00000000  0.00000000  0.85805062  1
  Hf  Hf2  1  0.66666700  0.33333300  0.69138362  1
  Hf  Hf3  1  0.66666700  0.33333300  0.19138362  1
  Hf  Hf4  1  0.33333300  0.66666700  0.02471762  1
  Hf  Hf5  1  0.33333300  0.66666700  0.52471762  1
  Nb  Nb6  1  -0.00000000  0.00000000  0.64265937  1
  Nb  Nb7  1  -0.00000000  0.00000000  0.14265937  1
  Nb  Nb8  1  0.66666700  0.33333300  0.97599237  1
  Nb  Nb9  1  0.66666700  0.33333300  0.47599237  1
  Nb  Nb10  1  0.33333300  0.66666700  0.30932637  1
  Nb  Nb11  1  0.33333300  0.66666700  0.80932637  1
  P  P12  1  0.28116628  0.99691304  0.25024237  1
  P  P13  1  0.71574676  0.71883372  0.25024237  1
  P  P14  1  0.00308696  0.28425324  0.25024237  1
  P  P15  1  0.28116628  0.28425324  0.75024237  1
  P  P16  1  0.00308696  0.71883372  0.75024237  1
  P  P17  1  0.71574676  0.99691304  0.75024237  1
  P  P18  1  0.94783328  0.33024604  0.58357537  1
  P  P19  1  0.38241376  0.05216672  0.58357537  1
  P  P20  1  0.66975396  0.61758624  0.58357537  1
  P  P21  1  0.94783328  0.61758624  0.08357537  1
  P  P22  1  0.66975396  0.05216672  0.08357537  1
  P  P23  1  0.38241376  0.33024604  0.08357537  1
  P  P24  1  0.61449928  0.66358004  0.91690937  1
  P  P25  1  0.04907976  0.38550072  0.91690937  1
  P  P26  1  0.33641996  0.95092024  0.91690937  1
  P  P27  1  0.61449928  0.95092024  0.41690937  1
  P  P28  1  0.33641996  0.38550072  0.41690937  1
  P  P29  1  0.04907976  0.66358004  0.41690937  1
  O  O30  1  0.19672345  0.02458187  0.30424263  1
  O  O31  1  0.82785842  0.80327655  0.30424263  1
  O  O32  1  0.97541813  0.17214158  0.30424263  1
  O  O33  1  0.19672345  0.17214158  0.80424263  1
  O  O34  1  0.97541813  0.80327655  0.80424263  1
  O  O35  1  0.82785842  0.02458187  0.80424263  1
  O  O36  1  0.80205876  0.96576184  0.69531901  1
  O  O37  1  0.16370308  0.19794124  0.69531901  1
  O  O38  1  0.03423816  0.83629692  0.69531901  1
  O  O39  1  0.80205876  0.83629692  0.19531901  1
  O  O40  1  0.03423816  0.19794124  0.19531901  1
  O  O41  1  0.16370308  0.96576184  0.19531901  1
  O  O42  1  0.86339045  0.35791487  0.63757563  1
  O  O43  1  0.49452542  0.13660955  0.63757563  1
  O  O44  1  0.64208513  0.50547458  0.63757563  1
  O  O45  1  0.86339045  0.50547458  0.13757563  1
  O  O46  1  0.64208513  0.13660955  0.13757563  1
  O  O47  1  0.49452542  0.35791487  0.13757563  1
  O  O48  1  0.46872576  0.29909484  0.02865201  1
  O  O49  1  0.83037008  0.53127424  0.02865201  1
  O  O50  1  0.70090516  0.16962992  0.02865201  1
  O  O51  1  0.46872576  0.16962992  0.52865201  1
  O  O52  1  0.70090516  0.53127424  0.52865201  1
  O  O53  1  0.83037008  0.29909484  0.52865201  1
  O  O54  1  0.53005645  0.69124887  0.97090963  1
  O  O55  1  0.16119142  0.46994355  0.97090963  1
  O  O56  1  0.30875113  0.83880858  0.97090963  1
  O  O57  1  0.53005645  0.83880858  0.47090963  1
  O  O58  1  0.30875113  0.46994355  0.47090963  1
  O  O59  1  0.16119142  0.69124887  0.47090963  1
  O  O60  1  0.13539176  0.63242884  0.36198601  1
  O  O61  1  0.49703608  0.86460824  0.36198601  1
  O  O62  1  0.36757116  0.50296392  0.36198601  1
  O  O63  1  0.13539176  0.50296392  0.86198601  1
  O  O64  1  0.36757116  0.86460824  0.86198601  1
  O  O65  1  0.49703608  0.63242884  0.86198601  1
  O  O66  1  0.02285463  0.81825203  0.40659438  1
  O  O67  1  0.79539740  0.97714537  0.40659438  1
  O  O68  1  0.18174797  0.20460260  0.40659438  1
  O  O69  1  0.02285463  0.20460260  0.90659438  1
  O  O70  1  0.18174797  0.97714537  0.90659438  1
  O  O71  1  0.79539740  0.81825203  0.90659438  1
  O  O72  1  0.96273574  0.16372365  0.59336493  1
  O  O73  1  0.20098791  0.03726426  0.59336493  1
  O  O74  1  0.83627635  0.79901209  0.59336493  1
  O  O75  1  0.96273574  0.79901209  0.09336493  1
  O  O76  1  0.83627635  0.03726426  0.09336493  1
  O  O77  1  0.20098791  0.16372365  0.09336493  1
  O  O78  1  0.68952163  0.15158503  0.73992738  1
  O  O79  1  0.46206440  0.31047837  0.73992738  1
  O  O80  1  0.84841497  0.53793560  0.73992738  1
  O  O81  1  0.68952163  0.53793560  0.23992738  1
  O  O82  1  0.84841497  0.31047837  0.23992738  1
  O  O83  1  0.46206440  0.15158503  0.23992738  1
  O  O84  1  0.62940274  0.49705665  0.92669793  1
  O  O85  1  0.86765491  0.37059726  0.92669793  1
  O  O86  1  0.50294335  0.13234509  0.92669793  1
  O  O87  1  0.62940274  0.13234509  0.42669793  1
  O  O88  1  0.50294335  0.37059726  0.42669793  1
  O  O89  1  0.86765491  0.49705665  0.42669793  1
  O  O90  1  0.35618763  0.48491903  0.07326138  1
  O  O91  1  0.12873040  0.64381237  0.07326138  1
  O  O92  1  0.51508097  0.87126960  0.07326138  1
  O  O93  1  0.35618763  0.87126960  0.57326138  1
  O  O94  1  0.51508097  0.64381237  0.57326138  1
  O  O95  1  0.12873040  0.48491903  0.57326138  1
  O  O96  1  0.29606874  0.83039065  0.26003193  1
  O  O97  1  0.53432091  0.70393126  0.26003193  1
  O  O98  1  0.16960935  0.46567909  0.26003193  1
  O  O99  1  0.29606874  0.46567909  0.76003193  1
  O  O100  1  0.16960935  0.70393126  0.76003193  1
  O  O101  1  0.53432091  0.83039065  0.76003193  1
