# generated using pymatgen
data_Na4Ca2Ta2Si3(SO8)3
_symmetry_space_group_name_H-M   'P 1'
_cell_length_a   9.22189408
_cell_length_b   9.19555150
_cell_length_c   22.96215377
_cell_angle_alpha   90.00625036
_cell_angle_beta   89.93557473
_cell_angle_gamma   120.09711748
_symmetry_Int_Tables_number   1
_chemical_formula_structural   Na4Ca2Ta2Si3(SO8)3
_chemical_formula_sum   'Na12 Ca6 Ta6 Si9 S9 O72'
_cell_volume   1684.67056194
_cell_formula_units_Z   3
loop_
 _symmetry_equiv_pos_site_id
 _symmetry_equiv_pos_as_xyz
  1  'x, y, z'
loop_
 _atom_site_type_symbol
 _atom_site_label
 _atom_site_symmetry_multiplicity
 _atom_site_fract_x
 _atom_site_fract_y
 _atom_site_fract_z
 _atom_site_occupancy
  Na  Na0  1  0.36237159  0.33392391  0.24165539  1
  Na  Na1  1  0.65414800  0.63392588  0.74448597  1
  Na  Na2  1  0.01353235  0.66224769  0.59670728  1
  Na  Na3  1  0.34034085  0.97701152  0.07580272  1
  Na  Na4  1  0.69048099  0.01506699  0.90448776  1
  Na  Na5  1  0.00155608  0.30843401  0.42659136  1
  Na  Na6  1  0.02578587  0.02814509  0.50357200  1
  Na  Na7  1  0.02009320  0.00131512  0.99004943  1
  Na  Na8  1  0.69204682  0.33524807  0.81967921  1
  Na  Na9  1  0.63196636  0.30248218  0.33154407  1
  Na  Na10  1  0.36115004  0.66596682  0.15214040  1
  Na  Na11  1  0.33514153  0.63301145  0.65514732  1
  Ca  Ca12  1  0.00361108  0.99471486  0.35342961  1
  Ca  Ca13  1  0.00869830  0.00418146  0.85241897  1
  Ca  Ca14  1  0.66408842  0.32393675  0.68654130  1
  Ca  Ca15  1  0.66853760  0.33043652  0.18618282  1
  Ca  Ca16  1  0.33379066  0.65942177  0.01843591  1
  Ca  Ca17  1  0.34615272  0.66635098  0.52039524  1
  Ta  Ta18  1  0.98041416  0.99666497  0.65073028  1
  Ta  Ta19  1  0.01364666  0.00049799  0.14221188  1
  Ta  Ta20  1  0.65447795  0.31617624  0.98258133  1
  Ta  Ta21  1  0.66163784  0.34374206  0.48787349  1
  Ta  Ta22  1  0.34170811  0.66830942  0.31362895  1
  Ta  Ta23  1  0.32340572  0.68060943  0.81098237  1
  Si  Si24  1  0.29311797  0.98889747  0.25137593  1
  Si  Si25  1  0.00221710  0.71264160  0.74978396  1
  Si  Si26  1  0.69469347  0.99490782  0.75819019  1
  Si  Si27  1  0.95815946  0.32534812  0.58249943  1
  Si  Si28  1  0.67299522  0.64455231  0.59195634  1
  Si  Si29  1  0.67796140  0.03816627  0.08599257  1
  Si  Si30  1  0.37216583  0.33378625  0.08860696  1
  Si  Si31  1  0.33344464  0.96614875  0.92222949  1
  Si  Si32  1  0.34365191  0.37161402  0.41699747  1
  S  S33  1  0.69813227  0.71335065  0.25106272  1
  S  S34  1  0.01669491  0.30013959  0.25100593  1
  S  S35  1  0.28332500  0.30289678  0.74974350  1
  S  S36  1  0.36109331  0.04675330  0.58185887  1
  S  S37  1  0.95346543  0.63326709  0.08384010  1
  S  S38  1  0.62393334  0.64934007  0.91648526  1
  S  S39  1  0.02841096  0.38062789  0.91657219  1
  S  S40  1  0.62012782  0.97048453  0.41386916  1
  S  S41  1  0.03458896  0.64991552  0.41633806  1
  O  O42  1  0.19733695  0.01513109  0.30321671  1
  O  O43  1  0.78339077  0.79016592  0.30495232  1
  O  O44  1  0.98862196  0.20891094  0.30563840  1
  O  O45  1  0.21294632  0.21158843  0.80317368  1
  O  O46  1  0.98578382  0.80336694  0.80476352  1
  O  O47  1  0.79129115  0.01142661  0.81663615  1
  O  O48  1  0.80681882  0.96939104  0.70035994  1
  O  O49  1  0.17518689  0.21242562  0.69702195  1
  O  O50  1  0.03694475  0.83974921  0.68984879  1
  O  O51  1  0.78352052  0.81644902  0.19869507  1
  O  O52  1  0.04004071  0.20516503  0.20087910  1
  O  O53  1  0.16618745  0.96489606  0.19094707  1
  O  O54  1  0.85959565  0.35008009  0.63333953  1
  O  O55  1  0.45503704  0.11321648  0.63453414  1
  O  O56  1  0.65160317  0.54188864  0.64913037  1
  O  O57  1  0.88289040  0.54472696  0.13778993  1
  O  O58  1  0.64755760  0.13088985  0.13763763  1
  O  O59  1  0.46146604  0.35027110  0.14884941  1
  O  O60  1  0.48328900  0.30457441  0.03217884  1
  O  O61  1  0.84946880  0.54814843  0.03142482  1
  O  O62  1  0.70456746  0.16906391  0.02456950  1
  O  O63  1  0.46577531  0.16252698  0.52883091  1
  O  O64  1  0.69620919  0.52535744  0.53315416  1
  O  O65  1  0.83190890  0.29875392  0.51856419  1
  O  O66  1  0.53717338  0.66544568  0.96743731  1
  O  O67  1  0.12237762  0.45372780  0.96946021  1
  O  O68  1  0.33144234  0.87526185  0.98072797  1
  O  O69  1  0.54303480  0.88051138  0.46632326  1
  O  O70  1  0.31049544  0.46582191  0.46767755  1
  O  O71  1  0.12724768  0.67764745  0.47022525  1
  O  O72  1  0.13746269  0.63314291  0.36544044  1
  O  O73  1  0.50944063  0.86641252  0.36067045  1
  O  O74  1  0.36668294  0.49798089  0.35518679  1
  O  O75  1  0.12303588  0.48337318  0.86343034  1
  O  O76  1  0.35779543  0.85236117  0.86476602  1
  O  O77  1  0.52208612  0.62391832  0.86233629  1
  O  O78  1  0.99481478  0.78153917  0.40624007  1
  O  O79  1  0.78967241  0.99627856  0.40683925  1
  O  O80  1  0.17768688  0.18860190  0.41299482  1
  O  O81  1  0.98940359  0.20525293  0.91185267  1
  O  O82  1  0.19105370  0.01243061  0.91638946  1
  O  O83  1  0.79028918  0.80181463  0.91381432  1
  O  O84  1  0.97543453  0.15299509  0.59173458  1
  O  O85  1  0.20188493  0.05053564  0.58137804  1
  O  O86  1  0.86486703  0.82191555  0.59139738  1
  O  O87  1  0.95565952  0.80449940  0.08741407  1
  O  O88  1  0.85532442  0.03105630  0.09593278  1
  O  O89  1  0.18848416  0.13838949  0.09016645  1
  O  O90  1  0.64048321  0.13035637  0.74877334  1
  O  O91  1  0.45457716  0.33567261  0.74238187  1
  O  O92  1  0.84531746  0.52712425  0.74541750  1
  O  O93  1  0.66329742  0.53931215  0.24736623  1
  O  O94  1  0.88713898  0.34295019  0.24146334  1
  O  O95  1  0.47827457  0.15028995  0.24871577  1
  O  O96  1  0.64470450  0.49645904  0.92391868  1
  O  O97  1  0.86243493  0.37980141  0.91871004  1
  O  O98  1  0.52572166  0.15408313  0.92432660  1
  O  O99  1  0.62762805  0.13656859  0.41116440  1
  O  O100  1  0.52285681  0.36283874  0.42512755  1
  O  O101  1  0.87237675  0.48049827  0.41726769  1
  O  O102  1  0.31669197  0.46817501  0.07868269  1
  O  O103  1  0.12884088  0.67648277  0.07763707  1
  O  O104  1  0.51912340  0.85490124  0.07800927  1
  O  O105  1  0.32712433  0.87678548  0.56984478  1
  O  O106  1  0.53465896  0.69450837  0.58165011  1
  O  O107  1  0.13636460  0.49407247  0.57597264  1
  O  O108  1  0.30075295  0.80872464  0.26117217  1
  O  O109  1  0.52240501  0.70201354  0.25313504  1
  O  O110  1  0.18702395  0.46615528  0.25433089  1
  O  O111  1  0.29018421  0.47228712  0.75274413  1
  O  O112  1  0.17998003  0.69709839  0.75852405  1
  O  O113  1  0.51478754  0.79910334  0.76200907  1
