# generated using pymatgen
data_K2Sb4O11
_symmetry_space_group_name_H-M   'P 1'
_cell_length_a   10.45297363
_cell_length_b   10.45297363
_cell_length_c   7.18537708
_cell_angle_alpha   85.63936790
_cell_angle_beta   85.63936790
_cell_angle_gamma   42.46477409
_symmetry_Int_Tables_number   1
_chemical_formula_structural   K2Sb4O11
_chemical_formula_sum   'K4 Sb8 O22'
_cell_volume   528.28874975
_cell_formula_units_Z   2
loop_
 _symmetry_equiv_pos_site_id
 _symmetry_equiv_pos_as_xyz
  1  'x, y, z'
loop_
 _atom_site_type_symbol
 _atom_site_label
 _atom_site_symmetry_multiplicity
 _atom_site_fract_x
 _atom_site_fract_y
 _atom_site_fract_z
 _atom_site_occupancy
  K  K0  1  0.75888107  0.75888107  0.00364774  1
  K  K1  1  0.24111893  0.24111893  0.99635226  1
  K  K2  1  0.98775372  0.98775372  0.26186199  1
  K  K3  1  0.01224628  0.01224628  0.73813801  1
  Sb  Sb4  1  0.42799773  0.42799773  0.09658552  1
  Sb  Sb5  1  0.57200227  0.57200227  0.90341448  1
  Sb  Sb6  1  0.42450899  0.42450899  0.61580497  1
  Sb  Sb7  1  0.57549101  0.57549101  0.38419503  1
  Sb  Sb8  1  0.58295215  0.06782373  0.43451449  1
  Sb  Sb9  1  0.93217627  0.41704785  0.56548551  1
  Sb  Sb10  1  0.41704785  0.93217627  0.56548551  1
  Sb  Sb11  1  0.06782373  0.58295215  0.43451449  1
  O  O12  1  0.17329705  0.56716503  0.18744490  1
  O  O13  1  0.43283497  0.82670295  0.81255510  1
  O  O14  1  0.82670295  0.43283497  0.81255510  1
  O  O15  1  0.56716503  0.17329705  0.18744490  1
  O  O16  1  0.02371189  0.44706322  0.33211632  1
  O  O17  1  0.55293678  0.97628811  0.66788368  1
  O  O18  1  0.97628811  0.55293678  0.66788368  1
  O  O19  1  0.44706322  0.02371189  0.33211632  1
  O  O20  1  0.84323319  0.33170355  0.43247411  1
  O  O21  1  0.66829645  0.15676681  0.56752589  1
  O  O22  1  0.15676681  0.66829645  0.56752589  1
  O  O23  1  0.33170355  0.84323319  0.43247411  1
  O  O24  1  0.67184617  0.32815383  -0.00000000  1
  O  O25  1  0.32815383  0.67184617  -0.00000000  1
  O  O26  1  0.83863519  0.83863519  0.35328160  1
  O  O27  1  0.16136481  0.16136481  0.64671840  1
  O  O28  1  0.61843705  0.61843705  0.13471922  1
  O  O29  1  0.38156295  0.38156295  0.86528078  1
  O  O30  1  0.66681607  0.66681607  0.49259708  1
  O  O31  1  0.33318393  0.33318393  0.50740292  1
  O  O32  1  0.47616479  0.47616479  0.34451639  1
  O  O33  1  0.52383521  0.52383521  0.65548361  1
