# generated using pymatgen
data_Na4ScSi2SnPO12
_symmetry_space_group_name_H-M   'P 1'
_cell_length_a   9.15468344
_cell_length_b   9.15468312
_cell_length_c   22.43292557
_cell_angle_alpha   90.31793217
_cell_angle_beta   89.68206784
_cell_angle_gamma   120.00366186
_symmetry_Int_Tables_number   1
_chemical_formula_structural   Na4ScSi2SnPO12
_chemical_formula_sum   'Na24 Sc6 Si12 Sn6 P6 O72'
_cell_volume   1628.08941899
_cell_formula_units_Z   6
loop_
 _symmetry_equiv_pos_site_id
 _symmetry_equiv_pos_as_xyz
  1  'x, y, z'
loop_
 _atom_site_type_symbol
 _atom_site_label
 _atom_site_symmetry_multiplicity
 _atom_site_fract_x
 _atom_site_fract_y
 _atom_site_fract_z
 _atom_site_occupancy
  Na  Na0  1  0.63999118  0.00534392  0.25075444  1
  Na  Na1  1  0.36912178  0.36704698  0.24594792  1
  Na  Na2  1  0.99122405  0.62525988  0.25053188  1
  Na  Na3  1  0.63295302  0.63087822  0.74594792  1
  Na  Na4  1  0.99465608  0.36000882  0.75075444  1
  Na  Na5  1  0.37474012  0.00877595  0.75053188  1
  Na  Na6  1  0.30665818  0.33867692  0.58408744  1
  Na  Na7  1  0.03578878  0.70037998  0.57928092  1
  Na  Na8  1  0.65789105  0.95859288  0.58386488  1
  Na  Na9  1  0.29962002  0.96421122  0.07928092  1
  Na  Na10  1  0.66132308  0.69334182  0.08408744  1
  Na  Na11  1  0.04140712  0.34210895  0.08386488  1
  Na  Na12  1  0.97332418  0.67201092  0.91742144  1
  Na  Na13  1  0.70245478  0.03371398  0.91261492  1
  Na  Na14  1  0.32455705  0.29192688  0.91719888  1
  Na  Na15  1  0.96628602  0.29754522  0.41261492  1
  Na  Na16  1  0.32798908  0.02667582  0.41742144  1
  Na  Na17  1  0.70807312  0.67544295  0.41719888  1
  Na  Na18  1  0.99646089  0.99238002  0.49793917  1
  Na  Na19  1  0.00761998  0.00353911  0.99793917  1
  Na  Na20  1  0.66312789  0.32571302  0.83127217  1
  Na  Na21  1  0.67428698  0.33687211  0.33127217  1
  Na  Na22  1  0.32979389  0.65904702  0.16460617  1
  Na  Na23  1  0.34095298  0.67020611  0.66460617  1
  Sc  Sc24  1  0.99308774  0.99548996  0.35171718  1
  Sc  Sc25  1  0.00451004  0.00691226  0.85171718  1
  Sc  Sc26  1  0.65975474  0.32882296  0.68505018  1
  Sc  Sc27  1  0.67117704  0.34024526  0.18505018  1
  Sc  Sc28  1  0.32642074  0.66215696  0.01838418  1
  Sc  Sc29  1  0.33784304  0.67357926  0.51838418  1
  Si  Si30  1  0.70282107  0.70550166  0.25100152  1
  Si  Si31  1  0.00184528  0.29577591  0.25152834  1
  Si  Si32  1  0.29449834  0.29717893  0.75100152  1
  Si  Si33  1  0.70422409  0.99815472  0.75152834  1
  Si  Si34  1  0.36948807  0.03883466  0.58433452  1
  Si  Si35  1  0.66851228  0.62910891  0.58486134  1
  Si  Si36  1  0.96116534  0.63051193  0.08433452  1
  Si  Si37  1  0.37089109  0.33148772  0.08486134  1
  Si  Si38  1  0.03615407  0.37216866  0.91766852  1
  Si  Si39  1  0.33517828  0.96244291  0.91819534  1
  Si  Si40  1  0.62783134  0.96384593  0.41766852  1
  Si  Si41  1  0.03755709  0.66482172  0.41819534  1
  Sn  Sn42  1  0.99872433  0.00012838  0.64963872  1
  Sn  Sn43  1  0.99987162  0.00127567  0.14963872  1
  Sn  Sn44  1  0.66539133  0.33346138  0.98297172  1
  Sn  Sn45  1  0.66653862  0.33460867  0.48297172  1
  Sn  Sn46  1  0.33205733  0.66679538  0.31630572  1
  Sn  Sn47  1  0.33320462  0.66794267  0.81630572  1
  P  P48  1  0.29198557  0.99683553  0.25061524  1
  P  P49  1  0.00316447  0.70801443  0.75061524  1
  P  P50  1  0.95865257  0.33016853  0.58394824  1
  P  P51  1  0.66983147  0.04134743  0.08394824  1
  P  P52  1  0.62531857  0.66350253  0.91728224  1
  P  P53  1  0.33649747  0.37468143  0.41728224  1
  O  O54  1  0.21054356  0.02598409  0.30580558  1
  O  O55  1  0.82269951  0.79132798  0.30839924  1
  O  O56  1  0.97557401  0.17974038  0.30919096  1
  O  O57  1  0.20867202  0.17730049  0.80839924  1
  O  O58  1  0.97401591  0.78945644  0.80580558  1
  O  O59  1  0.82025962  0.02442599  0.80919096  1
  O  O60  1  0.78309795  0.95711372  0.69088424  1
  O  O61  1  0.17413189  0.21627326  0.69094442  1
  O  O62  1  0.03663058  0.81862554  0.69372270  1
  O  O63  1  0.78372674  0.82586811  0.19094442  1
  O  O64  1  0.04288628  0.21690205  0.19088424  1
  O  O65  1  0.18137446  0.96336942  0.19372270  1
  O  O66  1  0.87721056  0.35931709  0.63913858  1
  O  O67  1  0.48936651  0.12466098  0.64173224  1
  O  O68  1  0.64224101  0.51307338  0.64252396  1
  O  O69  1  0.87533902  0.51063349  0.14173224  1
  O  O70  1  0.64068291  0.12278944  0.13913858  1
  O  O71  1  0.48692662  0.35775899  0.14252396  1
  O  O72  1  0.44976495  0.29044672  0.02421724  1
  O  O73  1  0.84079889  0.54960626  0.02427742  1
  O  O74  1  0.70329758  0.15195854  0.02705570  1
  O  O75  1  0.45039374  0.15920111  0.52427742  1
  O  O76  1  0.70955328  0.55023505  0.52421724  1
  O  O77  1  0.84804146  0.29670242  0.52705570  1
  O  O78  1  0.54387656  0.69265109  0.97247258  1
  O  O79  1  0.15603251  0.45799498  0.97506624  1
  O  O80  1  0.30890701  0.84640738  0.97585796  1
  O  O81  1  0.54200502  0.84396749  0.47506624  1
  O  O82  1  0.30734891  0.45612344  0.47247258  1
  O  O83  1  0.15359262  0.69109299  0.47585796  1
  O  O84  1  0.11643095  0.62378072  0.35755124  1
  O  O85  1  0.50746489  0.88294026  0.35761142  1
  O  O86  1  0.36996358  0.48529254  0.36038970  1
  O  O87  1  0.11705974  0.49253511  0.85761142  1
  O  O88  1  0.37621928  0.88356905  0.85755124  1
  O  O89  1  0.51470746  0.63003642  0.86038970  1
  O  O90  1  0.02209550  0.83468384  0.41308154  1
  O  O91  1  0.81702501  0.98836782  0.41282845  1
  O  O92  1  0.18092363  0.19641305  0.41102773  1
  O  O93  1  0.01163218  0.18297499  0.91282845  1
  O  O94  1  0.16531616  0.97790450  0.91308154  1
  O  O95  1  0.80358695  0.81907637  0.91102773  1
  O  O96  1  0.97337543  0.16753808  0.58768001  1
  O  O97  1  0.18176966  0.02537943  0.58880355  1
  O  O98  1  0.84099191  0.81891109  0.58795718  1
  O  O99  1  0.97462057  0.81823034  0.08880355  1
  O  O100  1  0.83246192  0.02662457  0.08768001  1
  O  O101  1  0.18108891  0.15900809  0.08795718  1
  O  O102  1  0.68876250  0.16801684  0.74641454  1
  O  O103  1  0.48369201  0.32170082  0.74616145  1
  O  O104  1  0.84759063  0.52974605  0.74436073  1
  O  O105  1  0.67829918  0.51630799  0.24616145  1
  O  O106  1  0.83198316  0.31123750  0.24641454  1
  O  O107  1  0.47025395  0.15240937  0.24436073  1
  O  O108  1  0.64004243  0.50087108  0.92101301  1
  O  O109  1  0.84843666  0.35871243  0.92213655  1
  O  O110  1  0.50765891  0.15224409  0.92129018  1
  O  O111  1  0.64128757  0.15156334  0.42213655  1
  O  O112  1  0.49912892  0.35995757  0.42101301  1
  O  O113  1  0.84775591  0.49234109  0.42129018  1
  O  O114  1  0.35542850  0.50135084  0.07974854  1
  O  O115  1  0.15035801  0.65503482  0.07949545  1
  O  O116  1  0.51425663  0.86308005  0.07769473  1
  O  O117  1  0.34496518  0.84964199  0.57949545  1
  O  O118  1  0.49864916  0.64457150  0.57974854  1
  O  O119  1  0.13691995  0.48574337  0.57769473  1
  O  O120  1  0.30670843  0.83420508  0.25434701  1
  O  O121  1  0.51510266  0.69204643  0.25547055  1
  O  O122  1  0.17432491  0.48557809  0.25462418  1
  O  O123  1  0.30795357  0.48489734  0.75547055  1
  O  O124  1  0.16579492  0.69329157  0.75434701  1
  O  O125  1  0.51442191  0.82567509  0.75462418  1
