# generated using pymatgen
data_Ca2Sb2S5
_symmetry_space_group_name_H-M   'P 1'
_cell_length_a   5.73085834
_cell_length_b   11.43857677
_cell_length_c   15.15055622
_cell_angle_alpha   69.07576994
_cell_angle_beta   90.00000000
_cell_angle_gamma   90.00000000
_symmetry_Int_Tables_number   1
_chemical_formula_structural   Ca2Sb2S5
_chemical_formula_sum   'Ca8 Sb8 S20'
_cell_volume   927.66678560
_cell_formula_units_Z   4
loop_
 _symmetry_equiv_pos_site_id
 _symmetry_equiv_pos_as_xyz
  1  'x, y, z'
loop_
 _atom_site_type_symbol
 _atom_site_label
 _atom_site_symmetry_multiplicity
 _atom_site_fract_x
 _atom_site_fract_y
 _atom_site_fract_z
 _atom_site_occupancy
  Ca  Ca0  1  0.73344286  0.16778971  0.66615020  1
  Ca  Ca1  1  0.23344286  0.33221029  0.33384980  1
  Ca  Ca2  1  0.26655714  0.83221029  0.33384980  1
  Ca  Ca3  1  0.76655714  0.66778971  0.66615020  1
  Ca  Ca4  1  0.27488153  0.69248034  0.10638494  1
  Ca  Ca5  1  0.77488153  0.80751966  0.89361506  1
  Ca  Ca6  1  0.72511847  0.30751966  0.89361506  1
  Ca  Ca7  1  0.22511847  0.19248034  0.10638494  1
  Sb  Sb8  1  0.84469995  0.05434110  0.38512366  1
  Sb  Sb9  1  0.34469995  0.44565890  0.61487634  1
  Sb  Sb10  1  0.15530005  0.94565890  0.61487634  1
  Sb  Sb11  1  0.65530005  0.55434110  0.38512366  1
  Sb  Sb12  1  0.76206180  0.42479049  0.12586589  1
  Sb  Sb13  1  0.26206180  0.07520951  0.87413411  1
  Sb  Sb14  1  0.23793820  0.57520951  0.87413411  1
  Sb  Sb15  1  0.73793820  0.92479049  0.12586589  1
  S  S16  1  0.73377494  0.33988369  0.29877228  1
  S  S17  1  0.23377494  0.16011631  0.70122772  1
  S  S18  1  0.26622506  0.66011631  0.70122772  1
  S  S19  1  0.76622506  0.83988369  0.29877228  1
  S  S20  1  0.69252375  0.06499654  0.87755901  1
  S  S21  1  0.19252375  0.43500346  0.12244099  1
  S  S22  1  0.30747625  0.93500346  0.12244099  1
  S  S23  1  0.80747625  0.56499654  0.87755901  1
  S  S24  1  0.72121553  0.40441187  0.69515300  1
  S  S25  1  0.22121553  0.09558813  0.30484700  1
  S  S26  1  0.27878447  0.59558813  0.30484700  1
  S  S27  1  0.77878447  0.90441187  0.69515300  1
  S  S28  1  0.99191525  0.15209877  0.50051833  1
  S  S29  1  0.49191525  0.34790123  0.49948167  1
  S  S30  1  0.00808475  0.84790123  0.49948167  1
  S  S31  1  0.50808475  0.65209877  0.50051833  1
  S  S32  1  0.22679375  0.27405967  0.90349110  1
  S  S33  1  0.72679375  0.22594033  0.09650890  1
  S  S34  1  0.77320625  0.72594033  0.09650890  1
  S  S35  1  0.27320625  0.77405967  0.90349110  1
