# generated using pymatgen
data_Na3ScTiSi(PO6)2
_symmetry_space_group_name_H-M   'P 1'
_cell_length_a   8.98442029
_cell_length_b   8.98441998
_cell_length_c   22.30143392
_cell_angle_alpha   90.31243193
_cell_angle_beta   89.68756806
_cell_angle_gamma   120.01500933
_symmetry_Int_Tables_number   1
_chemical_formula_structural   Na3ScTiSi(PO6)2
_chemical_formula_sum   'Na18 Sc6 Ti6 Si6 P12 O72'
_cell_volume   1558.72396371
_cell_formula_units_Z   6
loop_
 _symmetry_equiv_pos_site_id
 _symmetry_equiv_pos_as_xyz
  1  'x, y, z'
loop_
 _atom_site_type_symbol
 _atom_site_label
 _atom_site_symmetry_multiplicity
 _atom_site_fract_x
 _atom_site_fract_y
 _atom_site_fract_z
 _atom_site_occupancy
  Na  Na0  1  0.99893504  0.99466130  0.49914684  1
  Na  Na1  1  0.00533870  0.00106496  0.99914684  1
  Na  Na2  1  0.66911687  0.32837686  0.83277469  1
  Na  Na3  1  0.67162314  0.33088313  0.33277469  1
  Na  Na4  1  0.35377696  0.67962441  0.16572120  1
  Na  Na5  1  0.32037559  0.64622304  0.66572120  1
  Na  Na6  1  0.36488014  0.36363907  0.24858877  1
  Na  Na7  1  0.99475392  0.63218633  0.24681532  1
  Na  Na8  1  0.63636093  0.63511986  0.74858877  1
  Na  Na9  1  0.36781367  0.00524608  0.74681532  1
  Na  Na10  1  0.03727745  0.69995422  0.58153350  1
  Na  Na11  1  0.65760305  0.96517904  0.58420720  1
  Na  Na12  1  0.30004578  0.96272255  0.08153350  1
  Na  Na13  1  0.03482096  0.34239695  0.08420720  1
  Na  Na14  1  0.97322955  0.67305813  0.91755806  1
  Na  Na15  1  0.70059078  0.03092316  0.91400499  1
  Na  Na16  1  0.96907684  0.29940922  0.41400499  1
  Na  Na17  1  0.32694187  0.02677045  0.41755806  1
  Sc  Sc18  1  0.99058295  0.99326345  0.35230541  1
  Sc  Sc19  1  0.00673655  0.00941705  0.85230541  1
  Sc  Sc20  1  0.66962108  0.32753294  0.68583699  1
  Sc  Sc21  1  0.67246706  0.33037892  0.18583699  1
  Sc  Sc22  1  0.33364036  0.66782183  0.01882579  1
  Sc  Sc23  1  0.33217817  0.66635964  0.51882579  1
  Ti  Ti24  1  0.00687670  0.00986378  0.64828376  1
  Ti  Ti25  1  0.99013622  0.99312330  0.14828376  1
  Ti  Ti26  1  0.66151356  0.33761171  0.98136816  1
  Ti  Ti27  1  0.66238829  0.33848644  0.48136816  1
  Ti  Ti28  1  0.32434575  0.66169411  0.31490788  1
  Ti  Ti29  1  0.33830589  0.67565425  0.81490788  1
  Si  Si30  1  -0.00007039  0.29248314  0.25146813  1
  Si  Si31  1  0.70751686  0.00007039  0.75146813  1
  Si  Si32  1  0.36899536  0.04309310  0.58378846  1
  Si  Si33  1  0.95690690  0.63100464  0.08378846  1
  Si  Si34  1  0.33736513  0.96725317  0.91868590  1
  Si  Si35  1  0.03274683  0.66263487  0.41868590  1
  P  P36  1  0.28965112  0.99551485  0.25034121  1
  P  P37  1  0.70259629  0.71082880  0.24964342  1
  P  P38  1  0.28917120  0.29740371  0.74964342  1
  P  P39  1  0.00448515  0.71034888  0.75034121  1
  P  P40  1  0.95690065  0.32811409  0.58160975  1
  P  P41  1  0.66862836  0.62626357  0.58523634  1
  P  P42  1  0.67188591  0.04309935  0.08160975  1
  P  P43  1  0.37373643  0.33137164  0.08523634  1
  P  P44  1  0.62136922  0.65974257  0.91531352  1
  P  P45  1  0.04216014  0.37862115  0.91765881  1
  P  P46  1  0.62137885  0.95783986  0.41765881  1
  P  P47  1  0.34025743  0.37863078  0.41531352  1
  O  O48  1  0.20822869  0.02229644  0.30699331  1
  O  O49  1  0.81981713  0.78833395  0.30392206  1
  O  O50  1  0.98336287  0.18863520  0.31184272  1
  O  O51  1  0.21166605  0.18018287  0.80392206  1
  O  O52  1  0.97770356  0.79177131  0.80699331  1
  O  O53  1  0.81136480  0.01663713  0.81184272  1
  O  O54  1  0.80556025  0.97014701  0.69191866  1
  O  O55  1  0.17389909  0.19906707  0.69374363  1
  O  O56  1  0.03443708  0.82882607  0.69422281  1
  O  O57  1  0.80093293  0.82610091  0.19374363  1
  O  O58  1  0.02985299  0.19443975  0.19191866  1
  O  O59  1  0.17117393  0.96556292  0.19422281  1
  O  O60  1  0.87513087  0.36266868  0.63659008  1
  O  O61  1  0.48736248  0.12635955  0.64253012  1
  O  O62  1  0.64875215  0.52654498  0.64304403  1
  O  O63  1  0.87364045  0.51263752  0.14253012  1
  O  O64  1  0.63733132  0.12486913  0.13659008  1
  O  O65  1  0.47345502  0.35124785  0.14304403  1
  O  O66  1  0.47173705  0.30563892  0.03033141  1
  O  O67  1  0.83530161  0.52846250  0.02395427  1
  O  O68  1  0.70026360  0.15876568  0.02506580  1
  O  O69  1  0.47153750  0.16469839  0.52395427  1
  O  O70  1  0.69436108  0.52826295  0.53033141  1
  O  O71  1  0.84123432  0.29973640  0.52506580  1
  O  O72  1  0.53635003  0.68936942  0.96913158  1
  O  O73  1  0.13901187  0.45278379  0.97635691  1
  O  O74  1  0.30687061  0.84883837  0.97673801  1
  O  O75  1  0.54721621  0.86098813  0.47635691  1
  O  O76  1  0.31063058  0.46364997  0.46913158  1
  O  O77  1  0.15116163  0.69312939  0.47673801  1
  O  O78  1  0.13592536  0.63366350  0.35927418  1
  O  O79  1  0.50006692  0.85793298  0.36380927  1
  O  O80  1  0.36218309  0.48651733  0.35710091  1
  O  O81  1  0.14206702  0.49993308  0.86380927  1
  O  O82  1  0.36633650  0.86407464  0.85927418  1
  O  O83  1  0.51348267  0.63781691  0.85710091  1
  O  O84  1  0.02377540  0.83648187  0.41215246  1
  O  O85  1  0.80624418  0.99075023  0.41234256  1
  O  O86  1  0.18111483  0.19585154  0.41133556  1
  O  O87  1  0.00924977  0.19375582  0.91234256  1
  O  O88  1  0.16351813  0.97622460  0.91215246  1
  O  O89  1  0.80414846  0.81888517  0.91133556  1
  O  O90  1  0.96177479  0.15756643  0.58802965  1
  O  O91  1  0.17430518  0.01968051  0.58948950  1
  O  O92  1  0.83801572  0.80531010  0.58661565  1
  O  O93  1  0.98031949  0.82569482  0.08948950  1
  O  O94  1  0.84243357  0.03822521  0.08802965  1
  O  O95  1  0.19468990  0.16198428  0.08661565  1
  O  O96  1  0.67017158  0.15861815  0.74774639  1
  O  O97  1  0.47177864  0.32260706  0.74317595  1
  O  O98  1  0.84093381  0.53414735  0.74415988  1
  O  O99  1  0.67739294  0.52822136  0.24317595  1
  O  O100  1  0.84138185  0.32982842  0.24774639  1
  O  O101  1  0.46585265  0.15906619  0.24415988  1
  O  O102  1  0.64065194  0.49636439  0.92069145  1
  O  O103  1  0.86230047  0.36863944  0.91948105  1
  O  O104  1  0.51914317  0.15236521  0.92324574  1
  O  O105  1  0.63136056  0.13769953  0.41948105  1
  O  O106  1  0.50363561  0.35934806  0.42069145  1
  O  O107  1  0.84763479  0.48085683  0.42324574  1
  O  O108  1  0.34584233  0.48428874  0.07836532  1
  O  O109  1  0.14833934  0.65180149  0.07987673  1
  O  O110  1  0.51417791  0.86316319  0.07677171  1
  O  O111  1  0.34819851  0.85166066  0.57987673  1
  O  O112  1  0.51571126  0.65415767  0.57836532  1
  O  O113  1  0.13683681  0.48582209  0.57677171  1
  O  O114  1  0.30170601  0.82859320  0.25507742  1
  O  O115  1  0.52497936  0.69731047  0.25430299  1
  O  O116  1  0.18294209  0.48580191  0.25494612  1
  O  O117  1  0.30268953  0.47502064  0.75430299  1
  O  O118  1  0.17140680  0.69829399  0.75507742  1
  O  O119  1  0.51419809  0.81705791  0.75494612  1
