# generated using pymatgen
data_Na5Y3Ti(PO4)6
_symmetry_space_group_name_H-M   'P 1'
_cell_length_a   9.17321539
_cell_length_b   9.16942414
_cell_length_c   23.23671595
_cell_angle_alpha   89.92914466
_cell_angle_beta   89.95830499
_cell_angle_gamma   120.03628414
_symmetry_Int_Tables_number   1
_chemical_formula_structural   Na5Y3Ti(PO4)6
_chemical_formula_sum   'Na15 Y9 Ti3 P18 O72'
_cell_volume   1692.03472524
_cell_formula_units_Z   3
loop_
 _symmetry_equiv_pos_site_id
 _symmetry_equiv_pos_as_xyz
  1  'x, y, z'
loop_
 _atom_site_type_symbol
 _atom_site_label
 _atom_site_symmetry_multiplicity
 _atom_site_fract_x
 _atom_site_fract_y
 _atom_site_fract_z
 _atom_site_occupancy
  Na  Na0  1  0.63852159  0.00013777  0.25392442  1
  Na  Na1  1  0.36228711  0.36252910  0.25496834  1
  Na  Na2  1  0.99913669  0.63761382  0.25416002  1
  Na  Na3  1  0.64068694  0.64183366  0.75107697  1
  Na  Na4  1  0.00104656  0.36112013  0.75128118  1
  Na  Na5  1  0.03268684  0.69845230  0.57990355  1
  Na  Na6  1  0.66289962  0.96576969  0.57982142  1
  Na  Na7  1  0.66266482  0.69808318  0.07951178  1
  Na  Na8  1  0.03380071  0.33389378  0.07936120  1
  Na  Na9  1  0.01068871  0.01126194  0.49627118  1
  Na  Na10  1  0.01018323  0.99958353  0.99497649  1
  Na  Na11  1  0.65649350  0.32288546  0.83647181  1
  Na  Na12  1  0.66704603  0.33366433  0.34350135  1
  Na  Na13  1  0.33335215  0.67834396  0.16659328  1
  Na  Na14  1  0.33385116  0.66589372  0.66715131  1
  Y  Y15  1  0.99808136  0.99835905  0.35581361  1
  Y  Y16  1  0.00122306  0.00003880  0.85330719  1
  Y  Y17  1  0.01209727  0.00908962  0.64972965  1
  Y  Y18  1  0.00847513  0.99948689  0.14544402  1
  Y  Y19  1  0.65502060  0.32567188  0.68433442  1
  Y  Y20  1  0.66245821  0.32893607  0.18095625  1
  Y  Y21  1  0.33321067  0.67353807  0.01388494  1
  Y  Y22  1  0.33237155  0.65696500  0.51453356  1
  Y  Y23  1  0.33333951  0.66565701  0.32759966  1
  Ti  Ti24  1  0.66629105  0.33408608  0.97696656  1
  Ti  Ti25  1  0.66368161  0.33267092  0.48145985  1
  Ti  Ti26  1  0.33297434  0.67483063  0.82194848  1
  P  P27  1  0.29769621  0.99602434  0.25093773  1
  P  P28  1  0.69928200  0.70245685  0.24812696  1
  P  P29  1  0.00325681  0.30062374  0.24828111  1
  P  P30  1  0.29937464  0.31396587  0.75450323  1
  P  P31  1  0.01126465  0.70134586  0.75155319  1
  P  P32  1  0.69177955  0.98921094  0.75200688  1
  P  P33  1  0.95057802  0.33172905  0.58189433  1
  P  P34  1  0.37595392  0.04257287  0.57854036  1
  P  P35  1  0.66938724  0.62502567  0.58197615  1
  P  P36  1  0.95133971  0.61830455  0.07909761  1
  P  P37  1  0.66826220  0.04442896  0.07939963  1
  P  P38  1  0.37797658  0.33357715  0.07816418  1
  P  P39  1  0.62208802  0.65411240  0.91747422  1
  P  P40  1  0.03150099  0.37765994  0.91792482  1
  P  P41  1  0.34664100  0.97069783  0.91672464  1
  P  P42  1  0.63666522  0.98327346  0.42037709  1
  P  P43  1  0.34628565  0.36126990  0.41782253  1
  P  P44  1  0.01674385  0.65355962  0.42054762  1
  O  O45  1  0.21254365  0.02491184  0.30260324  1
  O  O46  1  0.81607256  0.79139390  0.29894921  1
  O  O47  1  0.97595424  0.18376750  0.29914961  1
  O  O48  1  0.21382078  0.19836654  0.80542003  1
  O  O49  1  0.97435848  0.78837878  0.80058057  1
  O  O50  1  0.81391336  0.02057047  0.80132212  1
  O  O51  1  0.76175762  0.95255800  0.69572584  1
  O  O52  1  0.18943388  0.23752770  0.69974257  1
  O  O53  1  0.04034656  0.80084115  0.69453126  1
  O  O54  1  0.77751472  0.80430672  0.19180749  1
  O  O55  1  0.02772140  0.22301547  0.19203994  1
  O  O56  1  0.19077512  0.96982636  0.19635069  1
  O  O57  1  0.87865628  0.35373720  0.63914755  1
  O  O58  1  0.47624207  0.11720776  0.63392596  1
  O  O59  1  0.65033932  0.53385780  0.63943499  1
  O  O60  1  0.88083450  0.52710436  0.13698744  1
  O  O61  1  0.65010326  0.11427982  0.13753216  1
  O  O62  1  0.46972714  0.35520098  0.13590965  1
  O  O63  1  0.48411526  0.32226403  0.02776985  1
  O  O64  1  0.83219585  0.51314721  0.02856338  1
  O  O65  1  0.68006998  0.16290839  0.02905572  1
  O  O66  1  0.47759952  0.15761443  0.52727069  1
  O  O67  1  0.68126962  0.51988888  0.53141493  1
  O  O68  1  0.83246452  0.31630442  0.53118047  1
  O  O69  1  0.54906998  0.67875292  0.97322023  1
  O  O70  1  0.12975895  0.45019324  0.97357887  1
  O  O71  1  0.31866364  0.86826338  0.97076875  1
  O  O72  1  0.54784389  0.87040045  0.47225107  1
  O  O73  1  0.32055918  0.45442051  0.46717972  1
  O  O74  1  0.12950412  0.67774260  0.47234571  1
  O  O75  1  0.09215040  0.62598004  0.36401196  1
  O  O76  1  0.53429140  0.90717687  0.36386817  1
  O  O77  1  0.37526189  0.46090116  0.36037491  1
  O  O78  1  0.13205914  0.49780907  0.86543900  1
  O  O79  1  0.36334832  0.86483145  0.86470899  1
  O  O80  1  0.50411270  0.63694046  0.86490038  1
  O  O81  1  0.99468308  0.80786197  0.41538888  1
  O  O82  1  0.81321905  0.00550769  0.41538315  1
  O  O83  1  0.19199198  0.18466598  0.41426515  1
  O  O84  1  0.00572301  0.20147701  0.90936425  1
  O  O85  1  0.19565618  0.99414546  0.90798744  1
  O  O86  1  0.79904849  0.80436645  0.90942788  1
  O  O87  1  0.95749712  0.16586004  0.58357584  1
  O  O88  1  0.19762167  0.02128140  0.58131139  1
  O  O89  1  0.83674954  0.79942954  0.58287439  1
  O  O90  1  0.95668996  0.78982623  0.07940894  1
  O  O91  1  0.83559962  0.03797040  0.07954134  1
  O  O92  1  0.19911575  0.17751619  0.07866541  1
  O  O93  1  0.67673221  0.14844100  0.74691892  1
  O  O94  1  0.48111895  0.34721466  0.74836605  1
  O  O95  1  0.85621329  0.52017790  0.74677724  1
  O  O96  1  0.67760393  0.52342414  0.24500843  1
  O  O97  1  0.84559212  0.32172586  0.24519205  1
  O  O98  1  0.47584064  0.15382849  0.24615199  1
  O  O99  1  0.63318800  0.48791071  0.92361939  1
  O  O100  1  0.85450455  0.36648873  0.92412369  1
  O  O101  1  0.51272714  0.14474690  0.92204124  1
  O  O102  1  0.65084999  0.15891918  0.42876177  1
  O  O103  1  0.50832735  0.35011612  0.42851697  1
  O  O104  1  0.84130517  0.49198658  0.42951201  1
  O  O105  1  0.36038474  0.49308602  0.07472347  1
  O  O106  1  0.12518115  0.63269148  0.07510305  1
  O  O107  1  0.52060357  0.86208246  0.07624541  1
  O  O108  1  0.35663839  0.86479039  0.57445834  1
  O  O109  1  0.52131939  0.65909952  0.57730401  1
  O  O110  1  0.12498094  0.49137995  0.57649643  1
  O  O111  1  0.31620502  0.83713939  0.25628060  1
  O  O112  1  0.52317223  0.68634949  0.25486903  1
  O  O113  1  0.16251305  0.47768706  0.25484771  1
  O  O114  1  0.31247367  0.49098675  0.76320323  1
  O  O115  1  0.16846007  0.67970554  0.76402924  1
  O  O116  1  0.51733744  0.82611809  0.76421979  1
