# generated using pymatgen
data_Na14Ca4Nb4Si9(SO16)3
_symmetry_space_group_name_H-M   'P 1'
_cell_length_a   18.66157624
_cell_length_b   9.33727340
_cell_length_c   22.60706578
_cell_angle_alpha   89.89348689
_cell_angle_beta   90.23287215
_cell_angle_gamma   120.07110231
_symmetry_Int_Tables_number   1
_chemical_formula_structural   Na14Ca4Nb4Si9(SO16)3
_chemical_formula_sum   'Na42 Ca12 Nb12 Si27 S9 O144'
_cell_volume   3409.00804021
_cell_formula_units_Z   3
loop_
 _symmetry_equiv_pos_site_id
 _symmetry_equiv_pos_as_xyz
  1  'x, y, z'
loop_
 _atom_site_type_symbol
 _atom_site_label
 _atom_site_symmetry_multiplicity
 _atom_site_fract_x
 _atom_site_fract_y
 _atom_site_fract_z
 _atom_site_occupancy
  Na  Na0  1  0.82318199  0.01088076  0.25832708  1
  Na  Na1  1  0.16895278  0.33987087  0.25026936  1
  Na  Na2  1  0.65977093  0.34746379  0.25300778  1
  Na  Na3  1  0.01186314  0.66381621  0.24357248  1
  Na  Na4  1  0.51194340  0.65319707  0.25526301  1
  Na  Na5  1  0.32282987  0.63413257  0.76220184  1
  Na  Na6  1  0.01159718  0.36911346  0.75965373  1
  Na  Na7  1  0.50961432  0.36315575  0.74722137  1
  Na  Na8  1  0.16189347  0.97510997  0.75799757  1
  Na  Na9  1  0.66334258  0.98518062  0.75552525  1
  Na  Na10  1  0.14361387  0.30550329  0.59030442  1
  Na  Na11  1  0.64181874  0.30790354  0.59206876  1
  Na  Na12  1  0.34256896  0.99697607  0.58028558  1
  Na  Na13  1  0.83418337  0.97080282  0.59432516  1
  Na  Na14  1  0.14463692  0.98047771  0.09285571  1
  Na  Na15  1  0.63738962  0.97439181  0.09014040  1
  Na  Na16  1  0.34479514  0.69586312  0.09142654  1
  Na  Na17  1  0.84065243  0.69268836  0.07459799  1
  Na  Na18  1  0.47839913  0.66158799  0.92124806  1
  Na  Na19  1  0.97601165  0.64490783  0.92194268  1
  Na  Na20  1  0.35288055  0.05171707  0.91758798  1
  Na  Na21  1  0.84868480  0.03768603  0.91708730  1
  Na  Na22  1  0.16955153  0.29038766  0.92899594  1
  Na  Na23  1  0.66737844  0.27774106  0.91865546  1
  Na  Na24  1  0.47663536  0.30946402  0.42025707  1
  Na  Na25  1  0.98202917  0.30049840  0.40617394  1
  Na  Na26  1  0.17044053  0.06073733  0.41331308  1
  Na  Na27  1  0.66906856  0.04794800  0.42694150  1
  Na  Na28  1  0.35001282  0.65852238  0.41212065  1
  Na  Na29  1  0.85045421  0.65333086  0.41319549  1
  Na  Na30  1  0.01773555  0.98962104  0.49857669  1
  Na  Na31  1  0.51105408  0.00625585  0.50407327  1
  Na  Na32  1  0.01225491  0.01977678  0.00757577  1
  Na  Na33  1  0.51461354  0.02260627  0.00515948  1
  Na  Na34  1  0.33172630  0.33016090  0.84273944  1
  Na  Na35  1  0.83096172  0.33588922  0.84475043  1
  Na  Na36  1  0.33021158  0.32134004  0.33731024  1
  Na  Na37  1  0.83257910  0.33582267  0.33758748  1
  Na  Na38  1  0.17257298  0.67254319  0.16870066  1
  Na  Na39  1  0.64569190  0.63761410  0.16873036  1
  Na  Na40  1  0.14878138  0.65327727  0.67279137  1
  Na  Na41  1  0.66804794  0.66962416  0.67217918  1
  Ca  Ca42  1  0.00860321  0.01903724  0.34854823  1
  Ca  Ca43  1  0.50696552  0.99364440  0.85090609  1
  Ca  Ca44  1  0.99772209  0.99523596  0.65341772  1
  Ca  Ca45  1  0.50880867  0.99883241  0.65263646  1
  Ca  Ca46  1  0.00926501  0.01697452  0.15362970  1
  Ca  Ca47  1  0.49698043  0.99767780  0.15235338  1
  Ca  Ca48  1  0.33654359  0.33275813  0.98559388  1
  Ca  Ca49  1  0.83081689  0.33057278  0.98113959  1
  Ca  Ca50  1  0.33051532  0.33051084  0.48016917  1
  Ca  Ca51  1  0.83603445  0.34032411  0.48377091  1
  Ca  Ca52  1  0.66485053  0.66638828  0.31762148  1
  Ca  Ca53  1  0.16415882  0.66244161  0.81829844  1
  Nb  Nb54  1  0.50299599  0.01297190  0.34958128  1
  Nb  Nb55  1  0.00124219  0.99065334  0.85048673  1
  Nb  Nb56  1  0.33165485  0.32148518  0.68204635  1
  Nb  Nb57  1  0.83211069  0.32291869  0.69115395  1
  Nb  Nb58  1  0.33905207  0.35583848  0.18748258  1
  Nb  Nb59  1  0.83279494  0.34204211  0.18124012  1
  Nb  Nb60  1  0.15140276  0.64775268  0.01940614  1
  Nb  Nb61  1  0.65997903  0.64953846  0.01959188  1
  Nb  Nb62  1  0.16943380  0.68581298  0.51552151  1
  Nb  Nb63  1  0.65095174  0.65481961  0.51996338  1
  Nb  Nb64  1  0.16736790  0.66878036  0.31375021  1
  Nb  Nb65  1  0.66723043  0.66567379  0.81583186  1
  Si  Si66  1  0.15866831  0.00391815  0.24880922  1
  Si  Si67  1  0.65482746  0.01055379  0.24751267  1
  Si  Si68  1  0.34957175  0.70237548  0.24916750  1
  Si  Si69  1  0.99578330  0.30816015  0.25440637  1
  Si  Si70  1  0.49791272  0.30191405  0.24785151  1
  Si  Si71  1  0.15265284  0.29784756  0.74611649  1
  Si  Si72  1  0.65428640  0.31207093  0.74942853  1
  Si  Si73  1  0.99920371  0.69701201  0.74754481  1
  Si  Si74  1  0.49557165  0.68362574  0.75402278  1
  Si  Si75  1  0.84893788  0.99559996  0.74862131  1
  Si  Si76  1  0.48057335  0.32748159  0.57740544  1
  Si  Si77  1  0.18025885  0.02311233  0.57776742  1
  Si  Si78  1  0.68881878  0.02948459  0.57948107  1
  Si  Si79  1  0.48655656  0.63159204  0.07869746  1
  Si  Si80  1  0.98117485  0.63496538  0.07740452  1
  Si  Si81  1  0.18822118  0.34705245  0.07948852  1
  Si  Si82  1  0.68155516  0.33821629  0.07737522  1
  Si  Si83  1  0.81444312  0.67554267  0.91776402  1
  Si  Si84  1  0.01630809  0.35129120  0.91200402  1
  Si  Si85  1  0.51961327  0.36623513  0.91342155  1
  Si  Si86  1  0.16577171  0.96040808  0.91245385  1
  Si  Si87  1  0.66301070  0.94775474  0.91930555  1
  Si  Si88  1  0.31695870  0.95933794  0.41374330  1
  Si  Si89  1  0.16178134  0.37765452  0.42044654  1
  Si  Si90  1  0.66585630  0.37147661  0.41364942  1
  Si  Si91  1  0.02081407  0.67228506  0.41287518  1
  Si  Si92  1  0.51637328  0.68152413  0.41218709  1
  S  S93  1  0.84954828  0.69264443  0.24705432  1
  S  S94  1  0.34930378  0.00527841  0.74616843  1
  S  S95  1  0.98735576  0.34699791  0.58367400  1
  S  S96  1  0.32563800  0.62400296  0.58628253  1
  S  S97  1  0.82777826  0.62571700  0.58095280  1
  S  S98  1  0.32569036  0.02572817  0.08012017  1
  S  S99  1  0.82786102  0.03156758  0.08667100  1
  S  S100  1  0.31414849  0.67631463  0.91986924  1
  S  S101  1  0.81553785  0.95218026  0.42172192  1
  O  O102  1  0.12695934  0.06165724  0.30632439  1
  O  O103  1  0.59972826  0.03794765  0.30459322  1
  O  O104  1  0.41848988  0.81294391  0.30316718  1
  O  O105  1  0.89685783  0.76747685  0.30223809  1
  O  O106  1  0.48834378  0.18028425  0.30997776  1
  O  O107  1  0.96425323  0.19576509  0.31411063  1
  O  O108  1  0.09774878  0.15931997  0.80201077  1
  O  O109  1  0.62433309  0.18793501  0.80549548  1
  O  O110  1  0.46252774  0.73142310  0.81297554  1
  O  O111  1  0.98698889  0.79433336  0.80846826  1
  O  O112  1  0.39763840  0.02544834  0.80057244  1
  O  O113  1  0.91823272  0.02555591  0.80165874  1
  O  O114  1  0.39102536  0.99459914  0.69272809  1
  O  O115  1  0.87611347  0.96907852  0.68517055  1
  O  O116  1  0.09785889  0.23806719  0.68709105  1
  O  O117  1  0.59561460  0.24900365  0.69181141  1
  O  O118  1  0.02196946  0.82383710  0.69524132  1
  O  O119  1  0.52449325  0.81956380  0.70294033  1
  O  O120  1  0.37352260  0.78589566  0.18615487  1
  O  O121  1  0.89201038  0.79040204  0.19448340  1
  O  O122  1  0.02389794  0.22597030  0.20475869  1
  O  O123  1  0.52165092  0.21754167  0.19748393  1
  O  O124  1  0.09425191  0.93641801  0.19390189  1
  O  O125  1  0.59780169  0.96052813  0.19010747  1
  O  O126  1  0.42416307  0.34130215  0.63411236  1
  O  O127  1  0.94226365  0.35727897  0.63723294  1
  O  O128  1  0.24880075  0.13970855  0.63398460  1
  O  O129  1  0.75592245  0.14110599  0.63687891  1
  O  O130  1  0.32034820  0.51311762  0.63801419  1
  O  O131  1  0.82617743  0.51594187  0.62981280  1
  O  O132  1  0.43223113  0.50909861  0.13760748  1
  O  O133  1  0.92622077  0.50836051  0.13478409  1
  O  O134  1  0.32126038  0.12870602  0.12858618  1
  O  O135  1  0.82458947  0.13445382  0.13882578  1
  O  O136  1  0.25516264  0.37457006  0.13643268  1
  O  O137  1  0.75093258  0.35650019  0.13389151  1
  O  O138  1  0.22722745  0.33086555  0.01920476  1
  O  O139  1  0.72120308  0.32087161  0.01731703  1
  O  O140  1  0.44201678  0.55247741  0.01771932  1
  O  O141  1  0.93577687  0.55788582  0.01647634  1
  O  O142  1  0.33312026  0.10283934  0.02173001  1
  O  O143  1  0.83850444  0.12061113  0.03155990  1
  O  O144  1  0.22201273  0.11296365  0.51688911  1
  O  O145  1  0.73202970  0.12237977  0.51978908  1
  O  O146  1  0.33599152  0.55555205  0.53089773  1
  O  O147  1  0.83625078  0.56329355  0.52311448  1
  O  O148  1  0.43553267  0.31372348  0.51622706  1
  O  O149  1  0.94493994  0.34553721  0.52896169  1
  O  O150  1  0.26168100  0.67683320  0.97049812  1
  O  O151  1  0.77060385  0.69430921  0.97958789  1
  O  O152  1  0.07978343  0.46904151  0.97112198  1
  O  O153  1  0.58154447  0.48091519  0.97202058  1
  O  O154  1  0.15511667  0.82629836  0.96945357  1
  O  O155  1  0.66684303  0.83733584  0.97751634  1
  O  O156  1  0.26908311  0.85090116  0.47764142  1
  O  O157  1  0.76318781  0.84790537  0.47295257  1
  O  O158  1  0.16569833  0.49299093  0.48078934  1
  O  O159  1  0.65575356  0.48491477  0.47115877  1
  O  O160  1  0.08483976  0.68587734  0.47188793  1
  O  O161  1  0.57959569  0.69044830  0.47243775  1
  O  O162  1  0.07592385  0.67581900  0.35630905  1
  O  O163  1  0.55719205  0.65724754  0.35473776  1
  O  O164  1  0.25301607  0.83376077  0.36400197  1
  O  O165  1  0.77185486  0.88437932  0.36538667  1
  O  O166  1  0.15508847  0.48358133  0.36391002  1
  O  O167  1  0.68554068  0.47431840  0.35371449  1
  O  O168  1  0.05568310  0.45507874  0.85372202  1
  O  O169  1  0.57685300  0.47710577  0.85709870  1
  O  O170  1  0.18226931  0.89540802  0.85171679  1
  O  O171  1  0.65706632  0.83415449  0.86059043  1
  O  O172  1  0.27338127  0.66674233  0.86287232  1
  O  O173  1  0.75310186  0.67413054  0.86437729  1
  O  O174  1  0.01185302  0.83412275  0.41719954  1
  O  O175  1  0.52126203  0.86414764  0.41415893  1
  O  O176  1  0.40524590  0.96032233  0.41014424  1
  O  O177  1  0.89447019  0.95014270  0.42431653  1
  O  O178  1  0.07744585  0.20088920  0.42579011  1
  O  O179  1  0.57488652  0.19320105  0.41292369  1
  O  O180  1  0.02126273  0.17811750  0.91293573  1
  O  O181  1  0.51295103  0.18810224  0.91742660  1
  O  O182  1  0.07424709  0.95635108  0.91120113  1
  O  O183  1  0.57875031  0.95509351  0.92507957  1
  O  O184  1  0.39463529  0.83322841  0.92409950  1
  O  O185  1  0.90492139  0.84983972  0.90814101  1
  O  O186  1  0.49275933  0.16960947  0.58564058  1
  O  O187  1  0.99286373  0.19429933  0.58551686  1
  O  O188  1  0.09251742  0.01201813  0.58512245  1
  O  O189  1  0.60028127  0.01638166  0.58603040  1
  O  O190  1  0.39212291  0.79441468  0.59478020  1
  O  O191  1  0.89442447  0.79901663  0.58682825  1
  O  O192  1  0.49585863  0.81155582  0.08521790  1
  O  O193  1  0.99322370  0.81700648  0.08560076  1
  O  O194  1  0.39291057  0.98840138  0.08651118  1
  O  O195  1  0.89445982  0.99451255  0.09546033  1
  O  O196  1  0.09894575  0.18518155  0.08785454  1
  O  O197  1  0.59297075  0.18015820  0.08727110  1
  O  O198  1  0.34489742  0.16547194  0.74309029  1
  O  O199  1  0.84670864  0.17843253  0.74599554  1
  O  O200  1  0.24245291  0.29174945  0.74009255  1
  O  O201  1  0.74617138  0.32429449  0.73271539  1
  O  O202  1  0.41340276  0.49610126  0.73462621  1
  O  O203  1  0.91282671  0.51285906  0.73763883  1
  O  O204  1  0.34790719  0.51814346  0.24761318  1
  O  O205  1  0.84586656  0.52510993  0.24340164  1
  O  O206  1  0.41128081  0.31054283  0.24087386  1
  O  O207  1  0.91415445  0.33231646  0.23674258  1
  O  O208  1  0.24690631  0.17364501  0.23074083  1
  O  O209  1  0.74409961  0.19628576  0.24193931  1
  O  O210  1  0.32523972  0.52997571  0.92256985  1
  O  O211  1  0.82439194  0.51504867  0.91166021  1
  O  O212  1  0.43137456  0.35893811  0.91005070  1
  O  O213  1  0.92432636  0.31897787  0.92041811  1
  O  O214  1  0.24102019  0.14755184  0.92126049  1
  O  O215  1  0.74691480  0.12369678  0.91283059  1
  O  O216  1  0.32531588  0.13802848  0.40957124  1
  O  O217  1  0.83161805  0.12467810  0.42591871  1
  O  O218  1  0.24571158  0.37007289  0.41405584  1
  O  O219  1  0.74119802  0.33458467  0.42309563  1
  O  O220  1  0.42453665  0.52911443  0.42052741  1
  O  O221  1  0.93372457  0.49908338  0.41267696  1
  O  O222  1  0.18596176  0.52810358  0.07673040  1
  O  O223  1  0.68905215  0.52586596  0.08107973  1
  O  O224  1  0.07524169  0.64665846  0.07804890  1
  O  O225  1  0.58137480  0.64694934  0.07988651  1
  O  O226  1  0.24260500  0.86272799  0.08172739  1
  O  O227  1  0.74534867  0.87375741  0.08919384  1
  O  O228  1  0.18312194  0.84253494  0.58194988  1
  O  O229  1  0.68625716  0.84364907  0.57897665  1
  O  O230  1  0.24337468  0.61999005  0.58760713  1
  O  O231  1  0.74459594  0.61996299  0.58330444  1
  O  O232  1  0.07371729  0.49658823  0.58493393  1
  O  O233  1  0.57516762  0.50345413  0.57881052  1
  O  O234  1  0.17542136  0.84603286  0.26061755  1
  O  O235  1  0.68367861  0.87725242  0.25938677  1
  O  O236  1  0.25233718  0.64496385  0.26541467  1
  O  O237  1  0.76446411  0.66371420  0.24835269  1
  O  O238  1  0.07582297  0.50207516  0.25964705  1
  O  O239  1  0.57346196  0.49080251  0.25326781  1
  O  O240  1  0.18175303  0.48929608  0.75792528  1
  O  O241  1  0.67274510  0.50298095  0.75958089  1
  O  O242  1  0.07340767  0.65627270  0.75307925  1
  O  O243  1  0.57505795  0.64909531  0.75989713  1
  O  O244  1  0.26428278  0.86395971  0.74773168  1
  O  O245  1  0.75183263  0.85702733  0.76279719  1
