# generated using pymatgen
data_MgCoPb2WO6
_symmetry_space_group_name_H-M   'P 1'
_cell_length_a   6.17784852
_cell_length_b   6.85216016
_cell_length_c   6.31719282
_cell_angle_alpha   75.62786581
_cell_angle_beta   125.08050829
_cell_angle_gamma   126.78485642
_symmetry_Int_Tables_number   1
_chemical_formula_structural   MgCoPb2WO6
_chemical_formula_sum   'Mg1 Co1 Pb2 W1 O6'
_cell_volume   173.37844824
_cell_formula_units_Z   1
loop_
 _symmetry_equiv_pos_site_id
 _symmetry_equiv_pos_as_xyz
  1  'x, y, z'
loop_
 _atom_site_type_symbol
 _atom_site_label
 _atom_site_symmetry_multiplicity
 _atom_site_fract_x
 _atom_site_fract_y
 _atom_site_fract_z
 _atom_site_occupancy
  Mg  Mg0  1  0.50019190  0.50003195  0.00004653  1
  Co  Co1  1  -0.00017826  0.50002479  0.50011434  1
  Pb  Pb2  1  0.41819250  0.08349912  0.70304724  1
  Pb  Pb3  1  0.58156944  0.91648633  0.29698755  1
  W  W4  1  0.00024596  0.00003154  0.00010801  1
  O  O5  1  0.03972192  0.24605495  0.73231388  1
  O  O6  1  0.47419507  0.75071272  0.75906361  1
  O  O7  1  0.96053593  0.75401134  0.26756838  1
  O  O8  1  0.52580409  0.24924709  0.24091919  1
  O  O9  1  0.89531236  0.16412517  0.12603520  1
  O  O10  1  0.10440808  0.83577498  0.87379508  1
