# generated using pymatgen
data_Na8Ca3Zr(PO4)6
_symmetry_space_group_name_H-M   'P 1'
_cell_length_a   9.41291443
_cell_length_b   9.41291408
_cell_length_c   23.05407814
_cell_angle_alpha   90.00000000
_cell_angle_beta   90.00000000
_cell_angle_gamma   120.00000119
_symmetry_Int_Tables_number   1
_chemical_formula_structural   Na8Ca3Zr(PO4)6
_chemical_formula_sum   'Na24 Ca9 Zr3 P18 O72'
_cell_volume   1768.99494767
_cell_formula_units_Z   3
loop_
 _symmetry_equiv_pos_site_id
 _symmetry_equiv_pos_as_xyz
  1  'x, y, z'
loop_
 _atom_site_type_symbol
 _atom_site_label
 _atom_site_symmetry_multiplicity
 _atom_site_fract_x
 _atom_site_fract_y
 _atom_site_fract_z
 _atom_site_occupancy
  Na  Na0  1  0.63441016  0.99920059  0.25252309  1
  Na  Na1  1  0.36479043  0.36558984  0.25252309  1
  Na  Na2  1  0.00079941  0.63520957  0.25252309  1
  Na  Na3  1  0.64601975  0.63462090  0.74260346  1
  Na  Na4  1  0.98860114  0.35398025  0.74260346  1
  Na  Na5  1  0.36537910  0.01139886  0.74260346  1
  Na  Na6  1  0.29697794  0.33597880  0.57903655  1
  Na  Na7  1  0.03900186  0.70302206  0.57903655  1
  Na  Na8  1  0.66402120  0.96099814  0.57903655  1
  Na  Na9  1  0.29618614  0.96237354  0.09208313  1
  Na  Na10  1  0.66618840  0.70381386  0.09208313  1
  Na  Na11  1  0.03762646  0.33381160  0.09208313  1
  Na  Na12  1  0.97344744  0.67869824  0.91450725  1
  Na  Na13  1  0.70524980  0.02655256  0.91450725  1
  Na  Na14  1  0.32130176  0.29475020  0.91450725  1
  Na  Na15  1  0.98027074  0.30086971  0.40867694  1
  Na  Na16  1  0.32059797  0.01972926  0.40867694  1
  Na  Na17  1  0.69913029  0.67940203  0.40867694  1
  Na  Na18  1  0.00000000  0.00000000  0.49610762  1
  Na  Na19  1  0.00000000  0.00000000  0.00672938  1
  Na  Na20  1  0.66666700  0.33333300  0.82733486  1
  Na  Na21  1  0.66666700  0.33333300  0.32378781  1
  Na  Na22  1  0.33333300  0.66666700  0.17672318  1
  Na  Na23  1  0.33333300  0.66666700  0.65607107  1
  Ca  Ca24  1  0.00000000  0.00000000  0.34591419  1
  Ca  Ca25  1  0.00000000  0.00000000  0.84657800  1
  Ca  Ca26  1  0.00000000  0.00000000  0.65123273  1
  Ca  Ca27  1  0.00000000  0.00000000  0.15267005  1
  Ca  Ca28  1  0.66666700  0.33333300  0.68087893  1
  Ca  Ca29  1  0.66666700  0.33333300  0.18201002  1
  Ca  Ca30  1  0.33333300  0.66666700  0.01612713  1
  Ca  Ca31  1  0.33333300  0.66666700  0.51198121  1
  Ca  Ca32  1  0.33333300  0.66666700  0.32209592  1
  Zr  Zr33  1  0.66666700  0.33333300  0.98280422  1
  Zr  Zr34  1  0.66666700  0.33333300  0.48502753  1
  Zr  Zr35  1  0.33333300  0.66666700  0.81891503  1
  P  P36  1  0.30615923  0.99795418  0.24951370  1
  P  P37  1  0.69179495  0.69384077  0.24951370  1
  P  P38  1  0.00204582  0.30820505  0.24951370  1
  P  P39  1  0.30524776  0.31185078  0.75331371  1
  P  P40  1  0.00660302  0.69475224  0.75331371  1
  P  P41  1  0.68814922  0.99339698  0.75331371  1
  P  P42  1  0.96567796  0.33375928  0.58427978  1
  P  P43  1  0.36808232  0.03432204  0.58427978  1
  P  P44  1  0.66624072  0.63191768  0.58427978  1
  P  P45  1  0.96218298  0.63011685  0.08098363  1
  P  P46  1  0.66793487  0.03781702  0.08098363  1
  P  P47  1  0.36988315  0.33206513  0.08098363  1
  P  P48  1  0.63047202  0.66101099  0.91732297  1
  P  P49  1  0.03053798  0.36952798  0.91732297  1
  P  P50  1  0.33898901  0.96946202  0.91732297  1
  P  P51  1  0.64060391  0.97920911  0.42004024  1
  P  P52  1  0.33860420  0.35939609  0.42004024  1
  P  P53  1  0.02079089  0.66139580  0.42004024  1
  O  O54  1  0.22023146  0.01437607  0.30415052  1
  O  O55  1  0.79414461  0.77976854  0.30415052  1
  O  O56  1  0.98562393  0.20585539  0.30415052  1
  O  O57  1  0.22570162  0.20843940  0.80763963  1
  O  O58  1  0.98273778  0.77429838  0.80763963  1
  O  O59  1  0.79156060  0.01726222  0.80763963  1
  O  O60  1  0.76161696  0.96005240  0.69871861  1
  O  O61  1  0.19843544  0.23838304  0.69871861  1
  O  O62  1  0.03994760  0.80156456  0.69871861  1
  O  O63  1  0.77447983  0.79393649  0.19363565  1
  O  O64  1  0.01945666  0.22552017  0.19363565  1
  O  O65  1  0.20606351  0.98054334  0.19363565  1
  O  O66  1  0.89045150  0.35128691  0.64099112  1
  O  O67  1  0.46083641  0.10954850  0.64099112  1
  O  O68  1  0.64871309  0.53916359  0.64099112  1
  O  O69  1  0.88265719  0.53219189  0.13560061  1
  O  O70  1  0.64953570  0.11734281  0.13560061  1
  O  O71  1  0.46780811  0.35046430  0.13560061  1
  O  O72  1  0.47308601  0.32345058  0.02622791  1
  O  O73  1  0.85036557  0.52691399  0.02622791  1
  O  O74  1  0.67654942  0.14963443  0.02622791  1
  O  O75  1  0.47306135  0.14740067  0.53220948  1
  O  O76  1  0.67434032  0.52693865  0.53220948  1
  O  O77  1  0.85259933  0.32565968  0.53220948  1
  O  O78  1  0.55329927  0.68469595  0.97164831  1
  O  O79  1  0.13139568  0.44670073  0.97164831  1
  O  O80  1  0.31530405  0.86860432  0.97164831  1
  O  O81  1  0.56024101  0.87517297  0.47428555  1
  O  O82  1  0.31493095  0.43975899  0.47428555  1
  O  O83  1  0.12482703  0.68506905  0.47428555  1
  O  O84  1  0.09394817  0.62749339  0.36555474  1
  O  O85  1  0.53354422  0.90605183  0.36555474  1
  O  O86  1  0.37250661  0.46645578  0.36555474  1
  O  O87  1  0.12444271  0.48396036  0.86378432  1
  O  O88  1  0.35951665  0.87555729  0.86378432  1
  O  O89  1  0.51603964  0.64048335  0.86378432  1
  O  O90  1  0.99562761  0.81115060  0.41522833  1
  O  O91  1  0.81552300  0.00437239  0.41522833  1
  O  O92  1  0.18884940  0.18447700  0.41522833  1
  O  O93  1  0.00370571  0.19550491  0.90997652  1
  O  O94  1  0.19179920  0.99629429  0.90997652  1
  O  O95  1  0.80449509  0.80820080  0.90997652  1
  O  O96  1  0.97266851  0.17247587  0.58160681  1
  O  O97  1  0.19980736  0.02733149  0.58160681  1
  O  O98  1  0.82752413  0.80019264  0.58160681  1
  O  O99  1  0.96832230  0.79731260  0.07786732  1
  O  O100  1  0.82899030  0.03167770  0.07786732  1
  O  O101  1  0.20268740  0.17100970  0.07786732  1
  O  O102  1  0.66201261  0.14308746  0.74885662  1
  O  O103  1  0.48107585  0.33798739  0.74885662  1
  O  O104  1  0.85691254  0.51892415  0.74885662  1
  O  O105  1  0.67453440  0.52041447  0.24836793  1
  O  O106  1  0.84588107  0.32546560  0.24836793  1
  O  O107  1  0.47958553  0.15411893  0.24836793  1
  O  O108  1  0.63839421  0.49673688  0.91895872  1
  O  O109  1  0.85834367  0.36160579  0.91895872  1
  O  O110  1  0.50326312  0.14165633  0.91895872  1
  O  O111  1  0.65829280  0.15545672  0.42738158  1
  O  O112  1  0.49716492  0.34170720  0.42738158  1
  O  O113  1  0.84454328  0.50283508  0.42738158  1
  O  O114  1  0.34954374  0.48401535  0.07591854  1
  O  O115  1  0.13447062  0.65045626  0.07591854  1
  O  O116  1  0.51598465  0.86552938  0.07591854  1
  O  O117  1  0.34870593  0.86149459  0.57896329  1
  O  O118  1  0.51278766  0.65129407  0.57896329  1
  O  O119  1  0.13850541  0.48721234  0.57896329  1
  O  O120  1  0.32296641  0.84146326  0.25231409  1
  O  O121  1  0.51849585  0.67703359  0.25231409  1
  O  O122  1  0.15853674  0.48150415  0.25231409  1
  O  O123  1  0.32241112  0.48841385  0.76089973  1
  O  O124  1  0.16600173  0.67758888  0.76089973  1
  O  O125  1  0.51158615  0.83399827  0.76089973  1
