# generated using pymatgen
data_Na3Hf2Zr2SiP5O24
_symmetry_space_group_name_H-M   'P 1'
_cell_length_a   9.00588957
_cell_length_b   8.98060044
_cell_length_c   22.93666817
_cell_angle_alpha   89.98251874
_cell_angle_beta   90.04986243
_cell_angle_gamma   119.91959930
_symmetry_Int_Tables_number   1
_chemical_formula_structural   Na3Hf2Zr2SiP5O24
_chemical_formula_sum   'Na9 Hf6 Zr6 Si3 P15 O72'
_cell_volume   1607.84458993
_cell_formula_units_Z   3
loop_
 _symmetry_equiv_pos_site_id
 _symmetry_equiv_pos_as_xyz
  1  'x, y, z'
loop_
 _atom_site_type_symbol
 _atom_site_label
 _atom_site_symmetry_multiplicity
 _atom_site_fract_x
 _atom_site_fract_y
 _atom_site_fract_z
 _atom_site_occupancy
  Na  Na0  1  0.36634031  0.00015696  0.74895829  1
  Na  Na1  1  0.66190677  0.96952415  0.58789270  1
  Na  Na2  1  0.67091843  0.69790800  0.08074677  1
  Na  Na3  1  0.02733358  0.00143977  0.49982650  1
  Na  Na4  1  0.02006344  0.01170316  0.99812763  1
  Na  Na5  1  0.68666157  0.34503387  0.83440232  1
  Na  Na6  1  0.66666473  0.33339215  0.33346387  1
  Na  Na7  1  0.30838376  0.66480137  0.16788732  1
  Na  Na8  1  0.32253528  0.64247730  0.66671087  1
  Hf  Hf9  1  0.99240621  -0.00076933  0.85356192  1
  Hf  Hf10  1  -0.00031728  -0.00209936  0.64601516  1
  Hf  Hf11  1  0.66832103  0.33482098  0.68719939  1
  Hf  Hf12  1  0.67097794  0.33380008  0.18778700  1
  Hf  Hf13  1  0.66924655  0.33377143  0.97914932  1
  Hf  Hf14  1  0.66134050  0.33141152  0.47955773  1
  Zr  Zr15  1  -0.00089293  -0.00063271  0.35366838  1
  Zr  Zr16  1  0.00707744  0.00461631  0.14642751  1
  Zr  Zr17  1  0.32522869  0.66812952  0.01973612  1
  Zr  Zr18  1  0.32768960  0.66485085  0.52029122  1
  Zr  Zr19  1  0.33431912  0.66725012  0.31314060  1
  Zr  Zr20  1  0.33785895  0.66517327  0.81381478  1
  Si  Si21  1  0.70813896  0.00221137  0.74764323  1
  Si  Si22  1  0.37217655  0.04363173  0.58460695  1
  Si  Si23  1  0.95743616  0.62253011  0.08403260  1
  P  P24  1  0.29478860  0.00257882  0.25065003  1
  P  P25  1  0.70687596  0.70654322  0.24814812  1
  P  P26  1  0.99771616  0.29244907  0.25079592  1
  P  P27  1  0.28644831  0.28687665  0.74986733  1
  P  P28  1  0.99736418  0.71021409  0.75148420  1
  P  P29  1  0.95463293  0.33311060  0.58327747  1
  P  P30  1  0.66833055  0.62335700  0.58262477  1
  P  P31  1  0.66683011  0.04503257  0.08355654  1
  P  P32  1  0.38123277  0.33291159  0.08234657  1
  P  P33  1  0.62947734  0.66601500  0.91942617  1
  P  P34  1  0.03930190  0.37164100  0.91639986  1
  P  P35  1  0.33327786  0.96404166  0.91411214  1
  P  P36  1  0.62658993  0.96052692  0.41839506  1
  P  P37  1  0.33541466  0.37431553  0.41631144  1
  P  P38  1  0.03833157  0.66368235  0.41616063  1
  O  O39  1  0.20249750  0.01920206  0.30464753  1
  O  O40  1  0.82096292  0.80220985  0.30108412  1
  O  O41  1  0.98314848  0.18515610  0.30507940  1
  O  O42  1  0.20326310  0.17164827  0.80360806  1
  O  O43  1  0.98099707  0.79863538  0.80652683  1
  O  O44  1  0.82597875  0.01679308  0.80332621  1
  O  O45  1  0.79086108  0.98129109  0.68706287  1
  O  O46  1  0.17885892  0.19850550  0.69504563  1
  O  O47  1  0.02671055  0.82590000  0.69749582  1
  O  O48  1  0.79098124  0.80890331  0.19157185  1
  O  O49  1  0.01641910  0.20400578  0.19598716  1
  O  O50  1  0.18610377  0.98287758  0.19572819  1
  O  O51  1  0.86895120  0.35556267  0.63826620  1
  O  O52  1  0.48727152  0.13117660  0.64344612  1
  O  O53  1  0.65116956  0.51894980  0.63778968  1
  O  O54  1  0.86271921  0.50967419  0.14170064  1
  O  O55  1  0.64210789  0.12735879  0.13865132  1
  O  O56  1  0.49143113  0.35424877  0.13675242  1
  O  O57  1  0.46375060  0.30742517  0.02742312  1
  O  O58  1  0.83597122  0.52845620  0.02740087  1
  O  O59  1  0.68292537  0.14952048  0.02849069  1
  O  O60  1  0.47512056  0.16075630  0.52856080  1
  O  O61  1  0.69104408  0.53834871  0.52787576  1
  O  O62  1  0.84428571  0.31271347  0.52918649  1
  O  O63  1  0.54808355  0.68504951  0.97620257  1
  O  O64  1  0.14836108  0.46314423  0.97082824  1
  O  O65  1  0.31584223  0.84777389  0.96710708  1
  O  O66  1  0.54261667  0.85829674  0.47494830  1
  O  O67  1  0.31725093  0.46388828  0.47081089  1
  O  O68  1  0.14764326  0.68430388  0.47100117  1
  O  O69  1  0.13021483  0.64660910  0.36209513  1
  O  O70  1  0.51240952  0.86498019  0.36538716  1
  O  O71  1  0.35108778  0.48186142  0.36173718  1
  O  O72  1  0.12749865  0.48093028  0.86206340  1
  O  O73  1  0.35042190  0.87742395  0.85773795  1
  O  O74  1  0.51430112  0.65182521  0.86677058  1
  O  O75  1  0.02017760  0.82597762  0.41173224  1
  O  O76  1  0.80510643  0.97708105  0.41198460  1
  O  O77  1  0.17546636  0.19262784  0.41196026  1
  O  O78  1  0.02412539  0.19297564  0.91181114  1
  O  O79  1  0.17179457  0.98160079  0.91170240  1
  O  O80  1  0.80941538  0.82618682  0.91231101  1
  O  O81  1  0.96374767  0.16548655  0.58794849  1
  O  O82  1  0.18130721  0.01934104  0.58829978  1
  O  O83  1  0.82564383  0.80771230  0.58745362  1
  O  O84  1  0.97042045  0.81277043  0.08815716  1
  O  O85  1  0.82896321  0.02607306  0.08815601  1
  O  O86  1  0.19804631  0.17895426  0.08817844  1
  O  O87  1  0.68224474  0.17150370  0.74651706  1
  O  O88  1  0.46658324  0.30727743  0.74353450  1
  O  O89  1  0.83614442  0.53317462  0.74504116  1
  O  O90  1  0.68562254  0.52504798  0.24516483  1
  O  O91  1  0.83397334  0.30688773  0.24678787  1
  O  O92  1  0.47291604  0.16366740  0.24574722  1
  O  O93  1  0.64423473  0.50218529  0.92067063  1
  O  O94  1  0.85862731  0.35044502  0.92180474  1
  O  O95  1  0.49559791  0.14087172  0.92044062  1
  O  O96  1  0.64661618  0.14173682  0.42162516  1
  O  O97  1  0.49875301  0.35862961  0.42056587  1
  O  O98  1  0.85995805  0.50239392  0.42134087  1
  O  O99  1  0.37335150  0.50145203  0.07729954  1
  O  O100  1  0.14913335  0.64733281  0.07866337  1
  O  O101  1  0.51222046  0.85902270  0.07819167  1
  O  O102  1  0.36236980  0.85447177  0.57904496  1
  O  O103  1  0.50740473  0.64454081  0.57835971  1
  O  O104  1  0.13690152  0.48822561  0.57852886  1
  O  O105  1  0.31258940  0.83998288  0.25492736  1
  O  O106  1  0.52829247  0.69026580  0.25448997  1
  O  O107  1  0.15794405  0.47445144  0.25485325  1
  O  O108  1  0.30340668  0.46569819  0.75562035  1
  O  O109  1  0.15998870  0.69271811  0.75590096  1
  O  O110  1  0.51185518  0.83406068  0.75424850  1
