# generated using pymatgen
data_Na3SiSn2Ge2P5O24
_symmetry_space_group_name_H-M   'P 1'
_cell_length_a   8.62380196
_cell_length_b   8.60331210
_cell_length_c   22.22740655
_cell_angle_alpha   90.11387696
_cell_angle_beta   89.71039425
_cell_angle_gamma   119.87243934
_symmetry_Int_Tables_number   1
_chemical_formula_structural   Na3SiSn2Ge2P5O24
_chemical_formula_sum   'Na9 Si3 Sn6 Ge6 P15 O72'
_cell_volume   1429.99674904
_cell_formula_units_Z   3
loop_
 _symmetry_equiv_pos_site_id
 _symmetry_equiv_pos_as_xyz
  1  'x, y, z'
loop_
 _atom_site_type_symbol
 _atom_site_label
 _atom_site_symmetry_multiplicity
 _atom_site_fract_x
 _atom_site_fract_y
 _atom_site_fract_z
 _atom_site_occupancy
  Na  Na0  1  0.36963068  0.00126590  0.74835478  1
  Na  Na1  1  0.66567759  0.96692629  0.58576928  1
  Na  Na2  1  0.66904602  0.69938008  0.08262171  1
  Na  Na3  1  0.01041987  0.00086958  0.50103403  1
  Na  Na4  1  0.00836779  0.00473614  0.99761053  1
  Na  Na5  1  0.67511746  0.34000698  0.83399511  1
  Na  Na6  1  0.66679681  0.33341531  0.33348505  1
  Na  Na7  1  0.32136363  0.66538221  0.16725054  1
  Na  Na8  1  0.32704312  0.65507305  0.66677381  1
  Si  Si9  1  0.72430480  0.00724970  0.74798896  1
  Si  Si10  1  0.37590118  0.05521370  0.58529003  1
  Si  Si11  1  0.94893990  0.61023715  0.08358649  1
  Sn  Sn12  1  0.00108905  0.00032915  0.35135888  1
  Sn  Sn13  1  0.00574398  0.00212263  0.14565071  1
  Sn  Sn14  1  0.32486212  0.66614293  0.01849594  1
  Sn  Sn15  1  0.32847390  0.66535255  0.52130827  1
  Sn  Sn16  1  0.33215645  0.66621516  0.31559584  1
  Sn  Sn17  1  0.33686331  0.66531121  0.81407574  1
  Ge  Ge18  1  0.99509520  0.00059779  0.85155693  1
  Ge  Ge19  1  0.00350271  0.99870952  0.64678482  1
  Ge  Ge20  1  0.67019165  0.33080185  0.68675231  1
  Ge  Ge21  1  0.67114080  0.33445842  0.18615006  1
  Ge  Ge22  1  0.66957785  0.33682631  0.98056098  1
  Ge  Ge23  1  0.65983944  0.33079512  0.48207685  1
  P  P24  1  0.30281471  0.00779197  0.24829546  1
  P  P25  1  0.70475801  0.69918821  0.24821292  1
  P  P26  1  0.99344817  0.29334255  0.24857198  1
  P  P27  1  0.28384298  0.28274464  0.74860841  1
  P  P28  1  0.98986659  0.71082921  0.74929267  1
  P  P29  1  0.94883924  0.33162874  0.58444962  1
  P  P30  1  0.67278110  0.61494792  0.58492153  1
  P  P31  1  0.66630793  0.05579810  0.08305772  1
  P  P32  1  0.38734232  0.33069618  0.08258647  1
  P  P33  1  0.63420809  0.66591374  0.91751456  1
  P  P34  1  0.03316163  0.36550729  0.91608895  1
  P  P35  1  0.33320910  0.97116037  0.91556673  1
  P  P36  1  0.62820533  0.96762556  0.41878319  1
  P  P37  1  0.33990262  0.37336430  0.41836049  1
  P  P38  1  0.03015599  0.65839957  0.41864541  1
  O  O39  1  0.22608634  0.04502065  0.30575010  1
  O  O40  1  0.82121357  0.77954251  0.30438892  1
  O  O41  1  0.95807597  0.17982669  0.30582727  1
  O  O42  1  0.20808856  0.16264432  0.80546069  1
  O  O43  1  0.96194159  0.79346346  0.80710237  1
  O  O44  1  0.84152616  0.03865469  0.80831073  1
  O  O45  1  0.80511671  0.96827703  0.68672554  1
  O  O46  1  0.16849127  0.19974216  0.69246226  1
  O  O47  1  0.03863886  0.83489395  0.69358113  1
  O  O48  1  0.78081899  0.81457443  0.19066817  1
  O  O49  1  0.03401308  0.21528216  0.19223721  1
  O  O50  1  0.18378321  0.96628213  0.19264419  1
  O  O51  1  0.86977427  0.36928114  0.64117104  1
  O  O52  1  0.50396076  0.13404385  0.64490831  1
  O  O53  1  0.63812429  0.49945591  0.64142284  1
  O  O54  1  0.86051819  0.49355354  0.14390337  1
  O  O55  1  0.62987555  0.13087829  0.14054478  1
  O  O56  1  0.50085797  0.36654799  0.13962864  1
  O  O57  1  0.46579552  0.29732438  0.02520576  1
  O  O58  1  0.82180548  0.52976734  0.02432503  1
  O  O59  1  0.69581349  0.16534346  0.02566081  1
  O  O60  1  0.46551103  0.17265690  0.52482939  1
  O  O61  1  0.70610171  0.53771545  0.52692243  1
  O  O62  1  0.83166200  0.29394985  0.52786128  1
  O  O63  1  0.55776910  0.70541195  0.97554548  1
  O  O64  1  0.15179957  0.44191391  0.97240792  1
  O  O65  1  0.29188596  0.85014888  0.97132600  1
  O  O66  1  0.55212380  0.85190181  0.47624095  1
  O  O67  1  0.29949826  0.45193336  0.47459961  1
  O  O68  1  0.15025240  0.70062136  0.47408333  1
  O  O69  1  0.10700772  0.62159111  0.36104403  1
  O  O70  1  0.51234537  0.88778734  0.36242683  1
  O  O71  1  0.37572453  0.48650346  0.36096324  1
  O  O72  1  0.11121151  0.48600789  0.85982291  1
  O  O73  1  0.37306061  0.89481720  0.85773846  1
  O  O74  1  0.51379719  0.62613418  0.86200451  1
  O  O75  1  0.01365947  0.82809939  0.41236813  1
  O  O76  1  0.81341363  0.98306815  0.41256662  1
  O  O77  1  0.17155858  0.18694824  0.41264091  1
  O  O78  1  0.02013448  0.18054566  0.90854587  1
  O  O79  1  0.16252429  0.98519308  0.90690416  1
  O  O80  1  0.81987227  0.83507096  0.90929367  1
  O  O81  1  0.96299715  0.15907794  0.58990833  1
  O  O82  1  0.17629332  0.02969830  0.59248942  1
  O  O83  1  0.83712199  0.80741330  0.59010379  1
  O  O84  1  0.96262855  0.80823141  0.08611107  1
  O  O85  1  0.83389373  0.03331164  0.08714203  1
  O  O86  1  0.19791035  0.16792303  0.08610666  1
  O  O87  1  0.69493075  0.18270106  0.74258669  1
  O  O88  1  0.47309747  0.30334967  0.74260824  1
  O  O89  1  0.82190398  0.52581634  0.74161742  1
  O  O90  1  0.68635350  0.51247050  0.24226087  1
  O  O91  1  0.82198081  0.30568374  0.24291701  1
  O  O92  1  0.48713320  0.17702651  0.24051409  1
  O  O93  1  0.64698387  0.49411824  0.92387605  1
  O  O94  1  0.84681268  0.34734531  0.92435898  1
  O  O95  1  0.50340485  0.15462042  0.92466450  1
  O  O96  1  0.64556887  0.15403730  0.42542082  1
  O  O97  1  0.51128931  0.36052263  0.42441177  1
  O  O98  1  0.84585838  0.48897791  0.42679522  1
  O  O99  1  0.37610676  0.50543500  0.07804285  1
  O  O100  1  0.14762485  0.63478343  0.08127854  1
  O  O101  1  0.50427431  0.86168314  0.07841662  1
  O  O102  1  0.36479569  0.85843383  0.58078528  1
  O  O103  1  0.50561369  0.63923999  0.58019012  1
  O  O104  1  0.13740676  0.49660746  0.58045890  1
  O  O105  1  0.31987874  0.83848077  0.25447857  1
  O  O106  1  0.51945235  0.68386981  0.25428895  1
  O  O107  1  0.16206004  0.47982271  0.25418402  1
  O  O108  1  0.30010305  0.46886819  0.75380285  1
  O  O109  1  0.16117385  0.69390396  0.75490592  1
  O  O110  1  0.51875874  0.83443522  0.75279177  1
