# generated using pymatgen
data_Na3ZrSi2GePO12
_symmetry_space_group_name_H-M   'P 1'
_cell_length_a   15.47902784
_cell_length_b   8.96585960
_cell_length_c   9.00934157
_cell_angle_alpha   89.84609208
_cell_angle_beta   125.15526160
_cell_angle_gamma   90.35238244
_symmetry_Int_Tables_number   1
_chemical_formula_structural   Na3ZrSi2GePO12
_chemical_formula_sum   'Na12 Zr4 Si8 Ge4 P4 O48'
_cell_volume   1022.25279964
_cell_formula_units_Z   4
loop_
 _symmetry_equiv_pos_site_id
 _symmetry_equiv_pos_as_xyz
  1  'x, y, z'
loop_
 _atom_site_type_symbol
 _atom_site_label
 _atom_site_symmetry_multiplicity
 _atom_site_fract_x
 _atom_site_fract_y
 _atom_site_fract_z
 _atom_site_occupancy
  Na  Na0  1  0.24908367  0.77215532  0.00134026  1
  Na  Na1  1  0.73897880  0.72864656  0.48760755  1
  Na  Na2  1  0.73589463  0.27341748  0.98700231  1
  Na  Na3  1  0.24824693  0.23035307  0.50016980  1
  Na  Na4  1  0.50156010  0.12151714  0.75181960  1
  Na  Na5  1  0.49994831  0.87047636  0.25046131  1
  Na  Na6  1  0.99969780  0.61008364  0.74568764  1
  Na  Na7  1  0.00517877  0.40458555  0.25858776  1
  Na  Na8  1  0.80632454  0.93308451  0.20945518  1
  Na  Na9  1  0.80842186  0.06392711  0.71345632  1
  Na  Na10  1  0.31862924  0.43617906  0.23870951  1
  Na  Na11  1  0.31255564  0.57079830  0.71368941  1
  Zr  Zr12  1  0.89469070  0.74475352  0.93132224  1
  Zr  Zr13  1  0.89118941  0.25506716  0.42831019  1
  Zr  Zr14  1  0.10631876  0.25054017  0.06276259  1
  Zr  Zr15  1  0.39256574  0.24304547  0.93520604  1
  Si  Si16  1  0.35494984  0.88559038  0.74628581  1
  Si  Si17  1  0.63877376  0.89809073  0.74029950  1
  Si  Si18  1  0.64157723  0.09633788  0.24181176  1
  Si  Si19  1  0.36192282  0.09962754  0.27009815  1
  Si  Si20  1  0.84526648  0.38854252  0.75170671  1
  Si  Si21  1  0.14659606  0.40680917  0.73729236  1
  Si  Si22  1  0.15348578  0.61348255  0.25662682  1
  Si  Si23  1  0.85029119  0.61417465  0.25552415  1
  Ge  Ge24  1  0.10572010  0.74806381  0.56225029  1
  Ge  Ge25  1  0.60476223  0.24325584  0.55635539  1
  Ge  Ge26  1  0.39794306  0.75730400  0.44229498  1
  Ge  Ge27  1  0.60220742  0.75551138  0.05346843  1
  P  P28  1  0.00587398  0.95398030  0.73860358  1
  P  P29  1  0.00925425  0.03363064  0.25915367  1
  P  P30  1  0.50765059  0.47362515  0.74775145  1
  P  P31  1  0.50608421  0.53616046  0.25843956  1
  O  O32  1  0.14845054  0.59138235  0.73638179  1
  O  O33  1  0.84267565  0.56974188  0.74484588  1
  O  O34  1  0.84306760  0.43223784  0.24784343  1
  O  O35  1  0.15803583  0.42915741  0.25013962  1
  O  O36  1  0.64139854  0.08382151  0.73096288  1
  O  O37  1  0.35081767  0.06742468  0.75261514  1
  O  O38  1  0.35932554  0.91632282  0.27394928  1
  O  O39  1  0.64112764  0.91109554  0.23189179  1
  O  O40  1  0.43355194  0.56587093  0.57194992  1
  O  O41  1  0.57401186  0.57370237  0.91953639  1
  O  O42  1  0.57246882  0.43186625  0.42486560  1
  O  O43  1  0.43101726  0.44436301  0.08416483  1
  O  O44  1  0.93998399  0.04720695  0.56566867  1
  O  O45  1  0.06527796  0.05451617  0.90838499  1
  O  O46  1  0.06858930  0.93013692  0.42596217  1
  O  O47  1  0.94580532  0.94592663  0.07945442  1
  O  O48  1  0.25238846  0.80822799  0.72646772  1
  O  O49  1  0.74445077  0.84326334  0.75584764  1
  O  O50  1  0.74514683  0.15366129  0.25301194  1
  O  O51  1  0.26288231  0.18038531  0.25279441  1
  O  O52  1  0.74457143  0.30396367  0.73066547  1
  O  O53  1  0.24684901  0.34315913  0.74407137  1
  O  O54  1  0.26079130  0.67459364  0.27666052  1
  O  O55  1  0.74739868  0.69439617  0.23068115  1
  O  O56  1  0.36377186  0.85069463  0.57857563  1
  O  O57  1  0.63927667  0.87064759  0.92308259  1
  O  O58  1  0.64068912  0.13106539  0.42162779  1
  O  O59  1  0.36075515  0.13581115  0.09134234  1
  O  O60  1  0.85345002  0.33393568  0.58828293  1
  O  O61  1  0.14891969  0.36610415  0.91804528  1
  O  O62  1  0.14048481  0.63963220  0.42481992  1
  O  O63  1  0.85688747  0.65880736  0.08727867  1
  O  O64  1  0.45897028  0.80966247  0.93443103  1
  O  O65  1  0.53681150  0.82155889  0.55863581  1
  O  O66  1  0.54214942  0.16771530  0.05749487  1
  O  O67  1  0.46576054  0.18468841  0.44582207  1
  O  O68  1  0.95159376  0.32719115  0.94168307  1
  O  O69  1  0.03947742  0.34486192  0.55496051  1
  O  O70  1  0.04900084  0.66976153  0.06377072  1
  O  O71  1  0.95937340  0.68035404  0.44245992  1
  O  O72  1  0.08779635  0.85578561  0.73934563  1
  O  O73  1  0.92459789  0.85428199  0.74302508  1
  O  O74  1  0.92594727  0.13105333  0.25737884  1
  O  O75  1  0.08926713  0.13914009  0.26280385  1
  O  O76  1  0.58319942  0.37048288  0.73676816  1
  O  O77  1  0.43035125  0.37261994  0.76225714  1
  O  O78  1  0.42879020  0.63743028  0.27280599  1
  O  O79  1  0.58095040  0.63747280  0.24093484  1
