# generated using pymatgen
data_Na2LaYP2SO12
_symmetry_space_group_name_H-M   'P 1'
_cell_length_a   9.39361457
_cell_length_b   9.39686291
_cell_length_c   24.50353791
_cell_angle_alpha   90.56548756
_cell_angle_beta   89.42165902
_cell_angle_gamma   119.67203164
_symmetry_Int_Tables_number   1
_chemical_formula_structural   Na2LaYP2SO12
_chemical_formula_sum   'Na12 La6 Y6 P12 S6 O72'
_cell_volume   1879.19522529
_cell_formula_units_Z   6
loop_
 _symmetry_equiv_pos_site_id
 _symmetry_equiv_pos_as_xyz
  1  'x, y, z'
loop_
 _atom_site_type_symbol
 _atom_site_label
 _atom_site_symmetry_multiplicity
 _atom_site_fract_x
 _atom_site_fract_y
 _atom_site_fract_z
 _atom_site_occupancy
  Na  Na0  1  0.99205124  0.62596365  0.25385390  1
  Na  Na1  1  0.37606142  0.01113731  0.75009288  1
  Na  Na2  1  0.66020178  0.95816455  0.58662414  1
  Na  Na3  1  0.04172061  0.33960815  0.08727727  1
  Na  Na4  1  0.32486136  0.29255586  0.91907896  1
  Na  Na5  1  0.70716967  0.67573068  0.41814137  1
  Na  Na6  1  0.01693539  0.98993406  0.50063130  1
  Na  Na7  1  0.01128811  0.98425075  0.99982921  1
  Na  Na8  1  0.68287867  0.32248463  0.83365210  1
  Na  Na9  1  0.67602194  0.31682591  0.33424487  1
  Na  Na10  1  0.34956087  0.65580731  0.16764980  1
  Na  Na11  1  0.34427654  0.65057686  0.66715677  1
  La  La12  1  0.99089085  0.00593944  0.84621165  1
  La  La13  1  0.00100701  0.99736557  0.15383281  1
  La  La14  1  0.66929401  0.33233245  0.98437233  1
  La  La15  1  0.32786514  0.67731903  0.01769501  1
  La  La16  1  0.32472795  0.67295756  0.51568488  1
  La  La17  1  0.33343983  0.66305216  0.81423268  1
  Y  Y18  1  0.99281124  0.00618174  0.34798172  1
  Y  Y19  1  0.00319883  0.00006480  0.64800743  1
  Y  Y20  1  0.66115653  0.34144630  0.68148466  1
  Y  Y21  1  0.65898681  0.34011328  0.18516160  1
  Y  Y22  1  0.66603548  0.33104237  0.48302740  1
  Y  Y23  1  0.33508400  0.66647358  0.31898492  1
  P  P24  1  0.69877126  0.69862973  0.25338447  1
  P  P25  1  -0.00002064  0.30823877  0.24965688  1
  P  P26  1  0.29924148  0.29365347  0.74781989  1
  P  P27  1  0.69746126  0.00642093  0.74372933  1
  P  P28  1  0.37469762  0.04533100  0.58489737  1
  P  P29  1  0.67154352  0.63526950  0.58152402  1
  P  P30  1  0.96157758  0.62719051  0.08732512  1
  P  P31  1  0.36416347  0.33431022  0.08337554  1
  P  P32  1  0.03527411  0.36611081  0.91801509  1
  P  P33  1  0.33156563  0.97436779  0.91330249  1
  P  P34  1  0.63273727  0.96585282  0.41688836  1
  P  P35  1  0.02531202  0.66714437  0.41303690  1
  S  S36  1  0.30170502  0.99812550  0.25323656  1
  S  S37  1  0.99587474  0.70043580  0.74650412  1
  S  S38  1  0.95435990  0.32660107  0.58456172  1
  S  S39  1  0.66804714  0.03898699  0.08724384  1
  S  S40  1  0.63397477  0.66583360  0.91710460  1
  S  S41  1  0.33464024  0.36628126  0.41549691  1
  O  O42  1  0.21658139  0.02173609  0.30088336  1
  O  O43  1  0.81142370  0.78400898  0.30389718  1
  O  O44  1  0.98386359  0.19464795  0.29797383  1
  O  O45  1  0.22887206  0.19991414  0.80280702  1
  O  O46  1  0.97484656  0.77074894  0.79830386  1
  O  O47  1  0.79305043  0.01876156  0.79644977  1
  O  O48  1  0.78666825  0.98786207  0.69252006  1
  O  O49  1  0.18609949  0.19198971  0.70013998  1
  O  O50  1  0.01246331  0.80711445  0.69954415  1
  O  O51  1  0.77922517  0.80164897  0.20170737  1
  O  O52  1  0.02526141  0.23746074  0.19501317  1
  O  O53  1  0.20344195  0.96905235  0.20282005  1
  O  O54  1  0.87305822  0.34512330  0.63391749  1
  O  O55  1  0.47659795  0.12567957  0.63728573  1
  O  O56  1  0.65871395  0.53033314  0.63158146  1
  O  O57  1  0.87114064  0.52371398  0.13892516  1
  O  O58  1  0.65548347  0.12965086  0.13535737  1
  O  O59  1  0.47110826  0.33928407  0.13237979  1
  O  O60  1  0.43976809  0.31959127  0.02820918  1
  O  O61  1  0.86548295  0.54097417  0.03506009  1
  O  O62  1  0.68198023  0.12803630  0.03581686  1
  O  O63  1  0.46574239  0.14953772  0.53394969  1
  O  O64  1  0.68701643  0.55228213  0.52777873  1
  O  O65  1  0.85641441  0.30923635  0.53469195  1
  O  O66  1  0.55181801  0.68065841  0.96711532  1
  O  O67  1  0.13263080  0.44756115  0.97147869  1
  O  O68  1  0.32453730  0.87366892  0.96409062  1
  O  O69  1  0.56219102  0.86321140  0.47021811  1
  O  O70  1  0.30712711  0.43718378  0.46593152  1
  O  O71  1  0.12940174  0.68736430  0.46433805  1
  O  O72  1  0.10996231  0.64499285  0.36107080  1
  O  O73  1  0.51952816  0.87088116  0.36818811  1
  O  O74  1  0.35886803  0.47429838  0.36787883  1
  O  O75  1  0.13037617  0.47011101  0.86776334  1
  O  O76  1  0.34564891  0.89114143  0.85976290  1
  O  O77  1  0.53727004  0.65308594  0.86767246  1
  O  O78  1  0.00349163  0.82144790  0.40831189  1
  O  O79  1  0.80319520  0.97648276  0.40874827  1
  O  O80  1  0.19348730  0.19962375  0.40716518  1
  O  O81  1  0.02988192  0.19739260  0.91516876  1
  O  O82  1  0.17591628  0.99354514  0.91378546  1
  O  O83  1  0.80124525  0.80850444  0.91430147  1
  O  O84  1  0.96167996  0.17034311  0.58789240  1
  O  O85  1  0.20000732  0.02294134  0.58881440  1
  O  O86  1  0.82404364  0.81223360  0.58652248  1
  O  O87  1  0.98635677  0.80181584  0.08919540  1
  O  O88  1  0.82317403  0.03150716  0.08927106  1
  O  O89  1  0.18654496  0.18442939  0.08697425  1
  O  O90  1  0.67726225  0.16128370  0.74113746  1
  O  O91  1  0.46945417  0.30353330  0.74220318  1
  O  O92  1  0.85469409  0.53325625  0.74020360  1
  O  O93  1  0.69265526  0.52940397  0.24763485  1
  O  O94  1  0.84313205  0.32698663  0.24678482  1
  O  O95  1  0.46747341  0.14345077  0.24700026  1
  O  O96  1  0.63929647  0.50942558  0.91808093  1
  O  O97  1  0.86179505  0.34430749  0.91834273  1
  O  O98  1  0.48262592  0.15153502  0.91582499  1
  O  O99  1  0.65214589  0.13901427  0.42235361  1
  O  O100  1  0.49106996  0.35996554  0.42032580  1
  O  O101  1  0.84883454  0.51481782  0.41960163  1
  O  O102  1  0.34623889  0.49112825  0.08454522  1
  O  O103  1  0.13001683  0.63045321  0.08602973  1
  O  O104  1  0.52377553  0.87250618  0.08588036  1
  O  O105  1  0.36736321  0.87518106  0.58102937  1
  O  O106  1  0.51700992  0.65811305  0.58039275  1
  O  O107  1  0.12151326  0.46850825  0.58070750  1
  O  O108  1  0.31285018  0.84569158  0.25965634  1
  O  O109  1  0.52498688  0.67505764  0.26052650  1
  O  O110  1  0.14948250  0.48494489  0.25772594  1
  O  O111  1  0.31849152  0.46657147  0.74876073  1
  O  O112  1  0.15287121  0.69551655  0.74793253  1
  O  O113  1  0.51972120  0.85452079  0.74663319  1
