# generated using pymatgen
data_La2Ge2O7
_symmetry_space_group_name_H-M   'P 1'
_cell_length_a   7.03316911
_cell_length_b   7.07560851
_cell_length_c   12.79144042
_cell_angle_alpha   93.97541632
_cell_angle_beta   90.14510685
_cell_angle_gamma   90.94262550
_symmetry_Int_Tables_number   1
_chemical_formula_structural   La2Ge2O7
_chemical_formula_sum   'La8 Ge8 O28'
_cell_volume   634.93075778
_cell_formula_units_Z   4
loop_
 _symmetry_equiv_pos_site_id
 _symmetry_equiv_pos_as_xyz
  1  'x, y, z'
loop_
 _atom_site_type_symbol
 _atom_site_label
 _atom_site_symmetry_multiplicity
 _atom_site_fract_x
 _atom_site_fract_y
 _atom_site_fract_z
 _atom_site_occupancy
  La  La0  1  0.33357947  0.82815474  0.10699808  1
  La  La1  1  0.66642053  0.17184526  0.89300192  1
  La  La2  1  0.63302235  0.76213852  0.37146904  1
  La  La3  1  0.36697765  0.23786148  0.62853096  1
  La  La4  1  0.11914403  0.08580189  0.36140285  1
  La  La5  1  0.88085597  0.91419811  0.63859715  1
  La  La6  1  0.05005802  0.33171131  0.11747341  1
  La  La7  1  0.94994198  0.66828869  0.88252659  1
  Ge  Ge8  1  0.85229314  0.37888698  0.61462571  1
  Ge  Ge9  1  0.14770686  0.62111302  0.38537429  1
  Ge  Ge10  1  0.62485120  0.26562779  0.40235828  1
  Ge  Ge11  1  0.37514880  0.73437221  0.59764172  1
  Ge  Ge12  1  0.51065178  0.32693449  0.17231191  1
  Ge  Ge13  1  0.48934822  0.67306551  0.82768809  1
  Ge  Ge14  1  0.84410755  0.85152417  0.11686473  1
  Ge  Ge15  1  0.15589245  0.14847583  0.88313527  1
  O  O16  1  0.00371446  0.01203306  0.18361697  1
  O  O17  1  0.99628554  0.98796694  0.81638303  1
  O  O18  1  0.00596888  0.66678238  0.07968119  1
  O  O19  1  0.99403112  0.33321762  0.92031881  1
  O  O20  1  0.65179986  0.78461457  0.19155804  1
  O  O21  1  0.34820014  0.21538543  0.80844196  1
  O  O22  1  0.75210243  0.90246816  0.99505643  1
  O  O23  1  0.24789757  0.09753184  0.00494357  1
  O  O24  1  0.92716046  0.58622191  0.68391325  1
  O  O25  1  0.07283954  0.41377809  0.31608675  1
  O  O26  1  0.03453796  0.22882844  0.56693274  1
  O  O27  1  0.96546204  0.77117156  0.43306726  1
  O  O28  1  0.70819280  0.22205141  0.68382641  1
  O  O29  1  0.29180720  0.77794859  0.31617359  1
  O  O30  1  0.70096567  0.43400434  0.50624811  1
  O  O31  1  0.29903433  0.56599566  0.49375189  1
  O  O32  1  0.64553464  0.50926474  0.87389589  1
  O  O33  1  0.35446536  0.49073526  0.12610411  1
  O  O34  1  0.62727953  0.86403170  0.78761090  1
  O  O35  1  0.37272047  0.13596830  0.21238910  1
  O  O36  1  0.29841256  0.71945782  0.91062070  1
  O  O37  1  0.70158744  0.28054218  0.08937930  1
  O  O38  1  0.39468575  0.57766898  0.69967894  1
  O  O39  1  0.60531425  0.42233102  0.30032106  1
  O  O40  1  0.58526493  0.83609022  0.55479775  1
  O  O41  1  0.41473507  0.16390978  0.44520225  1
  O  O42  1  0.22221466  0.91910387  0.62072130  1
  O  O43  1  0.77778534  0.08089613  0.37927870  1
