# generated using pymatgen
data_Na3LaTi3Si3(SO8)3
_symmetry_space_group_name_H-M   'P 1'
_cell_length_a   8.97859425
_cell_length_b   9.06381364
_cell_length_c   22.80091394
_cell_angle_alpha   89.53862372
_cell_angle_beta   90.80489976
_cell_angle_gamma   120.20563484
_symmetry_Int_Tables_number   1
_chemical_formula_structural   Na3LaTi3Si3(SO8)3
_chemical_formula_sum   'Na9 La3 Ti9 Si9 S9 O72'
_cell_volume   1603.44999526
_cell_formula_units_Z   3
loop_
 _symmetry_equiv_pos_site_id
 _symmetry_equiv_pos_as_xyz
  1  'x, y, z'
loop_
 _atom_site_type_symbol
 _atom_site_label
 _atom_site_symmetry_multiplicity
 _atom_site_fract_x
 _atom_site_fract_y
 _atom_site_fract_z
 _atom_site_occupancy
  Na  Na0  1  0.35000200  0.34927150  0.24004493  1
  Na  Na1  1  0.63031589  0.62234040  0.75698779  1
  Na  Na2  1  0.97071594  0.28982650  0.41756025  1
  Na  Na3  1  0.99247029  0.00042049  0.50547874  1
  Na  Na4  1  0.99339237  0.99112760  0.99929601  1
  Na  Na5  1  0.66300007  0.32933359  0.83685213  1
  Na  Na6  1  0.67829373  0.32907185  0.33036021  1
  Na  Na7  1  0.30731347  0.66261449  0.16377349  1
  Na  Na8  1  0.29394736  0.65024629  0.66509404  1
  La  La9  1  0.99608357  0.99558707  0.35826678  1
  La  La10  1  0.67876880  0.33486845  0.68555643  1
  La  La11  1  0.69486763  0.34924212  0.17061108  1
  Ti  Ti12  1  0.00711999  0.98611632  0.85557750  1
  Ti  Ti13  1  0.01930811  0.02252813  0.65023741  1
  Ti  Ti14  1  0.01845422  0.02223307  0.14048452  1
  Ti  Ti15  1  0.66301822  0.37002504  0.98387919  1
  Ti  Ti16  1  0.65623043  0.30498240  0.47923591  1
  Ti  Ti17  1  0.33818233  0.66389515  0.01647872  1
  Ti  Ti18  1  0.33978158  0.65461486  0.51887523  1
  Ti  Ti19  1  0.34382314  0.65579382  0.31604783  1
  Ti  Ti20  1  0.31636587  0.64520729  0.81247113  1
  Si  Si21  1  0.00629521  0.30398624  0.25222131  1
  Si  Si22  1  0.27806486  0.28747001  0.75739876  1
  Si  Si23  1  0.02020015  0.73159407  0.75127624  1
  Si  Si24  1  0.97148838  0.33118262  0.58116115  1
  Si  Si25  1  0.98611802  0.65485680  0.07950063  1
  Si  Si26  1  0.36642763  0.34416897  0.08283771  1
  Si  Si27  1  0.62225231  0.67571549  0.91432910  1
  Si  Si28  1  0.60341663  0.94954407  0.42028357  1
  Si  Si29  1  0.35894704  0.38844015  0.42028946  1
  S  S30  1  0.29128273  0.98427630  0.24601168  1
  S  S31  1  0.68976528  0.70369389  0.24795228  1
  S  S32  1  0.71447184  0.98491750  0.75412481  1
  S  S33  1  0.35730465  0.02456405  0.57947104  1
  S  S34  1  0.67157365  0.64014270  0.58159047  1
  S  S35  1  0.66709452  0.02660108  0.07748570  1
  S  S36  1  0.03936975  0.37715107  0.91661686  1
  S  S37  1  0.34182457  0.96019660  0.91483667  1
  S  S38  1  0.04440801  0.64379428  0.42037396  1
  O  O39  1  0.21586840  0.00605573  0.30046476  1
  O  O40  1  0.78395829  0.77048530  0.30365621  1
  O  O41  1  0.99691298  0.21274771  0.31411500  1
  O  O42  1  0.16803488  0.17092199  0.81194573  1
  O  O43  1  0.99782083  0.82487246  0.80977163  1
  O  O44  1  0.81209337  0.99446762  0.80721919  1
  O  O45  1  0.80072976  0.97657331  0.69968015  1
  O  O46  1  0.17102964  0.19985334  0.69488964  1
  O  O47  1  0.03209374  0.84824687  0.69329368  1
  O  O48  1  0.78235236  0.80318389  0.19658544  1
  O  O49  1  0.02588533  0.18735930  0.19621765  1
  O  O50  1  0.18155925  0.97465430  0.19385028  1
  O  O51  1  0.91094311  0.37565877  0.64086798  1
  O  O52  1  0.45646270  0.08977864  0.63450526  1
  O  O53  1  0.63553808  0.55092740  0.63909514  1
  O  O54  1  0.94979599  0.54730663  0.13895388  1
  O  O55  1  0.62670180  0.07484870  0.13423536  1
  O  O56  1  0.45710797  0.37976791  0.14567880  1
  O  O57  1  0.47915445  0.31507901  0.03120194  1
  O  O58  1  0.83341636  0.53533219  0.02856278  1
  O  O59  1  0.69240409  0.14605026  0.03012812  1
  O  O60  1  0.45391390  0.14310015  0.52954970  1
  O  O61  1  0.68326456  0.53697968  0.53441311  1
  O  O62  1  0.83141382  0.30169393  0.52588006  1
  O  O63  1  0.51733495  0.69284045  0.96820262  1
  O  O64  1  0.14961412  0.46660439  0.96733568  1
  O  O65  1  0.31635507  0.85680758  0.96750485  1
  O  O66  1  0.49318228  0.84315849  0.47591950  1
  O  O67  1  0.34057188  0.49820298  0.47257518  1
  O  O68  1  0.14021747  0.65161285  0.47348650  1
  O  O69  1  0.12916778  0.63291046  0.36584848  1
  O  O70  1  0.49581280  0.85330868  0.35921204  1
  O  O71  1  0.36921818  0.49681276  0.35849969  1
  O  O72  1  0.12183463  0.48384006  0.86211388  1
  O  O73  1  0.35447653  0.87362613  0.86206516  1
  O  O74  1  0.49946283  0.64339225  0.85508604  1
  O  O75  1  0.02087043  0.79333667  0.42089466  1
  O  O76  1  0.79868642  0.98701000  0.42511320  1
  O  O77  1  0.18458771  0.20570715  0.42334083  1
  O  O78  1  0.02417141  0.20740097  0.91232309  1
  O  O79  1  0.18274608  0.98069465  0.91088145  1
  O  O80  1  0.81740933  0.84070562  0.90878616  1
  O  O81  1  0.98082759  0.15294371  0.59078642  1
  O  O82  1  0.19026240  0.02187753  0.58338905  1
  O  O83  1  0.83032941  0.80917071  0.58496163  1
  O  O84  1  0.98320879  0.83324020  0.09095031  1
  O  O85  1  0.82765463  0.01442281  0.08456821  1
  O  O86  1  0.17582954  0.16612924  0.08713907  1
  O  O87  1  0.68924531  0.13368614  0.75425355  1
  O  O88  1  0.47231839  0.32326025  0.75633556  1
  O  O89  1  0.84305797  0.54902296  0.75205723  1
  O  O90  1  0.64819730  0.52190621  0.24592796  1
  O  O91  1  0.84273400  0.33077375  0.24822946  1
  O  O92  1  0.46426315  0.14206297  0.24167563  1
  O  O93  1  0.63817588  0.49904791  0.92538814  1
  O  O94  1  0.86694741  0.36086205  0.92122437  1
  O  O95  1  0.49549010  0.13371299  0.92025219  1
  O  O96  1  0.62451715  0.14514073  0.42400974  1
  O  O97  1  0.53410466  0.37890616  0.42859933  1
  O  O98  1  0.87070229  0.48300439  0.42080064  1
  O  O99  1  0.33348043  0.49984528  0.06562246  1
  O  O100  1  0.17051002  0.68543887  0.05704931  1
  O  O101  1  0.52059667  0.85054215  0.06633933  1
  O  O102  1  0.32582020  0.85026287  0.57063747  1
  O  O103  1  0.52105035  0.66907347  0.57286466  1
  O  O104  1  0.16434680  0.49448580  0.56887687  1
  O  O105  1  0.30144363  0.82802731  0.24885061  1
  O  O106  1  0.52027244  0.70223512  0.25144644  1
  O  O107  1  0.19258685  0.49163108  0.25577199  1
  O  O108  1  0.29020903  0.47829443  0.76036329  1
  O  O109  1  0.19226406  0.71318423  0.75980155  1
  O  O110  1  0.54165075  0.82361607  0.75361330  1
