# generated using pymatgen
data_Na9Mg11Nb(SO4)18
_symmetry_space_group_name_H-M   'P 1'
_cell_length_a   8.75363891
_cell_length_b   8.75839169
_cell_length_c   22.58569004
_cell_angle_alpha   90.09941873
_cell_angle_beta   89.91271800
_cell_angle_gamma   120.28609006
_symmetry_Int_Tables_number   1
_chemical_formula_structural   Na9Mg11Nb(SO4)18
_chemical_formula_sum   'Na9 Mg11 Nb1 S18 O72'
_cell_volume   1495.26090982
_cell_formula_units_Z   1
loop_
 _symmetry_equiv_pos_site_id
 _symmetry_equiv_pos_as_xyz
  1  'x, y, z'
loop_
 _atom_site_type_symbol
 _atom_site_label
 _atom_site_symmetry_multiplicity
 _atom_site_fract_x
 _atom_site_fract_y
 _atom_site_fract_z
 _atom_site_occupancy
  Na  Na0  1  0.36369053  0.36420563  0.25226659  1
  Na  Na1  1  0.30297314  0.97015909  0.08641011  1
  Na  Na2  1  0.96967935  0.30348368  0.41827207  1
  Na  Na3  1  0.00013244  0.99079664  0.50132097  1
  Na  Na4  1  0.99138501  0.00016130  0.00200236  1
  Na  Na5  1  0.66694097  0.33361860  0.83213605  1
  Na  Na6  1  0.66754371  0.33407680  0.33554789  1
  Na  Na7  1  0.33398017  0.66721520  0.16919925  1
  Na  Na8  1  0.33391034  0.66724393  0.65661483  1
  Mg  Mg9  1  0.99706464  0.98990748  0.35208972  1
  Mg  Mg10  1  0.99954899  0.99970241  0.85095876  1
  Mg  Mg11  1  0.00008539  0.99986548  0.64204069  1
  Mg  Mg12  1  0.99064663  0.99774819  0.15151124  1
  Mg  Mg13  1  0.66636330  0.33383863  0.67687523  1
  Mg  Mg14  1  0.67610293  0.33544771  0.18534865  1
  Mg  Mg15  1  0.66956696  0.33537181  0.98445736  1
  Mg  Mg16  1  0.66038413  0.33418205  0.48449176  1
  Mg  Mg17  1  0.33406238  0.66050323  0.02033547  1
  Mg  Mg18  1  0.33611793  0.67032437  0.51844416  1
  Mg  Mg19  1  0.33507918  0.67533930  0.31832259  1
  Nb  Nb20  1  0.33300445  0.66584826  0.81170275  1
  S  S21  1  0.29236261  0.99797260  0.24882318  1
  S  S22  1  0.70651162  0.70703346  0.24984217  1
  S  S23  1  0.99900076  0.29270758  0.25071509  1
  S  S24  1  0.29172515  0.28394787  0.75049762  1
  S  S25  1  0.99272002  0.70823682  0.75058812  1
  S  S26  1  0.71615246  0.00797765  0.75053613  1
  S  S27  1  0.96109062  0.33421419  0.58299176  1
  S  S28  1  0.37366654  0.03944360  0.58370793  1
  S  S29  1  0.66540301  0.62600497  0.58365258  1
  S  S30  1  0.95885289  0.62627143  0.08281879  1
  S  S31  1  0.66904112  0.04236262  0.08263701  1
  S  S32  1  0.37425389  0.33420698  0.08374247  1
  S  S33  1  0.62689937  0.66766819  0.91794676  1
  S  S34  1  0.04041991  0.37240515  0.91802828  1
  S  S35  1  0.33219541  0.95987644  0.91830716  1
  S  S36  1  0.62585501  0.95979417  0.41680122  1
  S  S37  1  0.33536839  0.37435680  0.41573067  1
  S  S38  1  0.04146973  0.66769555  0.41702223  1
  O  O39  1  0.20933571  0.03066726  0.30069177  1
  O  O40  1  0.81472945  0.78795251  0.30270553  1
  O  O41  1  0.97358374  0.18730625  0.30488483  1
  O  O42  1  0.21062913  0.18547991  0.80496278  1
  O  O43  1  0.97489374  0.78908273  0.80502311  1
  O  O44  1  0.81472318  0.02573440  0.80493546  1
  O  O45  1  0.78414301  0.96626582  0.69804998  1
  O  O46  1  0.18168215  0.21541791  0.69807005  1
  O  O47  1  0.03452231  0.81812632  0.69818573  1
  O  O48  1  0.78617935  0.81308499  0.19603584  1
  O  O49  1  0.03124878  0.21113910  0.19778021  1
  O  O50  1  0.18861710  0.97300427  0.19346386  1
  O  O51  1  0.87862928  0.35979276  0.63676144  1
  O  O52  1  0.47962069  0.11929821  0.63817896  1
  O  O53  1  0.63921071  0.52032263  0.63810726  1
  O  O54  1  0.87840204  0.51823473  0.13574709  1
  O  O55  1  0.63491570  0.12173739  0.13530228  1
  O  O56  1  0.47968448  0.35988966  0.13791946  1
  O  O57  1  0.45608134  0.30234412  0.03063699  1
  O  O58  1  0.85226199  0.54622194  0.02890724  1
  O  O59  1  0.69458471  0.14892979  0.02862471  1
  O  O60  1  0.45540854  0.14833627  0.53083880  1
  O  O61  1  0.69323509  0.54472045  0.53078984  1
  O  O62  1  0.85486916  0.30696473  0.52873839  1
  O  O63  1  0.54140289  0.69382026  0.96925085  1
  O  O64  1  0.15231586  0.45865086  0.96922508  1
  O  O65  1  0.30644171  0.85089348  0.97075857  1
  O  O66  1  0.54484302  0.85133625  0.46969734  1
  O  O67  1  0.30274020  0.45727601  0.46769913  1
  O  O68  1  0.14967432  0.69359191  0.47004381  1
  O  O69  1  0.11999667  0.63447769  0.36339466  1
  O  O70  1  0.51989014  0.88039111  0.36293799  1
  O  O71  1  0.36052711  0.47808013  0.36041493  1
  O  O72  1  0.13282961  0.48887062  0.86265232  1
  O  O73  1  0.35632160  0.86647491  0.86355487  1
  O  O74  1  0.51045168  0.64334785  0.86264431  1
  O  O75  1  0.02213184  0.82506224  0.40980011  1
  O  O76  1  0.80804810  0.98426145  0.41028519  1
  O  O77  1  0.17028196  0.19638038  0.40938505  1
  O  O78  1  0.02478136  0.19906925  0.90856452  1
  O  O79  1  0.17389394  0.97444526  0.90876391  1
  O  O80  1  0.80095425  0.82621326  0.90857654  1
  O  O81  1  0.97715535  0.17393087  0.59022118  1
  O  O82  1  0.19616599  0.02199052  0.59047874  1
  O  O83  1  0.82610581  0.80397959  0.59038966  1
  O  O84  1  0.98388160  0.80821797  0.08860565  1
  O  O85  1  0.82566840  0.02182419  0.08923114  1
  O  O86  1  0.19579695  0.17004127  0.08918090  1
  O  O87  1  0.68371214  0.15580367  0.74497410  1
  O  O88  1  0.47261074  0.31710512  0.74495462  1
  O  O89  1  0.84414723  0.52694812  0.74492951  1
  O  O90  1  0.68235178  0.52508755  0.24336849  1
  O  O91  1  0.84133411  0.31130980  0.24321359  1
  O  O92  1  0.47021351  0.16313131  0.24262715  1
  O  O93  1  0.63794690  0.50556848  0.92066537  1
  O  O94  1  0.86690909  0.36092334  0.92061084  1
  O  O95  1  0.49485172  0.13430058  0.92086212  1
  O  O96  1  0.65074347  0.14184449  0.42267272  1
  O  O97  1  0.49237361  0.35477543  0.42261689  1
  O  O98  1  0.86290112  0.50349285  0.42298006  1
  O  O99  1  0.35523707  0.49148815  0.07636184  1
  O  O100  1  0.14098592  0.65060025  0.07634732  1
  O  O101  1  0.50388713  0.86428252  0.07596729  1
  O  O102  1  0.35444493  0.86147264  0.57783159  1
  O  O103  1  0.50616602  0.64427169  0.57768118  1
  O  O104  1  0.13949500  0.49394385  0.57743537  1
  O  O105  1  0.31169137  0.84094249  0.25570879  1
  O  O106  1  0.52458036  0.68242285  0.25562460  1
  O  O107  1  0.16331361  0.47101161  0.25606972  1
  O  O108  1  0.31145076  0.47329619  0.76005150  1
  O  O109  1  0.16227640  0.68888997  0.76033307  1
  O  O110  1  0.52633325  0.83788969  0.76027656  1
