# generated using pymatgen
data_Na6In4Si3(SO8)3
_symmetry_space_group_name_H-M   'P 1'
_cell_length_a   9.25399882
_cell_length_b   9.20133975
_cell_length_c   22.88337336
_cell_angle_alpha   90.31078196
_cell_angle_beta   89.85681390
_cell_angle_gamma   120.02939551
_symmetry_Int_Tables_number   1
_chemical_formula_structural   Na6In4Si3(SO8)3
_chemical_formula_sum   'Na18 In12 Si9 S9 O72'
_cell_volume   1686.92612678
_cell_formula_units_Z   3
loop_
 _symmetry_equiv_pos_site_id
 _symmetry_equiv_pos_as_xyz
  1  'x, y, z'
loop_
 _atom_site_type_symbol
 _atom_site_label
 _atom_site_symmetry_multiplicity
 _atom_site_fract_x
 _atom_site_fract_y
 _atom_site_fract_z
 _atom_site_occupancy
  Na  Na0  1  0.63145602  0.00917888  0.25798733  1
  Na  Na1  1  0.34987318  0.35161772  0.25393009  1
  Na  Na2  1  0.64652326  0.64677288  0.73798362  1
  Na  Na3  1  0.98646387  0.36781710  0.74560122  1
  Na  Na4  1  0.01847244  0.68590626  0.59095956  1
  Na  Na5  1  0.67879696  0.96580646  0.58285601  1
  Na  Na6  1  0.31168134  0.96855528  0.09503560  1
  Na  Na7  1  0.02438149  0.32267345  0.08274104  1
  Na  Na8  1  0.97020750  0.65830638  0.90140918  1
  Na  Na9  1  0.71495720  0.04601194  0.90987863  1
  Na  Na10  1  0.95336359  0.28758738  0.42120093  1
  Na  Na11  1  0.34433306  0.03156004  0.41338165  1
  Na  Na12  1  0.97384374  0.99271540  0.50612681  1
  Na  Na13  1  0.99173027  0.01405483  0.99792296  1
  Na  Na14  1  0.66860405  0.32646815  0.82267999  1
  Na  Na15  1  0.67487494  0.32990012  0.33412380  1
  Na  Na16  1  0.32825910  0.67436035  0.17354562  1
  Na  Na17  1  0.33300029  0.66562837  0.66457584  1
  In  In18  1  0.98888646  0.99886650  0.34829412  1
  In  In19  1  0.99790223  0.01402122  0.84303651  1
  In  In20  1  0.98566013  0.99285703  0.65019134  1
  In  In21  1  0.99411057  0.00585593  0.15496808  1
  In  In22  1  0.68239707  0.34233722  0.68196389  1
  In  In23  1  0.66619999  0.31624685  0.18626262  1
  In  In24  1  0.67914862  0.32891308  0.98393870  1
  In  In25  1  0.67441496  0.32840148  0.48938181  1
  In  In26  1  0.33806776  0.66193907  0.01455268  1
  In  In27  1  0.35081759  0.66009346  0.52078993  1
  In  In28  1  0.32660644  0.68047879  0.31523935  1
  In  In29  1  0.32038076  0.67080117  0.81166801  1
  Si  Si30  1  0.28990467  0.99954047  0.24835821  1
  Si  Si31  1  0.00535674  0.30748874  0.25009742  1
  Si  Si32  1  0.99980345  0.70845666  0.75108419  1
  Si  Si33  1  0.69223062  0.00018281  0.75146252  1
  Si  Si34  1  0.97566117  0.33405721  0.58203821  1
  Si  Si35  1  0.66646167  0.62509826  0.58498610  1
  Si  Si36  1  0.66446874  0.02359368  0.08198800  1
  Si  Si37  1  0.04190433  0.36946568  0.91849783  1
  Si  Si38  1  0.63079045  0.96441039  0.41696021  1
  S  S39  1  0.70097871  0.69756335  0.24878564  1
  S  S40  1  0.29955430  0.29502644  0.75040410  1
  S  S41  1  0.36662969  0.03756607  0.58213993  1
  S  S42  1  0.96059755  0.63293178  0.08272998  1
  S  S43  1  0.37778491  0.33509331  0.08289194  1
  S  S44  1  0.63207541  0.66224486  0.91734354  1
  S  S45  1  0.33258163  0.96728948  0.91959530  1
  S  S46  1  0.33471068  0.36778929  0.41410708  1
  S  S47  1  0.03534654  0.66737166  0.41758465  1
  O  O48  1  0.20119509  0.02199065  0.30722516  1
  O  O49  1  0.80267280  0.77024170  0.30176954  1
  O  O50  1  0.96145314  0.18187213  0.30590791  1
  O  O51  1  0.22827924  0.20012386  0.80568380  1
  O  O52  1  0.98271796  0.79498240  0.81315633  1
  O  O53  1  0.80633016  0.04560747  0.81209111  1
  O  O54  1  0.77585794  0.96345848  0.69478537  1
  O  O55  1  0.19046836  0.21317407  0.69977785  1
  O  O56  1  0.02787215  0.82123141  0.69352604  1
  O  O57  1  0.77608606  0.80337227  0.19637536  1
  O  O58  1  0.04119773  0.23482947  0.18861829  1
  O  O59  1  0.18422151  0.97357658  0.18737296  1
  O  O60  1  0.89570145  0.37185068  0.64031877  1
  O  O61  1  0.47909921  0.12389174  0.63193111  1
  O  O62  1  0.63693671  0.51898783  0.64508114  1
  O  O63  1  0.87159607  0.52475100  0.13316218  1
  O  O64  1  0.62153620  0.10557593  0.13873363  1
  O  O65  1  0.47371551  0.35673769  0.13717151  1
  O  O66  1  0.46577920  0.32117703  0.03069380  1
  O  O67  1  0.86600411  0.56141358  0.02733077  1
  O  O68  1  0.70363173  0.14180736  0.02342940  1
  O  O69  1  0.43667736  0.12867394  0.52577993  1
  O  O70  1  0.68992728  0.53343702  0.52721698  1
  O  O71  1  0.85861552  0.28755332  0.52246319  1
  O  O72  1  0.55579093  0.69402279  0.97003262  1
  O  O73  1  0.14004138  0.44897805  0.98127102  1
  O  O74  1  0.30832787  0.86713813  0.97416121  1
  O  O75  1  0.53781310  0.85731358  0.47497281  1
  O  O76  1  0.30400251  0.44833938  0.46491237  1
  O  O77  1  0.13785917  0.69176000  0.46999406  1
  O  O78  1  0.11081406  0.63435176  0.36480728  1
  O  O79  1  0.51976381  0.88477578  0.35664563  1
  O  O80  1  0.35344025  0.46365869  0.35956183  1
  O  O81  1  0.13225103  0.49516044  0.86378320  1
  O  O82  1  0.36771620  0.88832794  0.86926139  1
  O  O83  1  0.53473902  0.64139075  0.86442684  1
  O  O84  1  0.02885108  0.82537892  0.41080560  1
  O  O85  1  0.82193839  0.99194503  0.41334165  1
  O  O86  1  0.18155217  0.19562123  0.41176653  1
  O  O87  1  0.01114942  0.17664466  0.91426995  1
  O  O88  1  0.17862068  0.97625637  0.91334279  1
  O  O89  1  0.80391913  0.81318422  0.91498815  1
  O  O90  1  0.99052742  0.16516438  0.58866843  1
  O  O91  1  0.19931661  0.01662597  0.58805065  1
  O  O92  1  0.84234173  0.80873921  0.58443891  1
  O  O93  1  0.98974804  0.80589213  0.08728260  1
  O  O94  1  0.83968650  0.01756553  0.08840310  1
  O  O95  1  0.21136263  0.17651388  0.08360100  1
  O  O96  1  0.67533111  0.16794992  0.74438900  1
  O  O97  1  0.46786938  0.31787144  0.74534190  1
  O  O98  1  0.82354976  0.52532737  0.75121430  1
  O  O99  1  0.67636199  0.52653036  0.24121386  1
  O  O100  1  0.83610317  0.32297651  0.24644158  1
  O  O101  1  0.47224441  0.17976765  0.24723462  1
  O  O102  1  0.64925070  0.51003924  0.92467980  1
  O  O103  1  0.85382821  0.35794921  0.91940777  1
  O  O104  1  0.48365112  0.13806315  0.92439905  1
  O  O105  1  0.64478385  0.15460197  0.41943977  1
  O  O106  1  0.48240966  0.34674279  0.41973215  1
  O  O107  1  0.86619571  0.51671686  0.42055217  1
  O  O108  1  0.34853392  0.48012530  0.07994185  1
  O  O109  1  0.12747716  0.64134966  0.08045923  1
  O  O110  1  0.48633216  0.84211939  0.07579870  1
  O  O111  1  0.35077581  0.86722861  0.57916614  1
  O  O112  1  0.51333266  0.66752574  0.58413067  1
  O  O113  1  0.14897065  0.51594731  0.57433267  1
  O  O114  1  0.33345291  0.84700393  0.24948890  1
  O  O115  1  0.53311370  0.68207617  0.25448522  1
  O  O116  1  0.18440799  0.48404834  0.25726514  1
  O  O117  1  0.31360579  0.46476963  0.75495507  1
  O  O118  1  0.15221663  0.66484426  0.75102036  1
  O  O119  1  0.51949978  0.81775587  0.75923656  1
