# generated using pymatgen
data_Rb2AgCl3
_symmetry_space_group_name_H-M   'P 1'
_cell_length_a   4.48884574
_cell_length_b   9.21979032
_cell_length_c   17.87957182
_cell_angle_alpha   90.00000000
_cell_angle_beta   90.00000000
_cell_angle_gamma   90.00000000
_symmetry_Int_Tables_number   1
_chemical_formula_structural   Rb2AgCl3
_chemical_formula_sum   'Rb8 Ag4 Cl12'
_cell_volume   739.96783030
_cell_formula_units_Z   4
loop_
 _symmetry_equiv_pos_site_id
 _symmetry_equiv_pos_as_xyz
  1  'x, y, z'
loop_
 _atom_site_type_symbol
 _atom_site_label
 _atom_site_symmetry_multiplicity
 _atom_site_fract_x
 _atom_site_fract_y
 _atom_site_fract_z
 _atom_site_occupancy
  Rb  Rb0  1  0.75000000  0.57930079  0.21351218  1
  Rb  Rb1  1  0.75000000  0.24096279  0.54331661  1
  Rb  Rb2  1  0.25000000  0.25903721  0.04331661  1
  Rb  Rb3  1  0.75000000  0.74096279  0.95668339  1
  Rb  Rb4  1  0.75000000  0.07930079  0.28648782  1
  Rb  Rb5  1  0.25000000  0.92069921  0.71351218  1
  Rb  Rb6  1  0.25000000  0.42069921  0.78648782  1
  Rb  Rb7  1  0.25000000  0.75903721  0.45668339  1
  Ag  Ag8  1  0.25000000  0.37754825  0.36851631  1
  Ag  Ag9  1  0.75000000  0.62245175  0.63148369  1
  Ag  Ag10  1  0.25000000  0.87754825  0.13148369  1
  Ag  Ag11  1  0.75000000  0.12245175  0.86851631  1
  Cl  Cl12  1  0.75000000  0.50587972  0.40191022  1
  Cl  Cl13  1  0.25000000  0.49412028  0.59808978  1
  Cl  Cl14  1  0.75000000  0.00587972  0.09808978  1
  Cl  Cl15  1  0.25000000  0.99412028  0.90191022  1
  Cl  Cl16  1  0.25000000  0.31663297  0.22649332  1
  Cl  Cl17  1  0.75000000  0.68336703  0.77350668  1
  Cl  Cl18  1  0.25000000  0.81663297  0.27350668  1
  Cl  Cl19  1  0.75000000  0.18336703  0.72649332  1
  Cl  Cl20  1  0.25000000  0.12162694  0.42697096  1
  Cl  Cl21  1  0.75000000  0.37837306  0.92697096  1
  Cl  Cl22  1  0.25000000  0.62162694  0.07302904  1
  Cl  Cl23  1  0.75000000  0.87837306  0.57302904  1
