# generated using pymatgen
data_Na7Ca3SnP5SO24
_symmetry_space_group_name_H-M   'P 1'
_cell_length_a   9.36238262
_cell_length_b   9.36862144
_cell_length_c   22.79178527
_cell_angle_alpha   90.06067571
_cell_angle_beta   90.00242478
_cell_angle_gamma   120.15098787
_symmetry_Int_Tables_number   1
_chemical_formula_structural   Na7Ca3SnP5SO24
_chemical_formula_sum   'Na21 Ca9 Sn3 P15 S3 O72'
_cell_volume   1728.65346748
_cell_formula_units_Z   3
loop_
 _symmetry_equiv_pos_site_id
 _symmetry_equiv_pos_as_xyz
  1  'x, y, z'
loop_
 _atom_site_type_symbol
 _atom_site_label
 _atom_site_symmetry_multiplicity
 _atom_site_fract_x
 _atom_site_fract_y
 _atom_site_fract_z
 _atom_site_occupancy
  Na  Na0  1  0.62027636  0.99902477  0.25141267  1
  Na  Na1  1  0.36515235  0.35181362  0.25388985  1
  Na  Na2  1  0.01335455  0.64802514  0.25111997  1
  Na  Na3  1  0.65069533  0.64331513  0.74941215  1
  Na  Na4  1  0.99126098  0.35295834  0.74930232  1
  Na  Na5  1  0.29487869  0.34495492  0.58643256  1
  Na  Na6  1  0.02502240  0.69161943  0.58818529  1
  Na  Na7  1  0.67530615  0.95891202  0.58490456  1
  Na  Na8  1  0.29611246  0.96102209  0.07944246  1
  Na  Na9  1  0.66278918  0.70180622  0.07429310  1
  Na  Na10  1  0.03948711  0.33699749  0.07511418  1
  Na  Na11  1  0.97574834  0.67656985  0.90832477  1
  Na  Na12  1  0.32319895  0.29511401  0.90817152  1
  Na  Na13  1  0.32665462  0.01683833  0.41216227  1
  Na  Na14  1  0.69492563  0.67530049  0.42018855  1
  Na  Na15  1  0.99149721  0.01418318  0.49635541  1
  Na  Na16  1  0.98516161  0.00053017  0.99335850  1
  Na  Na17  1  0.65200546  0.30500299  0.82692543  1
  Na  Na18  1  0.66789263  0.32243674  0.33918906  1
  Na  Na19  1  0.33204659  0.67734469  0.16049261  1
  Na  Na20  1  0.33308877  0.67068933  0.67422868  1
  Ca  Ca21  1  0.00540788  0.00953742  0.35256383  1
  Ca  Ca22  1  0.99712991  0.00047495  0.84809355  1
  Ca  Ca23  1  0.99941557  0.99888381  0.65782637  1
  Ca  Ca24  1  0.00502866  0.99908339  0.14652414  1
  Ca  Ca25  1  0.66214131  0.33084962  0.68713370  1
  Ca  Ca26  1  0.66311705  0.33035319  0.18073809  1
  Ca  Ca27  1  0.33781831  0.67194945  0.01285822  1
  Ca  Ca28  1  0.32698560  0.65927925  0.51153227  1
  Ca  Ca29  1  0.32957182  0.66424498  0.32701388  1
  Sn  Sn30  1  0.66630814  0.32831060  0.98099743  1
  Sn  Sn31  1  0.67779686  0.33860966  0.48365960  1
  Sn  Sn32  1  0.33595422  0.67438703  0.82144946  1
  P  P33  1  0.30578675  0.99618972  0.25037332  1
  P  P34  1  0.30688528  0.32180055  0.75482665  1
  P  P35  1  0.01118061  0.69305768  0.75302763  1
  P  P36  1  0.68401611  0.98778761  0.75068950  1
  P  P37  1  0.96057081  0.32965388  0.58383040  1
  P  P38  1  0.66930766  0.63102513  0.58170740  1
  P  P39  1  0.95962910  0.62741642  0.08151841  1
  P  P40  1  0.66963374  0.03877413  0.08299059  1
  P  P41  1  0.37099213  0.33348285  0.08118314  1
  P  P42  1  0.63202673  0.65393590  0.91944295  1
  P  P43  1  0.02851438  0.37217177  0.91937111  1
  P  P44  1  0.34183114  0.97366869  0.91987240  1
  P  P45  1  0.63916197  0.98283805  0.42001870  1
  P  P46  1  0.34851009  0.35737724  0.42015765  1
  P  P47  1  0.01588831  0.66119533  0.41783969  1
  S  S48  1  0.69463548  0.69796582  0.25044822  1
  S  S49  1  0.00249365  0.30591245  0.24807536  1
  S  S50  1  0.37168883  0.04113976  0.57980755  1
  O  O51  1  0.21651359  0.01068086  0.30496819  1
  O  O52  1  0.79224524  0.78386818  0.30313227  1
  O  O53  1  0.98196191  0.19945206  0.29851559  1
  O  O54  1  0.22224371  0.21971171  0.80932515  1
  O  O55  1  0.98985853  0.77908193  0.80652774  1
  O  O56  1  0.80257288  0.01058251  0.80020630  1
  O  O57  1  0.74590222  0.95160922  0.69208392  1
  O  O58  1  0.20405036  0.24694065  0.69799226  1
  O  O59  1  0.03289988  0.78831544  0.69522736  1
  O  O60  1  0.77458907  0.79523558  0.19696737  1
  O  O61  1  0.01574610  0.22905209  0.19305785  1
  O  O62  1  0.20681115  0.98140830  0.19398488  1
  O  O63  1  0.87994944  0.34655647  0.63929176  1
  O  O64  1  0.47396979  0.12303359  0.63009724  1
  O  O65  1  0.64830023  0.52622050  0.63546634  1
  O  O66  1  0.88298728  0.53305966  0.13839563  1
  O  O67  1  0.65153446  0.11092819  0.14099540  1
  O  O68  1  0.46580913  0.35251703  0.13811345  1
  O  O69  1  0.46625041  0.31430362  0.02664371  1
  O  O70  1  0.84698702  0.53190423  0.02642934  1
  O  O71  1  0.69040361  0.15752959  0.03012126  1
  O  O72  1  0.45126176  0.13993921  0.52425868  1
  O  O73  1  0.68590308  0.53979030  0.52465309  1
  O  O74  1  0.84371034  0.30351779  0.52905193  1
  O  O75  1  0.55897995  0.67340872  0.97633197  1
  O  O76  1  0.12361584  0.44887763  0.97577058  1
  O  O77  1  0.31879650  0.88149726  0.97711830  1
  O  O78  1  0.55218747  0.87713861  0.47402853  1
  O  O79  1  0.33325347  0.44284520  0.47480002  1
  O  O80  1  0.12243466  0.68432494  0.47184591  1
  O  O81  1  0.09092097  0.63895471  0.36085412  1
  O  O82  1  0.53292366  0.90908503  0.36386890  1
  O  O83  1  0.37662628  0.46077542  0.36373852  1
  O  O84  1  0.11955179  0.49344365  0.86562300  1
  O  O85  1  0.36512070  0.87993457  0.86670055  1
  O  O86  1  0.51429165  0.62940415  0.86529772  1
  O  O87  1  0.98794257  0.81070787  0.41503079  1
  O  O88  1  0.81015927  0.99924754  0.41537742  1
  O  O89  1  0.20417373  0.17840048  0.41692446  1
  O  O90  1  0.01286792  0.20348344  0.91126899  1
  O  O91  1  0.19130731  0.99637857  0.91157899  1
  O  O92  1  0.81006674  0.79467167  0.91218982  1
  O  O93  1  0.98010941  0.17436270  0.58316021  1
  O  O94  1  0.20664342  0.02894461  0.58272127  1
  O  O95  1  0.83158944  0.80137270  0.58203674  1
  O  O96  1  0.96962879  0.79778629  0.07961118  1
  O  O97  1  0.82758243  0.02460930  0.08054519  1
  O  O98  1  0.19890288  0.17429365  0.07946505  1
  O  O99  1  0.66300460  0.13958726  0.74809725  1
  O  O100  1  0.48678860  0.35948211  0.75099914  1
  O  O101  1  0.85881132  0.51578179  0.75060285  1
  O  O102  1  0.68213451  0.53247816  0.24895471  1
  O  O103  1  0.85668841  0.33046099  0.24797755  1
  O  O104  1  0.48148944  0.15489195  0.25071717  1
  O  O105  1  0.63366241  0.48296086  0.91957402  1
  O  O106  1  0.85503551  0.36551363  0.92006581  1
  O  O107  1  0.50195917  0.15205292  0.92028063  1
  O  O108  1  0.64956884  0.15726645  0.42476079  1
  O  O109  1  0.51397204  0.34632167  0.42347529  1
  O  O110  1  0.83793672  0.50180852  0.42221317  1
  O  O111  1  0.35191866  0.48764548  0.07663532  1
  O  O112  1  0.13391008  0.64782306  0.07749441  1
  O  O113  1  0.51414399  0.86579314  0.07775066  1
  O  O114  1  0.35075970  0.87329862  0.57570025  1
  O  O115  1  0.51677581  0.65347778  0.57680385  1
  O  O116  1  0.13129616  0.48855265  0.57747331  1
  O  O117  1  0.32332966  0.83829329  0.25218933  1
  O  O118  1  0.52518778  0.67596598  0.25316970  1
  O  O119  1  0.15720267  0.47030133  0.25279517  1
  O  O120  1  0.31338907  0.49657673  0.75984618  1
  O  O121  1  0.16957245  0.67323751  0.75907333  1
  O  O122  1  0.51137491  0.82209143  0.76014403  1
