# generated using pymatgen
data_Na3ZnSn(PO4)3
_symmetry_space_group_name_H-M   'P 1'
_cell_length_a   15.55677239
_cell_length_b   9.02512384
_cell_length_c   8.90722811
_cell_angle_alpha   90.00000000
_cell_angle_beta   124.90539314
_cell_angle_gamma   90.00000000
_symmetry_Int_Tables_number   1
_chemical_formula_structural   Na3ZnSn(PO4)3
_chemical_formula_sum   'Na12 Zn4 Sn4 P12 O48'
_cell_volume   1025.60706460
_cell_formula_units_Z   4
loop_
 _symmetry_equiv_pos_site_id
 _symmetry_equiv_pos_as_xyz
  1  'x, y, z'
loop_
 _atom_site_type_symbol
 _atom_site_label
 _atom_site_symmetry_multiplicity
 _atom_site_fract_x
 _atom_site_fract_y
 _atom_site_fract_z
 _atom_site_occupancy
  Na  Na0  1  0.25074009  0.72610720  0.98379822  1
  Na  Na1  1  0.75074009  0.77389280  0.48379822  1
  Na  Na2  1  0.75074009  0.22610720  0.98379822  1
  Na  Na3  1  0.25074009  0.27389280  0.48379822  1
  Na  Na4  1  0.50406561  0.11175929  0.74858766  1
  Na  Na5  1  0.50406561  0.88824071  0.24858766  1
  Na  Na6  1  0.00406561  0.61175929  0.74858766  1
  Na  Na7  1  0.00406561  0.38824071  0.24858766  1
  Na  Na8  1  0.18280694  0.94197594  0.28659326  1
  Na  Na9  1  0.18280694  0.05802406  0.78659326  1
  Na  Na10  1  0.68280694  0.44197594  0.28659326  1
  Na  Na11  1  0.68280694  0.55802406  0.78659326  1
  Zn  Zn12  1  0.09933974  0.75093147  0.55337394  1
  Zn  Zn13  1  0.09933974  0.24906853  0.05337394  1
  Zn  Zn14  1  0.59933974  0.25093147  0.55337394  1
  Zn  Zn15  1  0.59933974  0.74906853  0.05337394  1
  Sn  Sn16  1  0.89725506  0.75658428  0.94735792  1
  Sn  Sn17  1  0.89725506  0.24341572  0.44735792  1
  Sn  Sn18  1  0.39725506  0.25658428  0.94735792  1
  Sn  Sn19  1  0.39725506  0.74341572  0.44735792  1
  P  P20  1  0.99932389  0.95054951  0.75875091  1
  P  P21  1  0.99932389  0.04945049  0.25875091  1
  P  P22  1  0.49932389  0.45054951  0.75875091  1
  P  P23  1  0.49932389  0.54945049  0.25875091  1
  P  P24  1  0.35316477  0.90225122  0.76233822  1
  P  P25  1  0.64809897  0.89169146  0.74904104  1
  P  P26  1  0.64809897  0.10830854  0.24904104  1
  P  P27  1  0.35316477  0.09774878  0.26233822  1
  P  P28  1  0.85316477  0.40225122  0.76233822  1
  P  P29  1  0.14809897  0.39169146  0.74904104  1
  P  P30  1  0.14809897  0.60830854  0.24904104  1
  P  P31  1  0.85316477  0.59774878  0.26233822  1
  O  O32  1  0.15410479  0.56042237  0.74276527  1
  O  O33  1  0.84703531  0.57850414  0.75644066  1
  O  O34  1  0.84703531  0.42149586  0.25644066  1
  O  O35  1  0.15410479  0.43957763  0.24276527  1
  O  O36  1  0.65410479  0.06042237  0.74276527  1
  O  O37  1  0.34703531  0.07850414  0.75644066  1
  O  O38  1  0.34703531  0.92149586  0.25644066  1
  O  O39  1  0.65410479  0.93957763  0.24276527  1
  O  O40  1  0.43278899  0.54763273  0.58213078  1
  O  O41  1  0.56390874  0.54302078  0.93222635  1
  O  O42  1  0.56390874  0.45697922  0.43222635  1
  O  O43  1  0.43278899  0.45236727  0.08213078  1
  O  O44  1  0.93278899  0.04763273  0.58213078  1
  O  O45  1  0.06390874  0.04302078  0.93222635  1
  O  O46  1  0.06390874  0.95697922  0.43222635  1
  O  O47  1  0.93278899  0.95236727  0.08213078  1
  O  O48  1  0.25712005  0.84349728  0.74962837  1
  O  O49  1  0.73968805  0.81242630  0.75266852  1
  O  O50  1  0.73968805  0.18757370  0.25266852  1
  O  O51  1  0.25712005  0.15650272  0.24962837  1
  O  O52  1  0.75712005  0.34349728  0.74962837  1
  O  O53  1  0.23968805  0.31242630  0.75266852  1
  O  O54  1  0.23968805  0.68757370  0.25266852  1
  O  O55  1  0.75712005  0.65650272  0.24962837  1
  O  O56  1  0.34980803  0.86998659  0.58344579  1
  O  O57  1  0.64662422  0.84241365  0.91022066  1
  O  O58  1  0.64662422  0.15758635  0.41022066  1
  O  O59  1  0.34980803  0.13001341  0.08344579  1
  O  O60  1  0.84980803  0.36998659  0.58344579  1
  O  O61  1  0.14662422  0.34241365  0.91022066  1
  O  O62  1  0.14662422  0.65758635  0.41022066  1
  O  O63  1  0.84980803  0.63001341  0.08344579  1
  O  O64  1  0.45530530  0.85076776  0.93499765  1
  O  O65  1  0.54762290  0.82906397  0.56382428  1
  O  O66  1  0.54762290  0.17093603  0.06382428  1
  O  O67  1  0.45530530  0.14923224  0.43499765  1
  O  O68  1  0.95530530  0.35076776  0.93499765  1
  O  O69  1  0.04762290  0.32906397  0.56382428  1
  O  O70  1  0.04762290  0.67093603  0.06382428  1
  O  O71  1  0.95530530  0.64923224  0.43499765  1
  O  O72  1  0.07563259  0.84812602  0.74884821  1
  O  O73  1  0.91556594  0.84839682  0.75296229  1
  O  O74  1  0.91556594  0.15160318  0.25296229  1
  O  O75  1  0.07563259  0.15187398  0.24884821  1
  O  O76  1  0.57563259  0.34812602  0.74884821  1
  O  O77  1  0.41556594  0.34839682  0.75296229  1
  O  O78  1  0.41556594  0.65160318  0.25296229  1
  O  O79  1  0.57563259  0.65187398  0.24884821  1
