# generated using pymatgen
data_MgNi(TeO3)4
_symmetry_space_group_name_H-M   'P 1'
_cell_length_a   5.61140596
_cell_length_b   11.37281068
_cell_length_c   10.25751509
_cell_angle_alpha   27.65778226
_cell_angle_beta   51.18677180
_cell_angle_gamma   55.65494382
_symmetry_Int_Tables_number   1
_chemical_formula_structural   MgNi(TeO3)4
_chemical_formula_sum   'Mg1 Ni1 Te4 O12'
_cell_volume   236.69407604
_cell_formula_units_Z   1
loop_
 _symmetry_equiv_pos_site_id
 _symmetry_equiv_pos_as_xyz
  1  'x, y, z'
loop_
 _atom_site_type_symbol
 _atom_site_label
 _atom_site_symmetry_multiplicity
 _atom_site_fract_x
 _atom_site_fract_y
 _atom_site_fract_z
 _atom_site_occupancy
  Mg  Mg0  1  0.79438100  0.49255300  0.77989500  1
  Ni  Ni1  1  0.30291700  0.00794200  0.28585500  1
  Te  Te2  1  0.97452500  0.97948800  0.02006800  1
  Te  Te3  1  0.99660600  0.52271700  0.96178800  1
  Te  Te4  1  0.44458600  0.99686500  0.54838000  1
  Te  Te5  1  0.54535200  0.51300600  0.43477300  1
  O  O6  1  0.37111800  0.34107600  0.05328400  1
  O  O7  1  0.22535900  0.12201200  0.64839400  1
  O  O8  1  0.07686600  0.27342200  0.79402500  1
  O  O9  1  0.88880500  0.22365500  0.18832400  1
  O  O10  1  0.35224500  0.80608300  0.11937800  1
  O  O11  1  0.78997400  0.39637000  0.31038400  1
  O  O12  1  0.15471200  0.65906400  0.60902400  1
  O  O13  1  0.60963200  0.14187900  0.91746100  1
  O  O14  1  0.09919500  0.84543400  0.68849700  1
  O  O15  1  0.90622500  0.68962000  0.20641500  1
  O  O16  1  0.71165400  0.83405800  0.38587900  1
  O  O17  1  0.58895900  0.66071000  0.88872400  1
