# generated using pymatgen
data_Na10Sc4In4Si5S7O48
_symmetry_space_group_name_H-M   'P 1'
_cell_length_a   18.19746435
_cell_length_b   9.11432299
_cell_length_c   22.87518251
_cell_angle_alpha   89.98030612
_cell_angle_beta   89.46564396
_cell_angle_gamma   119.99627669
_symmetry_Int_Tables_number   1
_chemical_formula_structural   Na10Sc4In4Si5S7O48
_chemical_formula_sum   'Na30 Sc12 In12 Si15 S21 O144'
_cell_volume   3285.64501942
_cell_formula_units_Z   3
loop_
 _symmetry_equiv_pos_site_id
 _symmetry_equiv_pos_as_xyz
  1  'x, y, z'
loop_
 _atom_site_type_symbol
 _atom_site_label
 _atom_site_symmetry_multiplicity
 _atom_site_fract_x
 _atom_site_fract_y
 _atom_site_fract_z
 _atom_site_occupancy
  Na  Na0  1  0.32879114  0.00105162  0.24909419  1
  Na  Na1  1  0.82539799  0.99889431  0.25095146  1
  Na  Na2  1  0.18181949  0.37576376  0.24047247  1
  Na  Na3  1  0.68301853  0.37455203  0.24232802  1
  Na  Na4  1  0.99272549  0.62834299  0.26036238  1
  Na  Na5  1  0.49593237  0.62667319  0.25943866  1
  Na  Na6  1  0.82801720  0.65133107  0.74624146  1
  Na  Na7  1  0.99303306  0.36217889  0.75855705  1
  Na  Na8  1  0.49625403  0.35300487  0.75901930  1
  Na  Na9  1  0.17944484  0.98772697  0.74274022  1
  Na  Na10  1  0.02025509  0.70939130  0.58426282  1
  Na  Na11  1  0.32960338  0.96950329  0.59172457  1
  Na  Na12  1  0.02196247  0.33097208  0.08308383  1
  Na  Na13  1  0.52003844  0.32915294  0.08559582  1
  Na  Na14  1  0.16101163  0.30041543  0.92717863  1
  Na  Na15  1  0.66391174  0.30287630  0.92764962  1
  Na  Na16  1  0.16112512  0.01937224  0.42757923  1
  Na  Na17  1  0.66204402  0.02210072  0.42710907  1
  Na  Na18  1  0.99816130  0.99694547  0.50099031  1
  Na  Na19  1  0.51012285  0.99001495  0.49997787  1
  Na  Na20  1  0.00231353  0.00339091  0.99982702  1
  Na  Na21  1  0.50339814  0.00113708  0.00233895  1
  Na  Na22  1  0.34602872  0.33327218  0.83720625  1
  Na  Na23  1  0.84829477  0.32430947  0.83251538  1
  Na  Na24  1  0.35379415  0.36837049  0.33594939  1
  Na  Na25  1  0.84993306  0.36886496  0.33692764  1
  Na  Na26  1  0.17607657  0.65643969  0.16551588  1
  Na  Na27  1  0.67891783  0.65808072  0.16610036  1
  Na  Na28  1  0.17157523  0.67422677  0.67033760  1
  Na  Na29  1  0.68063276  0.71815741  0.66301779  1
  Sc  Sc30  1  0.49113558  0.98521622  0.35063147  1
  Sc  Sc31  1  0.99713902  0.98941909  0.64921650  1
  Sc  Sc32  1  0.50112696  0.00854795  0.15036592  1
  Sc  Sc33  1  0.32931481  0.32011699  0.68159564  1
  Sc  Sc34  1  0.82734192  0.31213374  0.68493338  1
  Sc  Sc35  1  0.33295222  0.34477110  0.18458365  1
  Sc  Sc36  1  0.33585242  0.34139170  0.48087232  1
  Sc  Sc37  1  0.83251143  0.33564485  0.48229746  1
  Sc  Sc38  1  0.66369563  0.65082618  0.01888441  1
  Sc  Sc39  1  0.66067386  0.68126398  0.51954541  1
  Sc  Sc40  1  0.15947435  0.65294038  0.31628526  1
  Sc  Sc41  1  0.65918020  0.64916599  0.31643608  1
  In  In42  1  0.98947309  0.98608034  0.35054177  1
  In  In43  1  0.99096428  0.99636170  0.84923302  1
  In  In44  1  0.49488797  0.00713882  0.85147440  1
  In  In45  1  0.50310871  0.99616575  0.64753529  1
  In  In46  1  0.00157855  0.00659595  0.15059516  1
  In  In47  1  0.83237060  0.34039510  0.18173987  1
  In  In48  1  0.33507684  0.33362545  0.98374068  1
  In  In49  1  0.83588417  0.33440162  0.98247981  1
  In  In50  1  0.16738549  0.65438531  0.01673024  1
  In  In51  1  0.16207557  0.66818919  0.51612438  1
  In  In52  1  0.16318473  0.66891880  0.81497279  1
  In  In53  1  0.66571949  0.67580314  0.81822536  1
  Si  Si54  1  0.35257693  0.70711410  0.24977540  1
  Si  Si55  1  0.85096260  0.70238251  0.24929042  1
  Si  Si56  1  0.99877072  0.29653912  0.24864055  1
  Si  Si57  1  0.49907699  0.29310150  0.24890025  1
  Si  Si58  1  0.99758391  0.70079055  0.74841957  1
  Si  Si59  1  0.35299224  0.99994853  0.74587190  1
  Si  Si60  1  0.84944221  0.99594910  0.74988624  1
  Si  Si61  1  0.18395856  0.03755488  0.58000919  1
  Si  Si62  1  0.68381529  0.04001762  0.58090859  1
  Si  Si63  1  0.18416411  0.32909015  0.08252411  1
  Si  Si64  1  0.68276807  0.32713625  0.08126638  1
  Si  Si65  1  0.01586347  0.36155771  0.91636694  1
  Si  Si66  1  0.51706745  0.37006096  0.91626192  1
  Si  Si67  1  0.01502709  0.67072591  0.41733599  1
  Si  Si68  1  0.51717107  0.66946704  0.41505859  1
  S  S69  1  0.15035609  0.00081293  0.25158633  1
  S  S70  1  0.64568915  0.99722218  0.25148891  1
  S  S71  1  0.14883571  0.29361694  0.74906105  1
  S  S72  1  0.64846277  0.29675114  0.75161881  1
  S  S73  1  0.49824852  0.70132686  0.75082285  1
  S  S74  1  0.48087414  0.33638209  0.58294179  1
  S  S75  1  0.97945892  0.33043816  0.58344654  1
  S  S76  1  0.33117834  0.62449747  0.58206663  1
  S  S77  1  0.83094432  0.62518467  0.58420707  1
  S  S78  1  0.48279736  0.63396572  0.08368436  1
  S  S79  1  0.98519962  0.63782969  0.08320383  1
  S  S80  1  0.33229056  0.03405760  0.08480349  1
  S  S81  1  0.83112338  0.03134375  0.08389717  1
  S  S82  1  0.31594337  0.66822413  0.91530752  1
  S  S83  1  0.81417951  0.66608128  0.91721964  1
  S  S84  1  0.16729577  0.96462529  0.91707496  1
  S  S85  1  0.66496086  0.96324156  0.91711552  1
  S  S86  1  0.31500969  0.96323692  0.41689250  1
  S  S87  1  0.81205698  0.96076577  0.41696341  1
  S  S88  1  0.16746093  0.37059947  0.41672148  1
  S  S89  1  0.66686614  0.37191890  0.41754497  1
  O  O90  1  0.11541993  0.03702689  0.30474536  1
  O  O91  1  0.60749413  0.02375656  0.30490794  1
  O  O92  1  0.41475676  0.78496521  0.30627866  1
  O  O93  1  0.91662200  0.77189069  0.30365509  1
  O  O94  1  0.48365230  0.16401935  0.30305154  1
  O  O95  1  0.98073031  0.16983558  0.30427330  1
  O  O96  1  0.11687783  0.19687035  0.80478777  1
  O  O97  1  0.61517320  0.19720468  0.80663400  1
  O  O98  1  0.49084389  0.78472479  0.80436700  1
  O  O99  1  0.98352376  0.79260460  0.80618839  1
  O  O100  1  0.41892114  0.05281783  0.79971125  1
  O  O101  1  0.90765599  0.04845813  0.80788537  1
  O  O102  1  0.39339045  0.97449932  0.68472748  1
  O  O103  1  0.89788387  0.96261698  0.69516949  1
  O  O104  1  0.09244002  0.20313887  0.69986481  1
  O  O105  1  0.59198997  0.21139819  0.70190942  1
  O  O106  1  0.01613889  0.82200077  0.69021279  1
  O  O107  1  0.51048329  0.80277991  0.69746645  1
  O  O108  1  0.39951120  0.83178988  0.19394089  1
  O  O109  1  0.89287968  0.82617535  0.19176937  1
  O  O110  1  0.02511526  0.23312069  0.18901164  1
  O  O111  1  0.51772042  0.21722578  0.18860833  1
  O  O112  1  0.09459926  0.96294127  0.20050430  1
  O  O113  1  0.59276879  0.97315398  0.19976174  1
  O  O114  1  0.44350656  0.35896790  0.63824031  1
  O  O115  1  0.94109737  0.35809046  0.63680922  1
  O  O116  1  0.24390452  0.13131104  0.63787177  1
  O  O117  1  0.74161679  0.13999478  0.63710311  1
  O  O118  1  0.32611264  0.52978823  0.63551126  1
  O  O119  1  0.82299764  0.53293794  0.63932959  1
  O  O120  1  0.44247676  0.52311037  0.13605514  1
  O  O121  1  0.94898633  0.53300540  0.13759184  1
  O  O122  1  0.32343517  0.11583642  0.13843972  1
  O  O123  1  0.82119191  0.10470915  0.14001523  1
  O  O124  1  0.23938360  0.34229774  0.14059783  1
  O  O125  1  0.73450305  0.34909445  0.14160745  1
  O  O126  1  0.22814311  0.31621444  0.02104191  1
  O  O127  1  0.72857088  0.31127377  0.02165501  1
  O  O128  1  0.43198900  0.55545286  0.03102597  1
  O  O129  1  0.93310491  0.55130082  0.03181720  1
  O  O130  1  0.34880528  0.14453804  0.03263102  1
  O  O131  1  0.84589969  0.14756922  0.03418453  1
  O  O132  1  0.23396184  0.14680186  0.52149387  1
  O  O133  1  0.72899097  0.14698365  0.52017923  1
  O  O134  1  0.33990257  0.54047613  0.52955899  1
  O  O135  1  0.84483965  0.53704755  0.53404322  1
  O  O136  1  0.42593215  0.32084156  0.53339577  1
  O  O137  1  0.92938724  0.31769693  0.53144462  1
  O  O138  1  0.28022742  0.69782485  0.96981371  1
  O  O139  1  0.76677205  0.68046684  0.96767701  1
  O  O140  1  0.07385636  0.44652676  0.97460602  1
  O  O141  1  0.57755781  0.46975437  0.97242510  1
  O  O142  1  0.16292821  0.86348777  0.96928780  1
  O  O143  1  0.65938581  0.86127839  0.96846636  1
  O  O144  1  0.27793382  0.86394746  0.47204693  1
  O  O145  1  0.76765806  0.85415152  0.46808831  1
  O  O146  1  0.16015961  0.45625133  0.46980116  1
  O  O147  1  0.65986981  0.46153535  0.46823517  1
  O  O148  1  0.07370005  0.70735775  0.47536929  1
  O  O149  1  0.58148367  0.69656587  0.46908480  1
  O  O150  1  0.06438300  0.65320120  0.35889277  1
  O  O151  1  0.56007121  0.64723696  0.35431399  1
  O  O152  1  0.26124663  0.87451057  0.36595784  1
  O  O153  1  0.76537860  0.88051068  0.36223116  1
  O  O154  1  0.17740194  0.47124725  0.36298664  1
  O  O155  1  0.67704395  0.46873819  0.36215129  1
  O  O156  1  0.06014932  0.46899923  0.85588660  1
  O  O157  1  0.55876573  0.47322703  0.85464349  1
  O  O158  1  0.17891026  0.89200820  0.86180077  1
  O  O159  1  0.67767002  0.89301317  0.86204668  1
  O  O160  1  0.26442243  0.65266126  0.86362640  1
  O  O161  1  0.76815335  0.65045179  0.86174226  1
  O  O162  1  0.01451879  0.85258552  0.41433185  1
  O  O163  1  0.51504979  0.84850231  0.41270839  1
  O  O164  1  0.40126715  0.98879041  0.41187066  1
  O  O165  1  0.89914971  0.98709141  0.41680618  1
  O  O166  1  0.09112088  0.19900854  0.41406447  1
  O  O167  1  0.59103982  0.19904753  0.41371102  1
  O  O168  1  0.01499915  0.17798522  0.91440773  1
  O  O169  1  0.51717031  0.18790336  0.91643853  1
  O  O170  1  0.08916620  0.97896330  0.91593383  1
  O  O171  1  0.58518787  0.97432670  0.91428166  1
  O  O172  1  0.40445819  0.81208714  0.91114649  1
  O  O173  1  0.90008442  0.81443285  0.91781968  1
  O  O174  1  0.48206993  0.17414248  0.58465477  1
  O  O175  1  0.98901041  0.18015776  0.58757428  1
  O  O176  1  0.08741952  0.00855493  0.58438026  1
  O  O177  1  0.58794037  0.01982910  0.58452514  1
  O  O178  1  0.40548016  0.80063537  0.58276135  1
  O  O179  1  0.91024726  0.79626793  0.58558494  1
  O  O180  1  0.49302144  0.80287520  0.09042888  1
  O  O181  1  0.99201211  0.80527867  0.08739261  1
  O  O182  1  0.40908272  0.01509861  0.08834150  1
  O  O183  1  0.90911262  0.01681492  0.08505846  1
  O  O184  1  0.08698928  0.16106770  0.08380966  1
  O  O185  1  0.58559535  0.16123978  0.08404495  1
  O  O186  1  0.34251784  0.17282761  0.74107740  1
  O  O187  1  0.83942567  0.16344618  0.74163386  1
  O  O188  1  0.23485859  0.31323348  0.74026549  1
  O  O189  1  0.73555549  0.32814938  0.74344273  1
  O  O190  1  0.42066041  0.52937287  0.74655719  1
  O  O191  1  0.91270097  0.51534608  0.74267427  1
  O  O192  1  0.33897217  0.51393263  0.24309942  1
  O  O193  1  0.83459191  0.50879466  0.24515193  1
  O  O194  1  0.41371479  0.31172506  0.24296944  1
  O  O195  1  0.91168196  0.30848896  0.24290423  1
  O  O196  1  0.23619014  0.15190748  0.24206185  1
  O  O197  1  0.73220191  0.14848154  0.24581646  1
  O  O198  1  0.31670881  0.50463770  0.91846202  1
  O  O199  1  0.81710695  0.50534515  0.92012601  1
  O  O200  1  0.42126696  0.34728336  0.92168262  1
  O  O201  1  0.92079058  0.34265580  0.92111037  1
  O  O202  1  0.24245240  0.14192300  0.91934855  1
  O  O203  1  0.73781929  0.14056359  0.91975174  1
  O  O204  1  0.31804683  0.13040995  0.42032596  1
  O  O205  1  0.81562894  0.12850246  0.42044629  1
  O  O206  1  0.24394225  0.34919447  0.41969320  1
  O  O207  1  0.74344484  0.35046401  0.42033453  1
  O  O208  1  0.42251645  0.49878663  0.42327372  1
  O  O209  1  0.92142796  0.49930046  0.42356916  1
  O  O210  1  0.17259555  0.49949276  0.08318616  1
  O  O211  1  0.67009254  0.49744567  0.07801162  1
  O  O212  1  0.07148661  0.65568926  0.07818992  1
  O  O213  1  0.56761130  0.64579800  0.07818874  1
  O  O214  1  0.25401387  0.86655459  0.07878191  1
  O  O215  1  0.75408736  0.86424709  0.07657583  1
  O  O216  1  0.17980827  0.84915513  0.58177069  1
  O  O217  1  0.67481373  0.84935958  0.57847086  1
  O  O218  1  0.25259266  0.63963339  0.57920377  1
  O  O219  1  0.75555871  0.64242384  0.57650932  1
  O  O220  1  0.06589784  0.48769235  0.57971822  1
  O  O221  1  0.56719848  0.48059250  0.57709929  1
  O  O222  1  0.16244303  0.85129053  0.25863321  1
  O  O223  1  0.65551465  0.84427141  0.25580757  1
  O  O224  1  0.25885608  0.69099738  0.25780344  1
  O  O225  1  0.75883357  0.69337531  0.25789800  1
  O  O226  1  0.08145596  0.48890548  0.25696324  1
  O  O227  1  0.58373565  0.48327349  0.25508110  1
  O  O228  1  0.15577262  0.46268252  0.75186890  1
  O  O229  1  0.65310599  0.46461610  0.75549226  1
  O  O230  1  0.08249109  0.67933456  0.75088417  1
  O  O231  1  0.57327292  0.67434396  0.75292070  1
  O  O232  1  0.25712981  0.83700551  0.75441800  1
  O  O233  1  0.75748739  0.81477831  0.75509124  1
