# generated using pymatgen
data_Na5Hf2Si3Sn2(PO8)3
_symmetry_space_group_name_H-M   'P 1'
_cell_length_a   8.99179184
_cell_length_b   8.99082846
_cell_length_c   22.84310669
_cell_angle_alpha   90.04846277
_cell_angle_beta   89.89977814
_cell_angle_gamma   119.92475049
_symmetry_Int_Tables_number   1
_chemical_formula_structural   Na5Hf2Si3Sn2(PO8)3
_chemical_formula_sum   'Na15 Hf6 Si9 Sn6 P9 O72'
_cell_volume   1600.51556563
_cell_formula_units_Z   3
loop_
 _symmetry_equiv_pos_site_id
 _symmetry_equiv_pos_as_xyz
  1  'x, y, z'
loop_
 _atom_site_type_symbol
 _atom_site_label
 _atom_site_symmetry_multiplicity
 _atom_site_fract_x
 _atom_site_fract_y
 _atom_site_fract_z
 _atom_site_occupancy
  Na  Na0  1  -0.00003516  0.62960401  0.25016624  1
  Na  Na1  1  0.36845031  0.00023916  0.74990820  1
  Na  Na2  1  0.03116851  0.70146768  0.58135179  1
  Na  Na3  1  0.66194815  0.96254851  0.58413594  1
  Na  Na4  1  0.29862614  0.97000427  0.08145028  1
  Na  Na5  1  0.03437574  0.33692700  0.08550451  1
  Na  Na6  1  0.97223301  0.66880842  0.91842061  1
  Na  Na7  1  0.96523851  0.29998315  0.41444291  1
  Na  Na8  1  0.33593488  0.02939558  0.41799794  1
  Na  Na9  1  0.99616313  0.99337024  0.50005466  1
  Na  Na10  1  0.99915807  0.99986295  0.99987229  1
  Na  Na11  1  0.66465333  0.32668513  0.83306012  1
  Na  Na12  1  0.66565578  0.33190451  0.33337196  1
  Na  Na13  1  0.34256907  0.65965538  0.16740188  1
  Na  Na14  1  0.33937309  0.65657906  0.66625049  1
  Hf  Hf15  1  0.99867960  0.00692797  0.85247566  1
  Hf  Hf16  1  0.66564500  0.33227682  0.18640542  1
  Hf  Hf17  1  0.65677314  0.32897069  0.98083740  1
  Hf  Hf18  1  0.33449838  0.66610722  0.01867845  1
  Hf  Hf19  1  0.33464775  0.66573567  0.31420760  1
  Hf  Hf20  1  0.34126456  0.67029124  0.81327626  1
  Si  Si21  1  0.00029179  0.29088452  0.25012582  1
  Si  Si22  1  0.71014723  0.00466575  0.74812083  1
  Si  Si23  1  0.37290339  0.04381231  0.58356837  1
  Si  Si24  1  0.66308638  0.62178919  0.58424497  1
  Si  Si25  1  0.95558497  0.62720589  0.08327598  1
  Si  Si26  1  0.37434152  0.33476220  0.08508736  1
  Si  Si27  1  0.33510921  0.96211286  0.91599543  1
  Si  Si28  1  0.62716401  0.95917261  0.41744646  1
  Si  Si29  1  0.03887752  0.66636901  0.41687623  1
  Sn  Sn30  1  0.99105105  0.99438886  0.35184027  1
  Sn  Sn31  1  0.00012559  0.00086721  0.64845441  1
  Sn  Sn32  1  -0.00180882  -0.00052292  0.14847785  1
  Sn  Sn33  1  0.66727437  0.33501470  0.68543432  1
  Sn  Sn34  1  0.66568594  0.33836477  0.48169300  1
  Sn  Sn35  1  0.33884590  0.66961102  0.51834364  1
  P  P36  1  0.29150798  0.00134505  0.25098434  1
  P  P37  1  0.70839922  0.70965065  0.24921124  1
  P  P38  1  0.29001115  0.29090590  0.74916910  1
  P  P39  1  0.99667539  0.70517318  0.75035027  1
  P  P40  1  0.96011137  0.33426242  0.58281840  1
  P  P41  1  0.66730753  0.04258930  0.08348230  1
  P  P42  1  0.62501387  0.66692799  0.91625937  1
  P  P43  1  0.04332591  0.37603755  0.91666448  1
  P  P44  1  0.33456461  0.37674170  0.41651387  1
  O  O45  1  0.20920971  0.02895877  0.30664656  1
  O  O46  1  0.82704490  0.78446557  0.30357141  1
  O  O47  1  0.96980878  0.17699776  0.30940683  1
  O  O48  1  0.20500214  0.17248115  0.80263833  1
  O  O49  1  0.97331445  0.79368033  0.80473121  1
  O  O50  1  0.82966789  0.02982574  0.80445122  1
  O  O51  1  0.78879838  0.97036162  0.68843279  1
  O  O52  1  0.18080841  0.21086738  0.69376922  1
  O  O53  1  0.03789035  0.82025052  0.69472047  1
  O  O54  1  0.78959805  0.82136116  0.19437000  1
  O  O55  1  0.03100162  0.20871971  0.19038644  1
  O  O56  1  0.17601625  0.96154959  0.19566676  1
  O  O57  1  0.88139617  0.37285688  0.63672934  1
  O  O58  1  0.49522373  0.11989363  0.64139955  1
  O  O59  1  0.63446436  0.50721714  0.64221652  1
  O  O60  1  0.87336796  0.50489296  0.14076087  1
  O  O61  1  0.63368257  0.12364930  0.13753610  1
  O  O62  1  0.49225685  0.35898752  0.14126330  1
  O  O63  1  0.45985476  0.29359757  0.02858752  1
  O  O64  1  0.84401769  0.53877329  0.02452348  1
  O  O65  1  0.70093957  0.15922164  0.02967647  1
  O  O66  1  0.45423346  0.15454760  0.52365858  1
  O  O67  1  0.71396645  0.54679283  0.52705774  1
  O  O68  1  0.84754221  0.29586394  0.52698013  1
  O  O69  1  0.54031293  0.69332831  0.97064650  1
  O  O70  1  0.15183443  0.45729409  0.97261026  1
  O  O71  1  0.30114519  0.84061713  0.97393577  1
  O  O72  1  0.55053241  0.84824299  0.47735678  1
  O  O73  1  0.29393450  0.45162366  0.47132274  1
  O  O74  1  0.15749168  0.70304260  0.47572791  1
  O  O75  1  0.12638163  0.63164544  0.35952282  1
  O  O76  1  0.50085585  0.86914480  0.36209757  1
  O  O77  1  0.36099855  0.48887900  0.36278694  1
  O  O78  1  0.13140632  0.49256800  0.86361925  1
  O  O79  1  0.35676197  0.86609979  0.85842445  1
  O  O80  1  0.51212104  0.63830925  0.86232672  1
  O  O81  1  0.03530571  0.84662442  0.40982408  1
  O  O82  1  0.82298504  0.99112270  0.41248146  1
  O  O83  1  0.17309174  0.19475880  0.41032216  1
  O  O84  1  0.02385931  0.19660897  0.91043914  1
  O  O85  1  0.15649882  0.96848337  0.90943030  1
  O  O86  1  0.80687151  0.82529833  0.90942210  1
  O  O87  1  0.97261562  0.16961344  0.58931525  1
  O  O88  1  0.17876603  0.01564056  0.59004623  1
  O  O89  1  0.83637112  0.81544754  0.58904987  1
  O  O90  1  0.98501943  0.82175611  0.09003749  1
  O  O91  1  0.83158945  0.02905075  0.08916985  1
  O  O92  1  0.18202658  0.16070328  0.08874930  1
  O  O93  1  0.68214207  0.17265117  0.74486035  1
  O  O94  1  0.46755377  0.30127925  0.74513408  1
  O  O95  1  0.83554660  0.52723610  0.74454758  1
  O  O96  1  0.69588484  0.53227111  0.24306899  1
  O  O97  1  0.83272698  0.31733431  0.24536145  1
  O  O98  1  0.46889665  0.15952122  0.24422206  1
  O  O99  1  0.65151689  0.50975269  0.92225130  1
  O  O100  1  0.86690286  0.36514598  0.92314630  1
  O  O101  1  0.50630614  0.14929368  0.92140526  1
  O  O102  1  0.64236110  0.15039657  0.42251407  1
  O  O103  1  0.49270845  0.35251541  0.42116270  1
  O  O104  1  0.85356211  0.48926759  0.42188410  1
  O  O105  1  0.34593056  0.49859814  0.07735709  1
  O  O106  1  0.14853643  0.64783914  0.07705463  1
  O  O107  1  0.50438431  0.86572352  0.07604693  1
  O  O108  1  0.35044644  0.84947442  0.57893514  1
  O  O109  1  0.49551746  0.64717854  0.57860068  1
  O  O110  1  0.13717664  0.49865109  0.57614479  1
  O  O111  1  0.30335226  0.83560609  0.25690738  1
  O  O112  1  0.53128536  0.69156377  0.25675277  1
  O  O113  1  0.16789264  0.48503994  0.25498593  1
  O  O114  1  0.30860792  0.46883039  0.75716676  1
  O  O115  1  0.16070755  0.69025519  0.75729535  1
  O  O116  1  0.51621929  0.83611435  0.75497261  1
