# generated using pymatgen
data_Na7La4SiP5O24
_symmetry_space_group_name_H-M   'P 1'
_cell_length_a   9.68884626
_cell_length_b   9.67948386
_cell_length_c   24.34151841
_cell_angle_alpha   89.69226644
_cell_angle_beta   90.11130980
_cell_angle_gamma   120.03803335
_symmetry_Int_Tables_number   1
_chemical_formula_structural   Na7La4SiP5O24
_chemical_formula_sum   'Na21 La12 Si3 P15 O72'
_cell_volume   1976.19395408
_cell_formula_units_Z   3
loop_
 _symmetry_equiv_pos_site_id
 _symmetry_equiv_pos_as_xyz
  1  'x, y, z'
loop_
 _atom_site_type_symbol
 _atom_site_label
 _atom_site_symmetry_multiplicity
 _atom_site_fract_x
 _atom_site_fract_y
 _atom_site_fract_z
 _atom_site_occupancy
  Na  Na0  1  0.36567222  0.36400498  0.25023102  1
  Na  Na1  1  0.99988636  0.63259219  0.24787488  1
  Na  Na2  1  0.63725157  0.64156693  0.74817945  1
  Na  Na3  1  0.99056036  0.35793767  0.75268826  1
  Na  Na4  1  0.37392201  0.99957423  0.74788700  1
  Na  Na5  1  0.29984228  0.32355787  0.58174274  1
  Na  Na6  1  0.04036362  0.70701577  0.58273287  1
  Na  Na7  1  0.66120396  0.96847439  0.58653497  1
  Na  Na8  1  0.29395562  0.96080392  0.08327753  1
  Na  Na9  1  0.67408749  0.69767860  0.08271903  1
  Na  Na10  1  0.03032870  0.34024169  0.08471654  1
  Na  Na11  1  0.96591235  0.66692142  0.91956333  1
  Na  Na12  1  0.70061604  0.03483253  0.91461534  1
  Na  Na13  1  0.96800011  0.30254417  0.41563949  1
  Na  Na14  1  0.33301059  0.03376999  0.41886795  1
  Na  Na15  1  0.99765109  0.99064108  0.50065889  1
  Na  Na16  1  0.00995107  0.00332749  0.99933644  1
  Na  Na17  1  0.65695969  0.32658335  0.83348032  1
  Na  Na18  1  0.66658745  0.33327888  0.33327190  1
  Na  Na19  1  0.33617349  0.67582105  0.16672478  1
  Na  Na20  1  0.34227503  0.68110176  0.66658171  1
  La  La21  1  0.98547059  0.98972256  0.34816778  1
  La  La22  1  0.00590527  0.00971413  0.84831809  1
  La  La23  1  0.99947427  0.00017129  0.65373964  1
  La  La24  1  0.99362237  0.99602212  0.15381237  1
  La  La25  1  0.66433985  0.32550083  0.67951090  1
  La  La26  1  0.67168951  0.32608071  0.18171193  1
  La  La27  1  0.66084138  0.33796278  0.98545947  1
  La  La28  1  0.66161589  0.33985686  0.48466850  1
  La  La29  1  0.32978323  0.66064179  0.01330678  1
  La  La30  1  0.33970093  0.67033244  0.51264648  1
  La  La31  1  0.34797172  0.67693744  0.31847235  1
  La  La32  1  0.33672241  0.66519839  0.82029369  1
  Si  Si33  1  0.69353776  0.99973156  0.75038736  1
  Si  Si34  1  0.35795789  0.02480951  0.58254574  1
  Si  Si35  1  0.97272988  0.63962098  0.08335492  1
  P  P36  1  0.29915058  0.00042742  0.25094984  1
  P  P37  1  0.69233055  0.68674774  0.24720409  1
  P  P38  1  0.00592861  0.31039284  0.25117859  1
  P  P39  1  0.30646068  0.30695426  0.74755641  1
  P  P40  1  0.99942967  0.69435766  0.75112947  1
  P  P41  1  0.97213970  0.33441016  0.58204266  1
  P  P42  1  0.66698034  0.63851399  0.58594915  1
  P  P43  1  0.66629698  0.02897693  0.08012552  1
  P  P44  1  0.36258299  0.33246154  0.08675937  1
  P  P45  1  0.64523206  0.67113326  0.91642996  1
  P  P46  1  0.02071761  0.35893036  0.91700646  1
  P  P47  1  0.33373061  0.96895966  0.91667212  1
  P  P48  1  0.64124047  0.97981713  0.41937122  1
  P  P49  1  0.32720764  0.35601691  0.41546946  1
  P  P50  1  0.03416406  0.66627651  0.41570068  1
  O  O51  1  0.21202658  0.01564349  0.30205270  1
  O  O52  1  0.80022538  0.78025796  0.29597734  1
  O  O53  1  0.99154236  0.20955609  0.30260928  1
  O  O54  1  0.21918384  0.19571561  0.79641787  1
  O  O55  1  0.98301453  0.78047018  0.80195337  1
  O  O56  1  0.80456378  0.02077313  0.80436287  1
  O  O57  1  0.77734427  0.97808785  0.69473550  1
  O  O58  1  0.21185520  0.23204133  0.69391795  1
  O  O59  1  0.02229415  0.79547198  0.69846303  1
  O  O60  1  0.76682427  0.77940930  0.19303948  1
  O  O61  1  0.01839300  0.22668313  0.19848168  1
  O  O62  1  0.19998691  0.98232742  0.19810567  1
  O  O63  1  0.89456205  0.35693698  0.63452734  1
  O  O64  1  0.46435204  0.10864642  0.63815795  1
  O  O65  1  0.64858185  0.54471358  0.63980425  1
  O  O66  1  0.88600157  0.52887610  0.13804737  1
  O  O67  1  0.64067521  0.11215082  0.12980321  1
  O  O68  1  0.45967080  0.35165271  0.13961064  1
  O  O69  1  0.44581981  0.30747245  0.03709158  1
  O  O70  1  0.86305188  0.55341817  0.02874810  1
  O  O71  1  0.68563074  0.12607862  0.02728538  1
  O  O72  1  0.44796860  0.13745116  0.52862884  1
  O  O73  1  0.68846386  0.55059871  0.53705470  1
  O  O74  1  0.86905247  0.31753342  0.53112171  1
  O  O75  1  0.55830132  0.68283716  0.96838004  1
  O  O76  1  0.11901844  0.44359059  0.96920541  1
  O  O77  1  0.31796856  0.86793086  0.96897749  1
  O  O78  1  0.56630994  0.88693932  0.47331939  1
  O  O79  1  0.31462028  0.43950749  0.46813510  1
  O  O80  1  0.13313753  0.68436798  0.46851370  1
  O  O81  1  0.12148762  0.65091808  0.36453081  1
  O  O82  1  0.53308645  0.88658403  0.37041195  1
  O  O83  1  0.34166929  0.45739502  0.36402065  1
  O  O84  1  0.10735693  0.45767245  0.86494598  1
  O  O85  1  0.34908845  0.88371912  0.86489397  1
  O  O86  1  0.54767851  0.65827756  0.86425919  1
  O  O87  1  0.02517856  0.82235438  0.41256812  1
  O  O88  1  0.81317601  0.00735380  0.41465620  1
  O  O89  1  0.17071366  0.18919581  0.41340192  1
  O  O90  1  0.99406368  0.18694352  0.91601734  1
  O  O91  1  0.17711613  0.97565816  0.91443820  1
  O  O92  1  0.81185745  0.82700017  0.91520603  1
  O  O93  1  0.98556842  0.18054796  0.58559534  1
  O  O94  1  0.17848876  0.00640533  0.58459982  1
  O  O95  1  0.81642376  0.80892442  0.58647555  1
  O  O96  1  0.99178300  0.81992605  0.08632026  1
  O  O97  1  0.82092283  0.01775483  0.08630072  1
  O  O98  1  0.19045934  0.18500162  0.08891252  1
  O  O99  1  0.67745770  0.16247486  0.74898283  1
  O  O100  1  0.47736307  0.33004647  0.74618967  1
  O  O101  1  0.84608687  0.52720870  0.74770006  1
  O  O102  1  0.68157347  0.52032391  0.24760798  1
  O  O103  1  0.86128218  0.33861833  0.24978282  1
  O  O104  1  0.46337999  0.15595387  0.24816777  1
  O  O105  1  0.67187342  0.52592245  0.91767679  1
  O  O106  1  0.85478860  0.34909621  0.91844084  1
  O  O107  1  0.48944331  0.13288121  0.91888894  1
  O  O108  1  0.65244605  0.14647905  0.41891766  1
  O  O109  1  0.47182639  0.32788850  0.41671993  1
  O  O110  1  0.87015655  0.51048684  0.41841861  1
  O  O111  1  0.35079882  0.48723505  0.08070628  1
  O  O112  1  0.15261504  0.65760151  0.08049665  1
  O  O113  1  0.51848125  0.85674511  0.07821912  1
  O  O114  1  0.34125297  0.84558419  0.58003471  1
  O  O115  1  0.51293957  0.65087202  0.58027679  1
  O  O116  1  0.14282003  0.48337751  0.57812907  1
  O  O117  1  0.30801846  0.84407503  0.25394165  1
  O  O118  1  0.52022811  0.65932754  0.25183396  1
  O  O119  1  0.16251034  0.47748578  0.25309738  1
  O  O120  1  0.31763935  0.47270224  0.75333604  1
  O  O121  1  0.14904280  0.67346517  0.75474941  1
  O  O122  1  0.51358302  0.83839238  0.75300211  1
