# generated using pymatgen
data_Na10Ta6Ga2Si11SO48
_symmetry_space_group_name_H-M   'P 1'
_cell_length_a   17.89450814
_cell_length_b   8.97906567
_cell_length_c   22.46304692
_cell_angle_alpha   90.10226180
_cell_angle_beta   89.77706199
_cell_angle_gamma   120.11267148
_symmetry_Int_Tables_number   1
_chemical_formula_structural   Na10Ta6Ga2Si11SO48
_chemical_formula_sum   'Na30 Ta18 Ga6 Si33 S3 O144'
_cell_volume   3122.14246049
_cell_formula_units_Z   3
loop_
 _symmetry_equiv_pos_site_id
 _symmetry_equiv_pos_as_xyz
  1  'x, y, z'
loop_
 _atom_site_type_symbol
 _atom_site_label
 _atom_site_symmetry_multiplicity
 _atom_site_fract_x
 _atom_site_fract_y
 _atom_site_fract_z
 _atom_site_occupancy
  Na  Na0  1  0.31599211  0.99205122  0.25259700  1
  Na  Na1  1  0.81741689  0.99303617  0.25279146  1
  Na  Na2  1  0.82037624  0.64285870  0.74779069  1
  Na  Na3  1  0.18256392  0.98791813  0.75042346  1
  Na  Na4  1  0.68096170  0.00124233  0.74897245  1
  Na  Na5  1  0.01762967  0.70744388  0.58587525  1
  Na  Na6  1  0.83661459  0.96382823  0.58565299  1
  Na  Na7  1  0.64714855  0.96983286  0.08609208  1
  Na  Na8  1  0.33570343  0.70684154  0.08679429  1
  Na  Na9  1  0.83739884  0.70824382  0.08834837  1
  Na  Na10  1  0.01793949  0.32639014  0.08726627  1
  Na  Na11  1  0.51485824  0.32396962  0.08768983  1
  Na  Na12  1  0.98790217  0.66375276  0.91403367  1
  Na  Na13  1  0.34658388  0.02863500  0.91444153  1
  Na  Na14  1  0.48584631  0.31131552  0.41525639  1
  Na  Na15  1  0.98748925  0.31255794  0.41488542  1
  Na  Na16  1  0.34528356  0.66259648  0.41579269  1
  Na  Na17  1  0.84597019  0.66362171  0.41533662  1
  Na  Na18  1  0.01022482  0.01095963  0.50581263  1
  Na  Na19  1  0.50491129  0.99961424  0.50381224  1
  Na  Na20  1  0.00720918  0.01036748  0.00514770  1
  Na  Na21  1  0.50195162  0.99816951  0.00114089  1
  Na  Na22  1  0.33688368  0.34993734  0.83388850  1
  Na  Na23  1  0.83633421  0.32685417  0.83400445  1
  Na  Na24  1  0.33147932  0.33793327  0.33347180  1
  Na  Na25  1  0.83197802  0.33845014  0.33334720  1
  Na  Na26  1  0.16278694  0.65808604  0.17362655  1
  Na  Na27  1  0.66349488  0.65052569  0.17588643  1
  Na  Na28  1  0.17102148  0.66383236  0.67172048  1
  Na  Na29  1  0.65815292  0.65094300  0.66424259  1
  Ta  Ta30  1  0.99716873  0.99680922  0.35459338  1
  Ta  Ta31  1  0.49635674  0.99654434  0.35428011  1
  Ta  Ta32  1  0.99613001  0.00006284  0.85632026  1
  Ta  Ta33  1  0.49925667  0.99594694  0.85520629  1
  Ta  Ta34  1  0.49725183  0.99923933  0.64473455  1
  Ta  Ta35  1  0.33778851  0.33425465  0.68618978  1
  Ta  Ta36  1  0.83652453  0.33711071  0.68778306  1
  Ta  Ta37  1  0.33710094  0.34206225  0.18789106  1
  Ta  Ta38  1  0.83900216  0.34606211  0.18802348  1
  Ta  Ta39  1  0.33146049  0.33942875  0.97871003  1
  Ta  Ta40  1  0.83257876  0.32910075  0.97810819  1
  Ta  Ta41  1  0.33117961  0.32914594  0.48024264  1
  Ta  Ta42  1  0.83241731  0.32827976  0.47986618  1
  Ta  Ta43  1  0.16664107  0.66811517  0.02053562  1
  Ta  Ta44  1  0.66653669  0.66629781  0.02008832  1
  Ta  Ta45  1  0.16909421  0.66826163  0.52233225  1
  Ta  Ta46  1  0.66295258  0.66282452  0.52091973  1
  Ta  Ta47  1  0.66362457  0.66406869  0.81196214  1
  Ga  Ga48  1  0.99786118  0.98974405  0.64450985  1
  Ga  Ga49  1  0.99738208  0.00410488  0.14596909  1
  Ga  Ga50  1  0.49254262  0.00551247  0.14656720  1
  Ga  Ga51  1  0.16584573  0.64635029  0.31598866  1
  Ga  Ga52  1  0.66614130  0.64635385  0.31625602  1
  Ga  Ga53  1  0.16824050  0.67687756  0.81653928  1
  Si  Si54  1  0.35177295  0.70865299  0.24795182  1
  Si  Si55  1  0.85265305  0.71119205  0.24791178  1
  Si  Si56  1  0.00544550  0.29669275  0.24780313  1
  Si  Si57  1  0.50489662  0.29779192  0.24803398  1
  Si  Si58  1  0.64228569  0.28864104  0.74939786  1
  Si  Si59  1  0.00436638  0.71316199  0.74901913  1
  Si  Si60  1  0.49645335  0.70863357  0.74945941  1
  Si  Si61  1  0.35170382  0.99276589  0.75158617  1
  Si  Si62  1  0.85821016  0.00353182  0.74712099  1
  Si  Si63  1  0.47888182  0.33142237  0.58186000  1
  Si  Si64  1  0.98132456  0.32920022  0.58375079  1
  Si  Si65  1  0.18618363  0.04401521  0.58562617  1
  Si  Si66  1  0.68682863  0.04320040  0.58458738  1
  Si  Si67  1  0.33307452  0.62046800  0.58379800  1
  Si  Si68  1  0.83185113  0.62209775  0.58343539  1
  Si  Si69  1  0.47898883  0.62905855  0.08392885  1
  Si  Si70  1  0.98045279  0.63226908  0.08252739  1
  Si  Si71  1  0.33164880  0.04477431  0.08354900  1
  Si  Si72  1  0.83327718  0.04447938  0.08518916  1
  Si  Si73  1  0.18553423  0.32483061  0.08506535  1
  Si  Si74  1  0.68725237  0.32966680  0.08467569  1
  Si  Si75  1  0.30718671  0.66216880  0.91334814  1
  Si  Si76  1  0.80985157  0.66354279  0.91585105  1
  Si  Si77  1  0.02641716  0.38319913  0.91455548  1
  Si  Si78  1  0.52110235  0.37513658  0.91720974  1
  Si  Si79  1  0.16737059  0.95821190  0.91480928  1
  Si  Si80  1  0.66611124  0.95645638  0.91641621  1
  Si  Si81  1  0.30502278  0.95252628  0.41230552  1
  Si  Si82  1  0.80508330  0.95081924  0.41329544  1
  Si  Si83  1  0.16722654  0.37824656  0.41582676  1
  Si  Si84  1  0.66750079  0.37717865  0.41558247  1
  Si  Si85  1  0.02716345  0.67049082  0.41526725  1
  Si  Si86  1  0.52559545  0.66945418  0.41371728  1
  S  S87  1  0.14239303  0.99884826  0.24831002  1
  S  S88  1  0.64339682  0.99958270  0.24811196  1
  S  S89  1  0.14229016  0.28873329  0.74883610  1
  O  O90  1  0.10176194  0.02540919  0.30332072  1
  O  O91  1  0.60095539  0.02453048  0.30205668  1
  O  O92  1  0.41455123  0.80205671  0.30744305  1
  O  O93  1  0.91467972  0.80211601  0.30765668  1
  O  O94  1  0.48721953  0.16743296  0.30636051  1
  O  O95  1  0.98671397  0.16721162  0.30667117  1
  O  O96  1  0.10159357  0.17521656  0.80327927  1
  O  O97  1  0.59842888  0.16399161  0.80712445  1
  O  O98  1  0.48535968  0.80324681  0.80826717  1
  O  O99  1  0.98568343  0.80566656  0.80761779  1
  O  O100  1  0.41400996  0.02869470  0.81018547  1
  O  O101  1  0.91755083  0.02935341  0.80612889  1
  O  O102  1  0.40366647  0.97557979  0.69386281  1
  O  O103  1  0.89688906  0.96028537  0.68924106  1
  O  O104  1  0.09082977  0.20634026  0.69555170  1
  O  O105  1  0.58379505  0.19662410  0.69155642  1
  O  O106  1  0.01877529  0.83111130  0.69057447  1
  O  O107  1  0.51720335  0.83662795  0.69300084  1
  O  O108  1  0.39779649  0.82700830  0.18948554  1
  O  O109  1  0.89805717  0.82927519  0.18961045  1
  O  O110  1  0.01409192  0.20506008  0.18831772  1
  O  O111  1  0.51570338  0.20883186  0.18809529  1
  O  O112  1  0.09134735  0.97926931  0.19514018  1
  O  O113  1  0.59406134  0.98088114  0.19346556  1
  O  O114  1  0.43142651  0.35982890  0.64018375  1
  O  O115  1  0.93125175  0.36486877  0.63973496  1
  O  O116  1  0.24682194  0.13441097  0.64435009  1
  O  O117  1  0.74877446  0.13266872  0.64308225  1
  O  O118  1  0.31943429  0.49625656  0.64090913  1
  O  O119  1  0.81822369  0.50270700  0.64251935  1
  O  O120  1  0.43451693  0.49811084  0.14118111  1
  O  O121  1  0.93286269  0.49694034  0.13956221  1
  O  O122  1  0.31823668  0.13530584  0.14303787  1
  O  O123  1  0.81298741  0.13031841  0.14325940  1
  O  O124  1  0.25265199  0.36521456  0.14084434  1
  O  O125  1  0.75266664  0.36750347  0.14081924  1
  O  O126  1  0.23537413  0.30538821  0.02672032  1
  O  O127  1  0.73541033  0.30256224  0.02672670  1
  O  O128  1  0.41621877  0.53296213  0.02736445  1
  O  O129  1  0.91783504  0.53563477  0.02465310  1
  O  O130  1  0.34847397  0.16886710  0.02574328  1
  O  O131  1  0.84716605  0.17059939  0.02833833  1
  O  O132  1  0.23762898  0.16680306  0.52796627  1
  O  O133  1  0.73719464  0.16475038  0.52715762  1
  O  O134  1  0.34706473  0.53174267  0.52410871  1
  O  O135  1  0.84707965  0.52729356  0.52580613  1
  O  O136  1  0.42135059  0.30783783  0.52282369  1
  O  O137  1  0.91965315  0.30195289  0.52512713  1
  O  O138  1  0.26646620  0.69914887  0.97472296  1
  O  O139  1  0.76591030  0.69346627  0.97540524  1
  O  O140  1  0.08179910  0.46570901  0.97631077  1
  O  O141  1  0.58089786  0.46841797  0.97617979  1
  O  O142  1  0.14851892  0.82784413  0.97213600  1
  O  O143  1  0.65362742  0.83680813  0.97541513  1
  O  O144  1  0.26435042  0.82772577  0.47106918  1
  O  O145  1  0.76629102  0.83093209  0.47345673  1
  O  O146  1  0.14735354  0.46574860  0.47382751  1
  O  O147  1  0.64796291  0.46576802  0.47363596  1
  O  O148  1  0.08182401  0.69782214  0.47670929  1
  O  O149  1  0.58361505  0.69845039  0.47403428  1
  O  O150  1  0.06697680  0.62333072  0.35954921  1
  O  O151  1  0.56664869  0.62342137  0.35854311  1
  O  O152  1  0.25170346  0.87174985  0.35265626  1
  O  O153  1  0.75111731  0.86976879  0.35383556  1
  O  O154  1  0.19362616  0.50240512  0.35929594  1
  O  O155  1  0.69381674  0.50194066  0.35929960  1
  O  O156  1  0.06564736  0.51097020  0.85921292  1
  O  O157  1  0.57035890  0.49980288  0.86024124  1
  O  O158  1  0.18977112  0.88638147  0.85613991  1
  O  O159  1  0.68009956  0.86530359  0.85752195  1
  O  O160  1  0.24838325  0.63243673  0.85692188  1
  O  O161  1  0.75233240  0.64073417  0.85709027  1
  O  O162  1  0.01071747  0.83558950  0.40849005  1
  O  O163  1  0.51112176  0.83683447  0.40817523  1
  O  O164  1  0.40462246  0.97384233  0.40837512  1
  O  O165  1  0.90453093  0.97327582  0.40862551  1
  O  O166  1  0.07977175  0.18774798  0.40841316  1
  O  O167  1  0.57978565  0.18766538  0.40832253  1
  O  O168  1  0.01455144  0.19045249  0.90789746  1
  O  O169  1  0.51000396  0.18473581  0.91119217  1
  O  O170  1  0.07977210  0.97260570  0.90871431  1
  O  O171  1  0.58040072  0.97377045  0.91115251  1
  O  O172  1  0.40339830  0.83962713  0.91028845  1
  O  O173  1  0.90666832  0.83480635  0.91016981  1
  O  O174  1  0.48710334  0.16089088  0.58875076  1
  O  O175  1  0.98513483  0.15571460  0.59071844  1
  O  O176  1  0.09063521  0.01872129  0.58926778  1
  O  O177  1  0.59274256  0.02396083  0.58961640  1
  O  O178  1  0.41825378  0.81008215  0.59086949  1
  O  O179  1  0.91850641  0.80921507  0.58655031  1
  O  O180  1  0.49069079  0.81814467  0.09085989  1
  O  O181  1  0.98570411  0.81428002  0.09052974  1
  O  O182  1  0.41743964  0.02492526  0.08644864  1
  O  O183  1  0.91736471  0.02387066  0.08709982  1
  O  O184  1  0.09006641  0.16181186  0.09000306  1
  O  O185  1  0.59302116  0.15966699  0.08977692  1
  O  O186  1  0.34093424  0.16682076  0.74429652  1
  O  O187  1  0.84266824  0.16861136  0.74394265  1
  O  O188  1  0.22953048  0.29704309  0.74577268  1
  O  O189  1  0.73890074  0.30816414  0.74400689  1
  O  O190  1  0.41169444  0.51762052  0.74423814  1
  O  O191  1  0.91215301  0.52450020  0.74434175  1
  O  O192  1  0.34416020  0.51716653  0.24386775  1
  O  O193  1  0.84437767  0.51828616  0.24369378  1
  O  O194  1  0.41013474  0.29602044  0.24484497  1
  O  O195  1  0.91032604  0.29655507  0.24385962  1
  O  O196  1  0.23158151  0.16017394  0.24557614  1
  O  O197  1  0.73233063  0.16095576  0.24599586  1
  O  O198  1  0.32215001  0.49840996  0.92382513  1
  O  O199  1  0.82496139  0.49964328  0.92208610  1
  O  O200  1  0.42528650  0.35206407  0.92292957  1
  O  O201  1  0.92941036  0.36130136  0.92533323  1
  O  O202  1  0.25286893  0.14620153  0.92580760  1
  O  O203  1  0.75277047  0.14536841  0.92332472  1
  O  O204  1  0.32618258  0.15133223  0.42234684  1
  O  O205  1  0.82639263  0.15049540  0.42267253  1
  O  O206  1  0.25213564  0.35641500  0.42536888  1
  O  O207  1  0.75281269  0.35723624  0.42587768  1
  O  O208  1  0.42728024  0.50122731  0.42345933  1
  O  O209  1  0.92788104  0.50058117  0.42449997  1
  O  O210  1  0.18089479  0.50393169  0.07714817  1
  O  O211  1  0.68010473  0.50493236  0.07731257  1
  O  O212  1  0.07167198  0.63286608  0.07747593  1
  O  O213  1  0.57344872  0.64021461  0.07763103  1
  O  O214  1  0.24754376  0.85112512  0.07698110  1
  O  O215  1  0.74567116  0.85378076  0.07737202  1
  O  O216  1  0.17814960  0.85421630  0.57670090  1
  O  O217  1  0.68389905  0.85882317  0.57688938  1
  O  O218  1  0.24752481  0.63937945  0.57645245  1
  O  O219  1  0.74748449  0.64558036  0.57720693  1
  O  O220  1  0.07211122  0.51000068  0.57794026  1
  O  O221  1  0.57312262  0.50594754  0.57752097  1
  O  O222  1  0.15557021  0.85142198  0.25413815  1
  O  O223  1  0.65606610  0.85127137  0.25381380  1
  O  O224  1  0.25970778  0.70033825  0.25490812  1
  O  O225  1  0.75988645  0.70075132  0.25496632  1
  O  O226  1  0.08574203  0.48773614  0.25576399  1
  O  O227  1  0.58603998  0.48789523  0.25592543  1
  O  O228  1  0.15396497  0.46027103  0.75609703  1
  O  O229  1  0.65797928  0.48415506  0.75582914  1
  O  O230  1  0.08800281  0.69190132  0.75633056  1
  O  O231  1  0.58526796  0.69543623  0.75651385  1
  O  O232  1  0.25640367  0.82568801  0.75470450  1
  O  O233  1  0.76068013  0.83199081  0.75671126  1
