# generated using pymatgen
data_Na6Ti6Zn2Si5S7O48
_symmetry_space_group_name_H-M   'P 1'
_cell_length_a   17.53746450
_cell_length_b   8.82255764
_cell_length_c   22.49404212
_cell_angle_alpha   89.97487556
_cell_angle_beta   89.92858428
_cell_angle_gamma   120.21799074
_symmetry_Int_Tables_number   1
_chemical_formula_structural   Na6Ti6Zn2Si5S7O48
_chemical_formula_sum   'Na18 Ti18 Zn6 Si15 S21 O144'
_cell_volume   3007.46512831
_cell_formula_units_Z   3
loop_
 _symmetry_equiv_pos_site_id
 _symmetry_equiv_pos_as_xyz
  1  'x, y, z'
loop_
 _atom_site_type_symbol
 _atom_site_label
 _atom_site_symmetry_multiplicity
 _atom_site_fract_x
 _atom_site_fract_y
 _atom_site_fract_z
 _atom_site_occupancy
  Na  Na0  1  0.65539785  0.34706853  0.58323758  1
  Na  Na1  1  0.51893176  0.69050408  0.58506994  1
  Na  Na2  1  0.82522679  0.96149648  0.58360872  1
  Na  Na3  1  0.15466966  0.96189470  0.08572116  1
  Na  Na4  1  0.32529015  0.69068664  0.08554011  1
  Na  Na5  1  0.01904534  0.34850779  0.08730209  1
  Na  Na6  1  0.00612294  0.99959038  0.49587847  1
  Na  Na7  1  0.49506418  0.00081809  0.49838670  1
  Na  Na8  1  0.99623500  0.99060021  0.00040718  1
  Na  Na9  1  0.50475929  0.00930187  0.99887479  1
  Na  Na10  1  0.33079272  0.32836265  0.82543678  1
  Na  Na11  1  0.83058363  0.32980968  0.83218702  1
  Na  Na12  1  0.32856834  0.32962852  0.33269523  1
  Na  Na13  1  0.83470788  0.33725376  0.32720456  1
  Na  Na14  1  0.16464997  0.66444849  0.16439793  1
  Na  Na15  1  0.66884085  0.66884835  0.16756964  1
  Na  Na16  1  0.16921433  0.66797643  0.66398473  1
  Na  Na17  1  0.66524102  0.66531503  0.66045600  1
  Ti  Ti18  1  0.00137683  0.98999387  0.35668170  1
  Ti  Ti19  1  0.50167707  0.99921510  0.35303974  1
  Ti  Ti20  1  0.00251000  0.00360450  0.85259415  1
  Ti  Ti21  1  0.50120793  0.99920701  0.85132074  1
  Ti  Ti22  1  0.00652511  0.00710279  0.64485728  1
  Ti  Ti23  1  0.49158826  0.00269831  0.64208981  1
  Ti  Ti24  1  0.99403049  0.98285444  0.14638506  1
  Ti  Ti25  1  0.50364632  0.00622509  0.14873296  1
  Ti  Ti26  1  0.32854123  0.31563609  0.98602538  1
  Ti  Ti27  1  0.83205418  0.34955477  0.97652390  1
  Ti  Ti28  1  0.33176619  0.31432752  0.47533226  1
  Ti  Ti29  1  0.83251209  0.35276006  0.48318346  1
  Ti  Ti30  1  0.67210024  0.68031183  0.01396188  1
  Ti  Ti31  1  0.16732798  0.66666694  0.51017269  1
  Ti  Ti32  1  0.16414009  0.66011794  0.32026183  1
  Ti  Ti33  1  0.67327073  0.68334459  0.30824102  1
  Ti  Ti34  1  0.17186563  0.66318028  0.80713144  1
  Ti  Ti35  1  0.67260198  0.67932467  0.81691345  1
  Zn  Zn36  1  0.33329834  0.32217417  0.69084519  1
  Zn  Zn37  1  0.82756491  0.33013822  0.67938324  1
  Zn  Zn38  1  0.32697849  0.32363516  0.18183313  1
  Zn  Zn39  1  0.83458184  0.34548596  0.19235482  1
  Zn  Zn40  1  0.16570042  0.66882219  0.02153921  1
  Zn  Zn41  1  0.66605164  0.66432636  0.52112019  1
  Si  Si42  1  0.64632585  0.00378697  0.25012147  1
  Si  Si43  1  0.85750278  0.71110031  0.25274406  1
  Si  Si44  1  0.14621681  0.28856531  0.74971876  1
  Si  Si45  1  0.35773256  0.00477731  0.75171219  1
  Si  Si46  1  0.47255895  0.33333721  0.58551613  1
  Si  Si47  1  0.68808974  0.04299420  0.58504330  1
  Si  Si48  1  0.83742769  0.63107034  0.58705422  1
  Si  Si49  1  0.97264236  0.61509874  0.08581914  1
  Si  Si50  1  0.33812492  0.04429389  0.08647244  1
  Si  Si51  1  0.18618912  0.33346870  0.08664838  1
  Si  Si52  1  0.81437419  0.67267728  0.91495554  1
  Si  Si53  1  0.66653738  0.96198987  0.91684344  1
  Si  Si54  1  0.31293770  0.95293405  0.41425978  1
  Si  Si55  1  0.16687567  0.37451945  0.41655334  1
  Si  Si56  1  0.01811822  0.65883468  0.41675744  1
  S  S57  1  0.14446847  0.99687193  0.25093112  1
  S  S58  1  0.35532172  0.71166544  0.24987032  1
  S  S59  1  0.00394702  0.28904081  0.25048368  1
  S  S60  1  0.49970660  0.28872509  0.25194646  1
  S  S61  1  0.64411678  0.29237334  0.75106561  1
  S  S62  1  -0.00010234  0.71172937  0.75160937  1
  S  S63  1  0.50387547  0.71526648  0.75038020  1
  S  S64  1  0.85565087  0.99965839  0.75035744  1
  S  S65  1  0.98256223  0.34035967  0.58428416  1
  S  S66  1  0.18857940  0.03812578  0.58353112  1
  S  S67  1  0.32829331  0.61856517  0.58377127  1
  S  S68  1  0.48185175  0.62393542  0.08320534  1
  S  S69  1  0.82956292  0.04005708  0.08302840  1
  S  S70  1  0.68714230  0.33680651  0.08257177  1
  S  S71  1  0.31322392  0.66524526  0.91580504  1
  S  S72  1  0.02106888  0.37531244  0.91572348  1
  S  S73  1  0.52217494  0.37962262  0.91604340  1
  S  S74  1  0.16767405  0.95896632  0.91503959  1
  S  S75  1  0.81219144  0.95958854  0.41629435  1
  S  S76  1  0.66620086  0.37602838  0.41508816  1
  S  S77  1  0.52103846  0.66669803  0.41581083  1
  O  O78  1  0.09972813  0.01560830  0.30405653  1
  O  O79  1  0.59078233  0.01964680  0.30690036  1
  O  O80  1  0.41036743  0.80748984  0.30243916  1
  O  O81  1  0.91837060  0.82318415  0.30883647  1
  O  O82  1  0.48781793  0.17866286  0.30501436  1
  O  O83  1  0.99807093  0.18232145  0.30266991  1
  O  O84  1  0.09079520  0.16207117  0.80709963  1
  O  O85  1  0.59859430  0.18114780  0.80477829  1
  O  O86  1  0.49791939  0.81319962  0.80364946  1
  O  O87  1  0.98801109  0.79805600  0.80536759  1
  O  O88  1  0.41853395  0.01399636  0.80918975  1
  O  O89  1  0.90953905  0.01181916  0.80332115  1
  O  O90  1  0.40370339  0.96768459  0.69377417  1
  O  O91  1  0.89455061  0.97292990  0.69495440  1
  O  O92  1  0.08074313  0.18993041  0.69236508  1
  O  O93  1  0.59234790  0.20865166  0.69623110  1
  O  O94  1  0.01272447  0.82095809  0.69766716  1
  O  O95  1  0.51750471  0.81856180  0.69537190  1
  O  O96  1  0.39772493  0.81926331  0.19385322  1
  O  O97  1  0.90284608  0.83782852  0.19338896  1
  O  O98  1  0.01541674  0.21003256  0.19378115  1
  O  O99  1  0.51208757  0.20334634  0.19736397  1
  O  O100  1  0.09233728  0.97889594  0.19528556  1
  O  O101  1  0.58068627  0.97177703  0.19201027  1
  O  O102  1  0.43420160  0.38361584  0.64122336  1
  O  O103  1  0.94588125  0.36457852  0.63968234  1
  O  O104  1  0.23846067  0.11421446  0.63734198  1
  O  O105  1  0.75127668  0.11326276  0.64215054  1
  O  O106  1  0.31498117  0.52085435  0.63859873  1
  O  O107  1  0.81602880  0.51130270  0.64435070  1
  O  O108  1  0.44577146  0.52484553  0.13823388  1
  O  O109  1  0.93232676  0.48253411  0.13961188  1
  O  O110  1  0.31712408  0.12496465  0.14266626  1
  O  O111  1  0.81261114  0.10524709  0.13743785  1
  O  O112  1  0.25284499  0.38914939  0.14125298  1
  O  O113  1  0.73866871  0.36800615  0.13612675  1
  O  O114  1  0.23697548  0.29490988  0.02751990  1
  O  O115  1  0.72610379  0.30437075  0.02817341  1
  O  O116  1  0.42337602  0.54010914  0.03002537  1
  O  O117  1  0.91073587  0.52120965  0.02474113  1
  O  O118  1  0.35373173  0.17279379  0.02566175  1
  O  O119  1  0.84336186  0.14887914  0.02958618  1
  O  O120  1  0.22601529  0.14672912  0.52901531  1
  O  O121  1  0.73728606  0.18004166  0.52732588  1
  O  O122  1  0.34448811  0.54004456  0.53062465  1
  O  O123  1  0.85481972  0.53950881  0.52668538  1
  O  O124  1  0.41089971  0.30261439  0.52537733  1
  O  O125  1  0.92446459  0.30526231  0.53162511  1
  O  O126  1  0.27699058  0.69596716  0.97039278  1
  O  O127  1  0.76398214  0.69613927  0.97295454  1
  O  O128  1  0.07195779  0.44388996  0.97076367  1
  O  O129  1  0.57648839  0.46125155  0.97008147  1
  O  O130  1  0.15320609  0.86152169  0.97083223  1
  O  O131  1  0.65042574  0.82987151  0.97387527  1
  O  O132  1  0.26782318  0.83431780  0.47369695  1
  O  O133  1  0.77549470  0.85380058  0.47037509  1
  O  O134  1  0.15039586  0.46958976  0.47416408  1
  O  O135  1  0.65169352  0.44464673  0.47071670  1
  O  O136  1  0.08237192  0.69534239  0.47447643  1
  O  O137  1  0.57152503  0.69932278  0.47077869  1
  O  O138  1  0.06730969  0.63276013  0.35861600  1
  O  O139  1  0.56427902  0.64089670  0.36354826  1
  O  O140  1  0.24971072  0.86203164  0.35665223  1
  O  O141  1  0.75415594  0.86609181  0.36332015  1
  O  O142  1  0.18436482  0.50284774  0.35860927  1
  O  O143  1  0.67655273  0.48616184  0.36296507  1
  O  O144  1  0.06443727  0.48825810  0.86360319  1
  O  O145  1  0.56474807  0.48760308  0.86237938  1
  O  O146  1  0.17842985  0.87108291  0.86317917  1
  O  O147  1  0.67973764  0.85772336  0.85952328  1
  O  O148  1  0.25539868  0.64010778  0.86335060  1
  O  O149  1  0.74986166  0.63969809  0.85745024  1
  O  O150  1  0.00974085  0.83490887  0.40934550  1
  O  O151  1  0.50939980  0.82387708  0.40735892  1
  O  O152  1  0.41136809  0.97846312  0.40634944  1
  O  O153  1  0.90123927  0.98194823  0.40773105  1
  O  O154  1  0.07968370  0.18303563  0.40757758  1
  O  O155  1  0.58669213  0.19517566  0.40747092  1
  O  O156  1  0.00934764  0.19505086  0.90707737  1
  O  O157  1  0.51326827  0.20319053  0.91070203  1
  O  O158  1  0.08850999  0.98181291  0.90776475  1
  O  O159  1  0.57918421  0.97919810  0.90854812  1
  O  O160  1  0.40273423  0.82370198  0.90726700  1
  O  O161  1  0.91108265  0.84496776  0.90771521  1
  O  O162  1  0.48207227  0.15313843  0.59159277  1
  O  O163  1  0.98764268  0.17175447  0.58865748  1
  O  O164  1  0.09720193  0.02023357  0.58893476  1
  O  O165  1  0.58991545  0.02885881  0.59254791  1
  O  O166  1  0.41436914  0.79841008  0.58814883  1
  O  O167  1  0.92560939  0.83101555  0.59364328  1
  O  O168  1  0.48819804  0.80132225  0.08676661  1
  O  O169  1  0.98302515  0.81382329  0.09230749  1
  O  O170  1  0.42589326  0.02014031  0.09184232  1
  O  O171  1  0.91268118  0.02799340  0.08694997  1
  O  O172  1  0.08968585  0.15245915  0.09110927  1
  O  O173  1  0.59717478  0.17330088  0.08821256  1
  O  O174  1  0.34734715  0.17129373  0.75111029  1
  O  O175  1  0.84847930  0.15737536  0.74889497  1
  O  O176  1  0.24224989  0.31828890  0.74581509  1
  O  O177  1  0.73186395  0.30984427  0.75027897  1
  O  O178  1  0.42326120  0.54538364  0.75059929  1
  O  O179  1  0.92252743  0.53561941  0.74764921  1
  O  O180  1  0.35128823  0.54180309  0.24740166  1
  O  O181  1  0.84601654  0.52275088  0.25103889  1
  O  O182  1  0.42240024  0.30942665  0.24690495  1
  O  O183  1  0.92420474  0.30187891  0.24836334  1
  O  O184  1  0.23212075  0.15642395  0.24891745  1
  O  O185  1  0.74220022  0.16611588  0.24520759  1
  O  O186  1  0.32305709  0.50783733  0.92014928  1
  O  O187  1  0.82054147  0.49484506  0.92234638  1
  O  O188  1  0.43406654  0.36370853  0.92196347  1
  O  O189  1  0.93116065  0.35294300  0.92075397  1
  O  O190  1  0.24865491  0.13951939  0.91960111  1
  O  O191  1  0.75478428  0.14933858  0.92633718  1
  O  O192  1  0.32188562  0.14712990  0.42256223  1
  O  O193  1  0.81879978  0.13227565  0.41996660  1
  O  O194  1  0.25424886  0.35775183  0.42762793  1
  O  O195  1  0.74629526  0.35746830  0.41914542  1
  O  O196  1  0.43103257  0.50940534  0.42050004  1
  O  O197  1  0.92211913  0.48229919  0.42507172  1
  O  O198  1  0.17169744  0.49562207  0.07442463  1
  O  O199  1  0.67274215  0.48826370  0.07272656  1
  O  O200  1  0.07273180  0.65698253  0.07565573  1
  O  O201  1  0.57046974  0.64589994  0.07389968  1
  O  O202  1  0.25467506  0.85321408  0.07472341  1
  O  O203  1  0.75215622  0.85475080  0.07438275  1
  O  O204  1  0.17511931  0.85952751  0.57622568  1
  O  O205  1  0.67065540  0.84812348  0.57460805  1
  O  O206  1  0.25348311  0.65099900  0.57633422  1
  O  O207  1  0.75449347  0.65719731  0.57562049  1
  O  O208  1  0.07180682  0.49179697  0.57651189  1
  O  O209  1  0.57298738  0.48907783  0.57580754  1
  O  O210  1  0.15038779  0.83535165  0.25407092  1
  O  O211  1  0.64700964  0.81656794  0.25997567  1
  O  O212  1  0.26810621  0.69725058  0.25341870  1
  O  O213  1  0.75878454  0.69807747  0.26019193  1
  O  O214  1  0.08520702  0.46830445  0.25416023  1
  O  O215  1  0.58208203  0.46180337  0.25704772  1
  O  O216  1  0.14749243  0.47775201  0.76016405  1
  O  O217  1  0.64885056  0.46488689  0.75728619  1
  O  O218  1  0.08213089  0.70232682  0.75807288  1
  O  O219  1  0.58350868  0.69610338  0.75781021  1
  O  O220  1  0.25940457  0.82101261  0.76068331  1
  O  O221  1  0.76624736  0.83665121  0.75611050  1
