# generated using pymatgen
data_MgFe6(O2F)4
_symmetry_space_group_name_H-M   'P 1'
_cell_length_a   5.09340524
_cell_length_b   5.14409088
_cell_length_c   8.92665759
_cell_angle_alpha   91.98137624
_cell_angle_beta   89.56505074
_cell_angle_gamma   101.42578483
_symmetry_Int_Tables_number   1
_chemical_formula_structural   MgFe6(O2F)4
_chemical_formula_sum   'Mg1 Fe6 O8 F4'
_cell_volume   229.11454375
_cell_formula_units_Z   1
loop_
 _symmetry_equiv_pos_site_id
 _symmetry_equiv_pos_as_xyz
  1  'x, y, z'
loop_
 _atom_site_type_symbol
 _atom_site_label
 _atom_site_symmetry_multiplicity
 _atom_site_fract_x
 _atom_site_fract_y
 _atom_site_fract_z
 _atom_site_occupancy
  Mg  Mg0  1  0.50064118  0.00298170  0.33758259  1
  Fe  Fe1  1  0.98245320  0.02988882  0.00616947  1
  Fe  Fe2  1  0.00006234  0.00159686  0.33368720  1
  Fe  Fe3  1  0.01635321  0.97297008  0.66070785  1
  Fe  Fe4  1  0.57126839  0.45709347  0.16143371  1
  Fe  Fe5  1  0.53605498  0.46317368  0.83455972  1
  Fe  Fe6  1  0.42479538  0.54853795  0.51485910  1
  O  O7  1  0.20820950  0.83251049  0.48847275  1
  O  O8  1  0.31077942  0.30372026  0.00452457  1
  O  O9  1  0.31578481  0.30089692  0.33807017  1
  O  O10  1  0.27818073  0.31109447  0.67277849  1
  O  O11  1  0.72826228  0.68565016  0.00188324  1
  O  O12  1  0.68394159  0.70405221  0.33707545  1
  O  O13  1  0.69437226  0.69307679  0.66908677  1
  O  O14  1  0.79197971  0.16978478  0.18348250  1
  F  F15  1  0.20181507  0.84921257  0.17364651  1
  F  F16  1  0.16913807  0.84844349  0.83666262  1
  F  F17  1  0.79725586  0.18510112  0.83824657  1
  F  F18  1  0.80254103  0.15410316  0.49992571  1
