# generated using pymatgen
data_Na8Hf2Sc2Si5SO24
_symmetry_space_group_name_H-M   'P 1'
_cell_length_a   9.24620605
_cell_length_b   9.23039521
_cell_length_c   22.53443923
_cell_angle_alpha   90.03271713
_cell_angle_beta   89.83105626
_cell_angle_gamma   119.94760674
_symmetry_Int_Tables_number   1
_chemical_formula_structural   Na8Hf2Sc2Si5SO24
_chemical_formula_sum   'Na24 Hf6 Sc6 Si15 S3 O72'
_cell_volume   1666.43420418
_cell_formula_units_Z   3
loop_
 _symmetry_equiv_pos_site_id
 _symmetry_equiv_pos_as_xyz
  1  'x, y, z'
loop_
 _atom_site_type_symbol
 _atom_site_label
 _atom_site_symmetry_multiplicity
 _atom_site_fract_x
 _atom_site_fract_y
 _atom_site_fract_z
 _atom_site_occupancy
  Na  Na0  1  0.64554196  0.00407553  0.25330174  1
  Na  Na1  1  0.35419815  0.35861228  0.24621217  1
  Na  Na2  1  0.99993124  0.64001231  0.24970000  1
  Na  Na3  1  0.63697497  0.63666952  0.74622575  1
  Na  Na4  1  0.99525960  0.35858954  0.74988582  1
  Na  Na5  1  0.36667269  0.00679472  0.74974015  1
  Na  Na6  1  0.30109435  0.34021285  0.58685821  1
  Na  Na7  1  0.03880656  0.70029854  0.58215876  1
  Na  Na8  1  0.66303142  0.95959100  0.58268564  1
  Na  Na9  1  0.28200952  0.96344112  0.07981249  1
  Na  Na10  1  0.67010875  0.68981526  0.08822141  1
  Na  Na11  1  0.04864094  0.33864749  0.08735977  1
  Na  Na12  1  0.97904020  0.66935961  0.91620001  1
  Na  Na13  1  0.70622064  0.04889267  0.90772467  1
  Na  Na14  1  0.31772416  0.27992554  0.91898349  1
  Na  Na15  1  0.95828966  0.29269775  0.41035742  1
  Na  Na16  1  0.32532998  0.01601553  0.41547585  1
  Na  Na17  1  0.71719209  0.68572086  0.41861969  1
  Na  Na18  1  0.98868944  0.98646731  0.50066396  1
  Na  Na19  1  0.02431185  0.00949169  0.99966383  1
  Na  Na20  1  0.66775814  0.32251932  0.83236176  1
  Na  Na21  1  0.67633374  0.33012888  0.33202822  1
  Na  Na22  1  0.32305050  0.65218427  0.16553869  1
  Na  Na23  1  0.33591981  0.66633661  0.66242145  1
  Hf  Hf24  1  0.99986712  0.00026276  0.64838983  1
  Hf  Hf25  1  0.66894340  0.33403022  0.68519924  1
  Hf  Hf26  1  0.66869304  0.34301845  0.18627930  1
  Hf  Hf27  1  0.67490204  0.33161819  0.48393991  1
  Hf  Hf28  1  0.32975101  0.67443745  0.31361874  1
  Hf  Hf29  1  0.32269746  0.66906795  0.81239543  1
  Sc  Sc30  1  0.99329468  0.99184331  0.34767939  1
  Sc  Sc31  1  0.00969602  0.00712846  0.84889579  1
  Sc  Sc32  1  0.00788484  0.99935893  0.15159030  1
  Sc  Sc33  1  0.66446922  0.33564990  0.98143331  1
  Sc  Sc34  1  0.31152020  0.65343733  0.01796189  1
  Sc  Sc35  1  0.33667319  0.68071497  0.52105772  1
  Si  Si36  1  0.29715349  0.00289058  0.25064866  1
  Si  Si37  1  0.70231408  0.70569225  0.24939011  1
  Si  Si38  1  0.00007393  0.29355246  0.24996131  1
  Si  Si39  1  0.29764751  0.29712640  0.75031129  1
  Si  Si40  1  0.99612377  0.70622239  0.75133415  1
  Si  Si41  1  0.70607361  0.99869448  0.75172127  1
  Si  Si42  1  0.96518080  0.33230286  0.58401029  1
  Si  Si43  1  0.37213959  0.04285351  0.58328186  1
  Si  Si44  1  0.66624772  0.62709423  0.58298426  1
  Si  Si45  1  0.96046167  0.63125406  0.08178305  1
  Si  Si46  1  0.37087016  0.33511033  0.08200074  1
  Si  Si47  1  0.03296837  0.36478979  0.91711818  1
  Si  Si48  1  0.33463633  0.96337101  0.91846597  1
  Si  Si49  1  0.63110063  0.96378532  0.41753897  1
  Si  Si50  1  0.03547756  0.66708226  0.41822852  1
  S  S51  1  0.66759949  0.04109338  0.08270362  1
  S  S52  1  0.62280482  0.66735250  0.91739016  1
  S  S53  1  0.33461176  0.37527696  0.41710244  1
  O  O54  1  0.21793002  0.04129158  0.30910924  1
  O  O55  1  0.82046361  0.78526469  0.30772676  1
  O  O56  1  0.96680459  0.17851302  0.30894601  1
  O  O57  1  0.21633235  0.17975602  0.80873799  1
  O  O58  1  0.96304738  0.78727549  0.81000208  1
  O  O59  1  0.82169282  0.03214817  0.80997720  1
  O  O60  1  0.79447177  0.96822604  0.69308437  1
  O  O61  1  0.17549659  0.21021707  0.69244228  1
  O  O62  1  0.03003901  0.82587219  0.69302323  1
  O  O63  1  0.78187705  0.82375935  0.19107977  1
  O  O64  1  0.03368690  0.21138700  0.19119165  1
  O  O65  1  0.17890924  0.96389323  0.19240770  1
  O  O66  1  0.87431324  0.36216793  0.64129830  1
  O  O67  1  0.49119888  0.13416534  0.64062683  1
  O  O68  1  0.64145375  0.50998503  0.64100999  1
  O  O69  1  0.86843617  0.50955033  0.13997984  1
  O  O70  1  0.64394130  0.12186184  0.13673476  1
  O  O71  1  0.48835669  0.35374065  0.14032800  1
  O  O72  1  0.45889188  0.30429648  0.02394306  1
  O  O73  1  0.84490962  0.53782311  0.02394053  1
  O  O74  1  0.68848996  0.14372385  0.02959980  1
  O  O75  1  0.46152880  0.16071804  0.52436070  1
  O  O76  1  0.69495467  0.53655045  0.52426073  1
  O  O77  1  0.84340695  0.30083884  0.52566219  1
  O  O78  1  0.54264889  0.68751021  0.97100817  1
  O  O79  1  0.15115005  0.45106004  0.97561479  1
  O  O80  1  0.31446524  0.84845648  0.97672851  1
  O  O81  1  0.54385394  0.84587938  0.47530119  1
  O  O82  1  0.31452623  0.45594412  0.47048422  1
  O  O83  1  0.15060976  0.68906125  0.47578256  1
  O  O84  1  0.12489428  0.63507354  0.35966678  1
  O  O85  1  0.51121853  0.86886399  0.35942171  1
  O  O86  1  0.35623480  0.47842837  0.36320851  1
  O  O87  1  0.13194500  0.48775837  0.85964801  1
  O  O88  1  0.36160433  0.87002189  0.85982812  1
  O  O89  1  0.51997262  0.64683834  0.86362692  1
  O  O90  1  0.02158338  0.83726102  0.41338488  1
  O  O91  1  0.82043713  0.99189611  0.41269324  1
  O  O92  1  0.18612400  0.20741498  0.41234469  1
  O  O93  1  0.00983948  0.17696196  0.91343934  1
  O  O94  1  0.16204605  0.97334584  0.91471897  1
  O  O95  1  0.79082443  0.81652533  0.91269505  1
  O  O96  1  0.97540983  0.16056776  0.58787027  1
  O  O97  1  0.18745312  0.02648642  0.58768593  1
  O  O98  1  0.83664042  0.81141698  0.58760284  1
  O  O99  1  0.97305261  0.81497898  0.08631035  1
  O  O100  1  0.81961709  0.02688677  0.08743752  1
  O  O101  1  0.18263417  0.17095446  0.08673694  1
  O  O102  1  0.68302560  0.16385273  0.74491570  1
  O  O103  1  0.48372801  0.31731661  0.74373453  1
  O  O104  1  0.83393573  0.51802913  0.74484709  1
  O  O105  1  0.68301442  0.51721414  0.24369886  1
  O  O106  1  0.83275135  0.31402223  0.24341620  1
  O  O107  1  0.48738463  0.16258672  0.24249789  1
  O  O108  1  0.63777480  0.51360386  0.91995782  1
  O  O109  1  0.85066473  0.35562560  0.91986731  1
  O  O110  1  0.50200069  0.15082976  0.91975528  1
  O  O111  1  0.63827084  0.14802312  0.41989231  1
  O  O112  1  0.48916093  0.36080132  0.41987912  1
  O  O113  1  0.84613828  0.49799804  0.42036473  1
  O  O114  1  0.36658519  0.51195121  0.08048853  1
  O  O115  1  0.14831355  0.65083814  0.08124560  1
  O  O116  1  0.51778472  0.87228895  0.07888329  1
  O  O117  1  0.35466989  0.85755471  0.58054436  1
  O  O118  1  0.49853204  0.64276930  0.57901012  1
  O  O119  1  0.14997853  0.49572461  0.57818757  1
  O  O120  1  0.31606870  0.83364155  0.25652015  1
  O  O121  1  0.51231965  0.67577037  0.25815481  1
  O  O122  1  0.16755591  0.48118302  0.25678695  1
  O  O123  1  0.31976943  0.48502842  0.75659353  1
  O  O124  1  0.16658410  0.68908481  0.75493155  1
  O  O125  1  0.52056180  0.82903041  0.75649752  1
