# generated using pymatgen
data_Li3VF6
_symmetry_space_group_name_H-M   'P 1'
_cell_length_a   8.28872097
_cell_length_b   8.28872097
_cell_length_c   9.95288769
_cell_angle_alpha   84.11047933
_cell_angle_beta   84.11047933
_cell_angle_gamma   62.68621560
_symmetry_Int_Tables_number   1
_chemical_formula_structural   Li3VF6
_chemical_formula_sum   'Li18 V6 F36'
_cell_volume   603.15327384
_cell_formula_units_Z   6
loop_
 _symmetry_equiv_pos_site_id
 _symmetry_equiv_pos_as_xyz
  1  'x, y, z'
loop_
 _atom_site_type_symbol
 _atom_site_label
 _atom_site_symmetry_multiplicity
 _atom_site_fract_x
 _atom_site_fract_y
 _atom_site_fract_z
 _atom_site_occupancy
  Li  Li0  1  0.81405891  0.18594109  0.25000000  1
  Li  Li1  1  0.99165132  0.29434445  0.72525674  1
  Li  Li2  1  0.70565555  0.00834868  0.77474326  1
  Li  Li3  1  0.00834868  0.70565555  0.27474326  1
  Li  Li4  1  0.29434445  0.99165132  0.22525674  1
  Li  Li5  1  0.67250083  0.36778771  0.97838843  1
  Li  Li6  1  0.63221229  0.32749917  0.52161157  1
  Li  Li7  1  0.18594109  0.81405891  0.75000000  1
  Li  Li8  1  0.65190856  0.94369705  0.42968548  1
  Li  Li9  1  0.05630295  0.34809144  0.07031452  1
  Li  Li10  1  0.34809144  0.05630295  0.57031452  1
  Li  Li11  1  0.94369705  0.65190856  0.92968548  1
  Li  Li12  1  0.52658607  0.13703558  0.04649343  1
  Li  Li13  1  0.86296442  0.47341393  0.45350657  1
  Li  Li14  1  0.47341393  0.86296442  0.95350657  1
  Li  Li15  1  0.13703558  0.52658607  0.54649343  1
  Li  Li16  1  0.36778771  0.67250083  0.47838843  1
  Li  Li17  1  0.32749917  0.63221229  0.02161157  1
  V  V18  1  0.66213442  0.65958530  0.20995072  1
  V  V19  1  0.34041470  0.33786558  0.29004928  1
  V  V20  1  0.33786558  0.34041470  0.79004928  1
  V  V21  1  0.65958530  0.66213442  0.70995072  1
  V  V22  1  -0.00000000  -0.00000000  0.50000000  1
  V  V23  1  -0.00000000  -0.00000000  0.00000000  1
  F  F24  1  0.92009611  0.93099316  0.17281807  1
  F  F25  1  0.58764834  0.89800448  0.61103341  1
  F  F26  1  0.10199552  0.41235166  0.88896659  1
  F  F27  1  0.93099316  0.92009611  0.67281807  1
  F  F28  1  0.07990389  0.06900684  0.82718193  1
  F  F29  1  0.06900684  0.07990389  0.32718193  1
  F  F30  1  0.57407742  0.25106589  0.18792851  1
  F  F31  1  0.74893411  0.42592258  0.31207149  1
  F  F32  1  0.42592258  0.74893411  0.81207149  1
  F  F33  1  0.25106589  0.57407742  0.68792851  1
  F  F34  1  0.43383340  0.09976044  0.88408270  1
  F  F35  1  0.90023956  0.56616660  0.61591730  1
  F  F36  1  0.56616660  0.90023956  0.11591730  1
  F  F37  1  0.09976044  0.43383340  0.38408270  1
  F  F38  1  0.56709242  0.24140461  0.68777909  1
  F  F39  1  0.75859539  0.43290758  0.81222091  1
  F  F40  1  0.43290758  0.75859539  0.31222091  1
  F  F41  1  0.24140461  0.56709242  0.18777909  1
  F  F42  1  0.77136845  0.72735330  0.34910667  1
  F  F43  1  0.27264670  0.22863155  0.15089333  1
  F  F44  1  0.22863155  0.27264670  0.65089333  1
  F  F45  1  0.72735330  0.77136845  0.84910667  1
  F  F46  1  0.91444927  0.24175550  0.56147418  1
  F  F47  1  0.75824450  0.08555073  0.93852582  1
  F  F48  1  0.08555073  0.75824450  0.43852582  1
  F  F49  1  0.24175550  0.91444927  0.06147418  1
  F  F50  1  0.75345609  0.09840204  0.43057928  1
  F  F51  1  0.90159796  0.24654391  0.06942072  1
  F  F52  1  0.24654391  0.90159796  0.56942072  1
  F  F53  1  0.09840204  0.75345609  0.93057928  1
  F  F54  1  0.43293769  0.40531628  0.93730893  1
  F  F55  1  0.59468372  0.56706231  0.56269107  1
  F  F56  1  0.56706231  0.59468372  0.06269107  1
  F  F57  1  0.40531628  0.43293769  0.43730893  1
  F  F58  1  0.41235166  0.10199552  0.38896659  1
  F  F59  1  0.89800448  0.58764834  0.11103341  1
