# generated using pymatgen
data_Na15Ca7Nb5Si9(SO8)9
_symmetry_space_group_name_H-M   'P 1'
_cell_length_a   9.26400060
_cell_length_b   9.24024952
_cell_length_c   22.99320169
_cell_angle_alpha   89.31600927
_cell_angle_beta   90.26173384
_cell_angle_gamma   119.61197341
_symmetry_Int_Tables_number   1
_chemical_formula_structural   Na15Ca7Nb5Si9(SO8)9
_chemical_formula_sum   'Na15 Ca7 Nb5 Si9 S9 O72'
_cell_volume   1711.06201713
_cell_formula_units_Z   1
loop_
 _symmetry_equiv_pos_site_id
 _symmetry_equiv_pos_as_xyz
  1  'x, y, z'
loop_
 _atom_site_type_symbol
 _atom_site_label
 _atom_site_symmetry_multiplicity
 _atom_site_fract_x
 _atom_site_fract_y
 _atom_site_fract_z
 _atom_site_occupancy
  Na  Na0  1  0.63593221  0.99651204  0.23514613  1
  Na  Na1  1  0.98417437  0.64994646  0.24981789  1
  Na  Na2  1  0.65855480  0.64068714  0.75926483  1
  Na  Na3  1  0.33125416  0.99296630  0.74180790  1
  Na  Na4  1  0.98932024  0.69384830  0.91384434  1
  Na  Na5  1  0.69254160  0.98647845  0.92246306  1
  Na  Na6  1  0.30942436  0.31503435  0.92317951  1
  Na  Na7  1  0.30054773  0.00040475  0.40972908  1
  Na  Na8  1  0.69524818  0.68375441  0.40391660  1
  Na  Na9  1  0.02492084  0.02258083  0.49538043  1
  Na  Na10  1  0.00240755  0.00121206  0.99118847  1
  Na  Na11  1  0.70816449  0.36097816  0.82924634  1
  Na  Na12  1  0.62161153  0.32137966  0.31814802  1
  Na  Na13  1  0.36220412  0.67903305  0.15570124  1
  Na  Na14  1  0.28821428  0.64691078  0.66789038  1
  Ca  Ca15  1  0.00690382  0.00992156  0.35096598  1
  Ca  Ca16  1  0.99909522  0.00047891  0.84564477  1
  Ca  Ca17  1  0.01037728  0.99303067  0.64657154  1
  Ca  Ca18  1  0.68077878  0.33578813  0.68373721  1
  Ca  Ca19  1  0.65187362  0.32730109  0.18312716  1
  Ca  Ca20  1  0.33633944  0.67274552  0.02025937  1
  Ca  Ca21  1  0.32705774  0.66509597  0.52013694  1
  Nb  Nb22  1  0.98999389  0.98090154  0.14842066  1
  Nb  Nb23  1  0.66100058  0.31502433  0.97992065  1
  Nb  Nb24  1  0.67365564  0.34457959  0.47599921  1
  Nb  Nb25  1  0.31945230  0.64937925  0.31153185  1
  Nb  Nb26  1  0.32228166  0.66455248  0.82516315  1
  Si  Si27  1  0.29456872  0.99057053  0.25477662  1
  Si  Si28  1  0.69359967  0.70304865  0.25607786  1
  Si  Si29  1  0.01283413  0.69449949  0.75584051  1
  Si  Si30  1  0.68146208  0.03888776  0.09143897  1
  Si  Si31  1  0.62541336  0.65750367  0.91732501  1
  Si  Si32  1  0.02992512  0.36635679  0.92505540  1
  Si  Si33  1  0.33171850  0.96704366  0.91914548  1
  Si  Si34  1  0.33700085  0.37329695  0.42058379  1
  Si  Si35  1  0.03918045  0.66472014  0.41665495  1
  S  S36  1  0.01423827  0.30454960  0.24761905  1
  S  S37  1  0.30673549  0.32014222  0.75086370  1
  S  S38  1  0.67657342  0.98206439  0.75226713  1
  S  S39  1  0.95397555  0.31985924  0.58012952  1
  S  S40  1  0.37844776  0.04895579  0.58093109  1
  S  S41  1  0.67815089  0.63140283  0.57948258  1
  S  S42  1  0.95598459  0.63515685  0.08618009  1
  S  S43  1  0.35454875  0.30820264  0.08136136  1
  S  S44  1  0.61704387  0.96910279  0.41548289  1
  O  O45  1  0.21879963  0.00273560  0.31528734  1
  O  O46  1  0.78681216  0.79601775  0.31340769  1
  O  O47  1  0.98397791  0.21070850  0.30170532  1
  O  O48  1  0.23076411  0.23312340  0.80588741  1
  O  O49  1  0.99701430  0.77126045  0.81658147  1
  O  O50  1  0.76451391  0.00550095  0.80808981  1
  O  O51  1  0.77474210  0.97660768  0.70271093  1
  O  O52  1  0.20395411  0.23407636  0.69991863  1
  O  O53  1  0.06350227  0.82869886  0.70202956  1
  O  O54  1  0.81034278  0.83835840  0.19794077  1
  O  O55  1  0.03258585  0.21572038  0.19687203  1
  O  O56  1  0.15996682  0.97274926  0.19939470  1
  O  O57  1  0.87265936  0.31461823  0.63519376  1
  O  O58  1  0.45280731  0.13177714  0.63623744  1
  O  O59  1  0.67567294  0.54427294  0.63349284  1
  O  O60  1  0.87567745  0.55066344  0.14058572  1
  O  O61  1  0.68591889  0.12935153  0.15007126  1
  O  O62  1  0.45097103  0.32400693  0.13336394  1
  O  O63  1  0.44908712  0.30088811  0.02743189  1
  O  O64  1  0.85279983  0.55232122  0.03380958  1
  O  O65  1  0.69182900  0.17084745  0.03361440  1
  O  O66  1  0.49111867  0.15449883  0.52997722  1
  O  O67  1  0.67363260  0.51939151  0.52726143  1
  O  O68  1  0.84724242  0.32796147  0.52994790  1
  O  O69  1  0.54166402  0.71033790  0.96631497  1
  O  O70  1  0.15231934  0.43254625  0.97820584  1
  O  O71  1  0.26889934  0.83611348  0.97081251  1
  O  O72  1  0.54839934  0.87199815  0.46840299  1
  O  O73  1  0.34817454  0.47675640  0.47544645  1
  O  O74  1  0.17348556  0.72329459  0.46658719  1
  O  O75  1  0.13225463  0.62976172  0.35715523  1
  O  O76  1  0.50786681  0.88325964  0.36306923  1
  O  O77  1  0.35878770  0.49780631  0.36034132  1
  O  O78  1  0.13748388  0.50581129  0.86846453  1
  O  O79  1  0.36857589  0.87021342  0.86076601  1
  O  O80  1  0.50440814  0.62543513  0.85537967  1
  O  O81  1  0.97654982  0.79769103  0.40969658  1
  O  O82  1  0.78803637  0.00575652  0.40729927  1
  O  O83  1  0.19362250  0.18350026  0.41756457  1
  O  O84  1  0.97158108  0.17809405  0.90806773  1
  O  O85  1  0.20761522  0.03744047  0.90674456  1
  O  O86  1  0.81507446  0.80390858  0.90886911  1
  O  O87  1  0.96351613  0.16654054  0.57204527  1
  O  O88  1  0.21588145  0.04008742  0.57172270  1
  O  O89  1  0.83512609  0.78941331  0.57203775  1
  O  O90  1  0.96594830  0.80881417  0.08786550  1
  O  O91  1  0.86610435  0.03642957  0.09312438  1
  O  O92  1  0.19430132  0.14402791  0.08301841  1
  O  O93  1  0.62777783  0.11340467  0.74634017  1
  O  O94  1  0.47549048  0.33313651  0.74667110  1
  O  O95  1  0.84516035  0.51505241  0.74821873  1
  O  O96  1  0.68759657  0.52846109  0.24782886  1
  O  O97  1  0.88510073  0.35259025  0.24047288  1
  O  O98  1  0.48560954  0.13109429  0.24731029  1
  O  O99  1  0.61853509  0.47285368  0.92866669  1
  O  O100  1  0.85731785  0.38539602  0.93130902  1
  O  O101  1  0.52561187  0.13590466  0.92779448  1
  O  O102  1  0.61513262  0.13448897  0.41924435  1
  O  O103  1  0.52473407  0.36859645  0.42188887  1
  O  O104  1  0.85757727  0.48020518  0.42761380  1
  O  O105  1  0.32328959  0.44776214  0.07738740  1
  O  O106  1  0.12513238  0.66383596  0.08308550  1
  O  O107  1  0.53090897  0.85410806  0.08459381  1
  O  O108  1  0.36554397  0.88372981  0.58132648  1
  O  O109  1  0.53232468  0.65238254  0.57699192  1
  O  O110  1  0.11813393  0.47152905  0.57921627  1
  O  O111  1  0.28827405  0.80237744  0.25539520  1
  O  O112  1  0.51129545  0.70073582  0.25559603  1
  O  O113  1  0.18005429  0.46873804  0.25111890  1
  O  O114  1  0.33461184  0.49505818  0.75197152  1
  O  O115  1  0.18800975  0.67375790  0.76053280  1
  O  O116  1  0.51664106  0.81575163  0.75352640  1
