# generated using pymatgen
data_Na6CaHf7(PO4)12
_symmetry_space_group_name_H-M   'P 1'
_cell_length_a   17.92254618
_cell_length_b   8.95013511
_cell_length_c   22.94075422
_cell_angle_alpha   90.03315264
_cell_angle_beta   89.94747182
_cell_angle_gamma   119.95378341
_symmetry_Int_Tables_number   1
_chemical_formula_structural   Na6CaHf7(PO4)12
_chemical_formula_sum   'Na18 Ca3 Hf21 P36 O144'
_cell_volume   3188.37579236
_cell_formula_units_Z   3
loop_
 _symmetry_equiv_pos_site_id
 _symmetry_equiv_pos_as_xyz
  1  'x, y, z'
loop_
 _atom_site_type_symbol
 _atom_site_label
 _atom_site_symmetry_multiplicity
 _atom_site_fract_x
 _atom_site_fract_y
 _atom_site_fract_z
 _atom_site_occupancy
  Na  Na0  1  0.68864178  0.37101070  0.24319461  1
  Na  Na1  1  0.99544405  0.62559472  0.24348930  1
  Na  Na2  1  0.99448616  0.36259453  0.73981049  1
  Na  Na3  1  0.49472108  0.36266960  0.73992852  1
  Na  Na4  1  0.18851462  0.00682039  0.73968756  1
  Na  Na5  1  0.68869964  0.00732560  0.73981740  1
  Na  Na6  1  0.99995467  0.99955435  0.50122256  1
  Na  Na7  1  0.50037362  0.00028806  0.50111981  1
  Na  Na8  1  0.99820172  0.99621403  0.00311531  1
  Na  Na9  1  0.50232783  0.00475191  0.00229360  1
  Na  Na10  1  0.33295065  0.35102311  0.83044165  1
  Na  Na11  1  0.83275189  0.35107615  0.83219162  1
  Na  Na12  1  0.33318562  0.33427756  0.33678402  1
  Na  Na13  1  0.83298717  0.31240778  0.33215641  1
  Na  Na14  1  0.17222907  0.66358502  0.16527598  1
  Na  Na15  1  0.67164117  0.69294525  0.16376447  1
  Na  Na16  1  0.17681391  0.66397733  0.65728567  1
  Na  Na17  1  0.67689695  0.66439292  0.65730398  1
  Ca  Ca18  1  0.33307056  0.34356637  0.68079364  1
  Ca  Ca19  1  0.83293637  0.34355093  0.68091222  1
  Ca  Ca20  1  0.83277156  0.32200286  0.18227108  1
  Hf  Hf21  1  0.00248294  0.00480590  0.35541188  1
  Hf  Hf22  1  0.49628340  0.99585558  0.35523593  1
  Hf  Hf23  1  0.99888831  0.99779500  0.85801123  1
  Hf  Hf24  1  0.49928167  0.99775144  0.85720898  1
  Hf  Hf25  1  0.99824030  0.99655360  0.64386654  1
  Hf  Hf26  1  0.49856056  0.99654310  0.64392527  1
  Hf  Hf27  1  0.99818463  0.00226324  0.14558020  1
  Hf  Hf28  1  0.50036692  0.99830399  0.14543804  1
  Hf  Hf29  1  0.33350275  0.33433457  0.18710639  1
  Hf  Hf30  1  0.33309726  0.33167752  0.97970899  1
  Hf  Hf31  1  0.83389979  0.33305888  0.98357573  1
  Hf  Hf32  1  0.33339899  0.33319162  0.48362287  1
  Hf  Hf33  1  0.83342870  0.33431437  0.48231190  1
  Hf  Hf34  1  0.16778128  0.66832035  0.02075907  1
  Hf  Hf35  1  0.66424863  0.66274703  0.01919935  1
  Hf  Hf36  1  0.16553516  0.66705852  0.51680760  1
  Hf  Hf37  1  0.66579246  0.66674873  0.51629327  1
  Hf  Hf38  1  0.17039234  0.66663222  0.31368167  1
  Hf  Hf39  1  0.66552188  0.67182852  0.31457163  1
  Hf  Hf40  1  0.16886580  0.66568692  0.81544428  1
  Hf  Hf41  1  0.66926948  0.66676914  0.81552108  1
  P  P42  1  0.14450569  0.99900334  0.24990239  1
  P  P43  1  0.64134935  0.99441549  0.25165576  1
  P  P44  1  0.35521185  0.71075435  0.24966777  1
  P  P45  1  0.85432767  0.71695250  0.25149164  1
  P  P46  1  0.00379860  0.29441808  0.25194004  1
  P  P47  1  0.49957653  0.28819694  0.25030381  1
  P  P48  1  0.14094449  0.28743449  0.75237040  1
  P  P49  1  0.64125174  0.28831819  0.75212680  1
  P  P50  1  0.00260488  0.71417149  0.75287448  1
  P  P51  1  0.50268599  0.71361775  0.75266344  1
  P  P52  1  0.35439931  0.99187511  0.75175137  1
  P  P53  1  0.85457954  0.99209192  0.75187778  1
  P  P54  1  0.48424863  0.33454624  0.58515166  1
  P  P55  1  0.98353981  0.33454900  0.58502673  1
  P  P56  1  0.18357320  0.03266105  0.58556437  1
  P  P57  1  0.68404581  0.03310953  0.58521337  1
  P  P58  1  0.33241584  0.63414305  0.58194435  1
  P  P59  1  0.83230921  0.63353333  0.58165645  1
  P  P60  1  0.47758076  0.62227713  0.08303583  1
  P  P61  1  0.98321910  0.63449641  0.08547462  1
  P  P62  1  0.33367522  0.04416624  0.08366079  1
  P  P63  1  0.83318629  0.03164709  0.08176264  1
  P  P64  1  0.18902284  0.33439118  0.08374277  1
  P  P65  1  0.68274348  0.33052260  0.08501562  1
  P  P66  1  0.31250785  0.66422464  0.91852615  1
  P  P67  1  0.81140853  0.66102581  0.91830605  1
  P  P68  1  0.02048663  0.37804690  0.91742181  1
  P  P69  1  0.51866646  0.37550499  0.91521093  1
  P  P70  1  0.16873927  0.95965656  0.91631937  1
  P  P71  1  0.66881785  0.96183680  0.91685054  1
  P  P72  1  0.31148869  0.96228568  0.41632534  1
  P  P73  1  0.81296261  0.96210889  0.41618068  1
  P  P74  1  0.16948117  0.37577841  0.41688253  1
  P  P75  1  0.66789681  0.37430480  0.41391827  1
  P  P76  1  0.01928573  0.66133858  0.41368079  1
  P  P77  1  0.51772601  0.66271642  0.41653632  1
  O  O78  1  0.10287401  0.02120972  0.30552596  1
  O  O79  1  0.59029336  0.00505974  0.30439776  1
  O  O80  1  0.40732847  0.79445768  0.30526092  1
  O  O81  1  0.91102295  0.81554383  0.30437430  1
  O  O82  1  0.48596262  0.17704101  0.30482345  1
  O  O83  1  0.00095374  0.18968303  0.30605643  1
  O  O84  1  0.09207891  0.18135342  0.80684593  1
  O  O85  1  0.59219766  0.18189814  0.80650199  1
  O  O86  1  0.49773924  0.80869886  0.80739497  1
  O  O87  1  0.99793489  0.80984121  0.80756448  1
  O  O88  1  0.40761359  0.00266216  0.80614612  1
  O  O89  1  0.90784720  0.00290488  0.80629172  1
  O  O90  1  0.39920936  0.97695684  0.69624790  1
  O  O91  1  0.89921958  0.97684273  0.69632169  1
  O  O92  1  0.08577365  0.19973118  0.69738645  1
  O  O93  1  0.58582645  0.19978859  0.69726788  1
  O  O94  1  0.01267282  0.82372779  0.69786207  1
  O  O95  1  0.51253855  0.82321246  0.69777105  1
  O  O96  1  0.39958200  0.82205463  0.19551609  1
  O  O97  1  0.89849989  0.82121983  0.19553823  1
  O  O98  1  0.00941803  0.20200912  0.19625193  1
  O  O99  1  0.51424721  0.20168129  0.19639607  1
  O  O100  1  0.08586806  0.97154372  0.19678130  1
  O  O101  1  0.58969228  0.97801276  0.19522384  1
  O  O102  1  0.45566110  0.36594737  0.64420498  1
  O  O103  1  0.95501388  0.36524629  0.64422108  1
  O  O104  1  0.22810229  0.08884819  0.64452846  1
  O  O105  1  0.72830264  0.08889732  0.64432384  1
  O  O106  1  0.31371375  0.53835992  0.63907204  1
  O  O107  1  0.81392812  0.53843879  0.63883325  1
  O  O108  1  0.43412112  0.51097205  0.13747940  1
  O  O109  1  0.95460362  0.54551262  0.14429759  1
  O  O110  1  0.32143995  0.13206074  0.13783971  1
  O  O111  1  0.81468464  0.09098508  0.13872368  1
  O  O112  1  0.24518716  0.35927705  0.13796936  1
  O  O113  1  0.72692318  0.36350220  0.14397106  1
  O  O114  1  0.23218097  0.30929466  0.02904641  1
  O  O115  1  0.73503880  0.31067640  0.03437857  1
  O  O116  1  0.42244971  0.53385640  0.02846797  1
  O  O117  1  0.92155617  0.53110982  0.03455015  1
  O  O118  1  0.34544465  0.15448413  0.02880679  1
  O  O119  1  0.84499398  0.15105080  0.02913262  1
  O  O120  1  0.23527582  0.15827721  0.53509621  1
  O  O121  1  0.73560560  0.15883467  0.53468597  1
  O  O122  1  0.34438147  0.53739341  0.52961315  1
  O  O123  1  0.84445778  0.53732999  0.52924383  1
  O  O124  1  0.42194078  0.31443535  0.53466260  1
  O  O125  1  0.92159223  0.31499062  0.53438437  1
  O  O126  1  0.26910804  0.68799711  0.97240831  1
  O  O127  1  0.76504348  0.68298808  0.97056369  1
  O  O128  1  0.07990877  0.47002490  0.96953330  1
  O  O129  1  0.57552610  0.46751631  0.96775895  1
  O  O130  1  0.15969662  0.84590774  0.96876794  1
  O  O131  1  0.65520497  0.84433074  0.96915089  1
  O  O132  1  0.26698425  0.84910996  0.46931899  1
  O  O133  1  0.76864014  0.84851252  0.46924011  1
  O  O134  1  0.15705839  0.46430783  0.47002770  1
  O  O135  1  0.65519675  0.46707151  0.46602975  1
  O  O136  1  0.07736335  0.68672837  0.46617764  1
  O  O137  1  0.57481844  0.69011779  0.46970976  1
  O  O138  1  0.06163501  0.63985295  0.35718938  1
  O  O139  1  0.56262936  0.64133082  0.36165090  1
  O  O140  1  0.25735348  0.87470653  0.36087067  1
  O  O141  1  0.75698588  0.87268289  0.36133304  1
  O  O142  1  0.18018903  0.48653425  0.36184263  1
  O  O143  1  0.67952658  0.48074456  0.35737822  1
  O  O144  1  0.06259322  0.48355341  0.86064164  1
  O  O145  1  0.56136253  0.48104374  0.85870783  1
  O  O146  1  0.17922300  0.87557001  0.85967252  1
  O  O147  1  0.67954126  0.87620556  0.86035793  1
  O  O148  1  0.25730851  0.64328250  0.86346249  1
  O  O149  1  0.75751439  0.64081603  0.86240423  1
  O  O150  1  0.00976317  0.82363481  0.40862621  1
  O  O151  1  0.50706010  0.82329029  0.41040545  1
  O  O152  1  0.40172325  0.98037745  0.41076768  1
  O  O153  1  0.90354937  0.98240923  0.40955730  1
  O  O154  1  0.08876618  0.19442891  0.41142671  1
  O  O155  1  0.58655841  0.19327310  0.40820366  1
  O  O156  1  0.00986760  0.19559753  0.91246850  1
  O  O157  1  0.50861186  0.19371176  0.91140144  1
  O  O158  1  0.08752839  0.97834729  0.91249055  1
  O  O159  1  0.58808053  0.98236788  0.91165708  1
  O  O160  1  0.40299522  0.82500522  0.91282897  1
  O  O161  1  0.90171437  0.82379910  0.91307451  1
  O  O162  1  0.48994693  0.16655401  0.58675247  1
  O  O163  1  0.98975659  0.16686559  0.58661878  1
  O  O164  1  0.09391831  0.02084441  0.58763699  1
  O  O165  1  0.59407856  0.02053610  0.58743254  1
  O  O166  1  0.41664193  0.81283639  0.58585006  1
  O  O167  1  0.91634304  0.81261711  0.58580417  1
  O  O168  1  0.48530257  0.80177558  0.08936289  1
  O  O169  1  0.99172356  0.81629651  0.08649243  1
  O  O170  1  0.41433194  0.02506412  0.09050306  1
  O  O171  1  0.91709273  0.01985827  0.08498686  1
  O  O172  1  0.09877359  0.17442725  0.09120926  1
  O  O173  1  0.59267535  0.16201801  0.08570907  1
  O  O174  1  0.34499317  0.15307257  0.75086015  1
  O  O175  1  0.84518249  0.15321073  0.75098813  1
  O  O176  1  0.22873261  0.30022815  0.75157244  1
  O  O177  1  0.72879370  0.30034748  0.75147343  1
  O  O178  1  0.42716532  0.53015553  0.75193556  1
  O  O179  1  0.92718048  0.53066170  0.75211750  1
  O  O180  1  0.34509322  0.52896875  0.24326227  1
  O  O181  1  0.84570095  0.53778704  0.25064908  1
  O  O182  1  0.42083413  0.31266799  0.24279973  1
  O  O183  1  0.92635484  0.32175354  0.25282448  1
  O  O184  1  0.23519748  0.15788899  0.24252491  1
  O  O185  1  0.72875032  0.15926841  0.25224466  1
  O  O186  1  0.32100327  0.50116852  0.92261789  1
  O  O187  1  0.82102074  0.49975873  0.92386780  1
  O  O188  1  0.42866444  0.35751768  0.92117093  1
  O  O189  1  0.93132864  0.36245016  0.92452498  1
  O  O190  1  0.24920291  0.14044126  0.92219690  1
  O  O191  1  0.74941125  0.14154908  0.92362237  1
  O  O192  1  0.32129237  0.14282463  0.42321185  1
  O  O193  1  0.82204979  0.14229006  0.42293073  1
  O  O194  1  0.24988960  0.35602264  0.42304273  1
  O  O195  1  0.74780404  0.35373300  0.42266692  1
  O  O196  1  0.42835204  0.49978399  0.42305898  1
  O  O197  1  0.92968103  0.49983066  0.42211183  1
  O  O198  1  0.17954470  0.49664174  0.07731577  1
  O  O199  1  0.66775796  0.48303829  0.07151233  1
  O  O200  1  0.07359611  0.65775470  0.07211181  1
  O  O201  1  0.56880069  0.64604322  0.07685908  1
  O  O202  1  0.25329832  0.86307831  0.07726575  1
  O  O203  1  0.75601504  0.84820527  0.07017569  1
  O  O204  1  0.16844539  0.85027134  0.57210716  1
  O  O205  1  0.66946755  0.85092878  0.57172836  1
  O  O206  1  0.25687058  0.66712607  0.57009275  1
  O  O207  1  0.75643786  0.66548521  0.56960999  1
  O  O208  1  0.07469016  0.48820641  0.57222470  1
  O  O209  1  0.57546338  0.48723634  0.57194815  1
  O  O210  1  0.15055351  0.83114961  0.25511845  1
  O  O211  1  0.64915613  0.82924793  0.25576620  1
  O  O212  1  0.26470115  0.69308039  0.25481770  1
  O  O213  1  0.76214192  0.69450505  0.25568624  1
  O  O214  1  0.08738248  0.47739134  0.25417823  1
  O  O215  1  0.58374813  0.46626548  0.25678360  1
  O  O216  1  0.14610865  0.46728680  0.75621363  1
  O  O217  1  0.64634263  0.46799509  0.75592590  1
  O  O218  1  0.08867992  0.70606597  0.75631834  1
  O  O219  1  0.58891153  0.70636647  0.75612330  1
  O  O220  1  0.26248074  0.82888523  0.75547064  1
  O  O221  1  0.76258084  0.82918560  0.75544776  1
