# generated using pymatgen
data_Na10Zr4Nb4Si11SO48
_symmetry_space_group_name_H-M   'P 1'
_cell_length_a   18.21786067
_cell_length_b   9.12047487
_cell_length_c   22.82440748
_cell_angle_alpha   90.01064046
_cell_angle_beta   89.94595239
_cell_angle_gamma   119.98400194
_symmetry_Int_Tables_number   1
_chemical_formula_structural   Na10Zr4Nb4Si11SO48
_chemical_formula_sum   'Na30 Zr12 Nb12 Si33 S3 O144'
_cell_volume   3284.84395202
_cell_formula_units_Z   3
loop_
 _symmetry_equiv_pos_site_id
 _symmetry_equiv_pos_as_xyz
  1  'x, y, z'
loop_
 _atom_site_type_symbol
 _atom_site_label
 _atom_site_symmetry_multiplicity
 _atom_site_fract_x
 _atom_site_fract_y
 _atom_site_fract_z
 _atom_site_occupancy
  Na  Na0  1  0.32179330  0.99980089  0.24957475  1
  Na  Na1  1  0.82166925  0.00020069  0.25040665  1
  Na  Na2  1  0.81864372  0.63700720  0.74885750  1
  Na  Na3  1  0.49847014  0.36495012  0.74922407  1
  Na  Na4  1  0.01695897  0.70174737  0.58381657  1
  Na  Na5  1  0.33326422  0.96892589  0.58666924  1
  Na  Na6  1  0.83287581  0.96158201  0.58239269  1
  Na  Na7  1  0.33158327  0.69670097  0.08567774  1
  Na  Na8  1  0.83137256  0.69648780  0.08654803  1
  Na  Na9  1  0.01731226  0.33559736  0.08500101  1
  Na  Na10  1  0.51330824  0.33131749  0.08483465  1
  Na  Na11  1  0.98487475  0.66057683  0.91279204  1
  Na  Na12  1  0.35067896  0.03617349  0.91548500  1
  Na  Na13  1  0.85232155  0.03505571  0.91675696  1
  Na  Na14  1  0.48294870  0.30365056  0.41392007  1
  Na  Na15  1  0.98335408  0.30488626  0.41307308  1
  Na  Na16  1  0.34969507  0.66662663  0.41493727  1
  Na  Na17  1  0.84900702  0.66651816  0.41513361  1
  Na  Na18  1  0.01525818  0.01564455  0.49887144  1
  Na  Na19  1  0.51453490  0.00253092  0.50191470  1
  Na  Na20  1  0.01689422  0.01648872  0.00040772  1
  Na  Na21  1  0.51201728  0.99656794  0.99857528  1
  Na  Na22  1  0.33066208  0.34832026  0.83358795  1
  Na  Na23  1  0.82932883  0.32094695  0.83014021  1
  Na  Na24  1  0.33459128  0.34659760  0.32963839  1
  Na  Na25  1  0.83447482  0.34730480  0.32901624  1
  Na  Na26  1  0.16127376  0.65443295  0.16994824  1
  Na  Na27  1  0.66043855  0.65306455  0.17119759  1
  Na  Na28  1  0.16831737  0.66541184  0.67268117  1
  Na  Na29  1  0.65951071  0.66749076  0.66355437  1
  Zr  Zr30  1  0.99659469  0.99650743  0.35567719  1
  Zr  Zr31  1  0.49660269  0.99738598  0.35596370  1
  Zr  Zr32  1  0.99714155  0.99611226  0.85480650  1
  Zr  Zr33  1  0.99813054  0.99328939  0.64476762  1
  Zr  Zr34  1  0.99826907  0.00252322  0.14399396  1
  Zr  Zr35  1  0.49753112  0.00254804  0.14424654  1
  Zr  Zr36  1  0.33631545  0.33455939  0.68595458  1
  Zr  Zr37  1  0.33876695  0.34677442  0.18514844  1
  Zr  Zr38  1  0.83835658  0.34660360  0.18489002  1
  Zr  Zr39  1  0.16514438  0.65320660  0.31502703  1
  Zr  Zr40  1  0.66523281  0.65314315  0.31495317  1
  Zr  Zr41  1  0.16912023  0.67755922  0.81399532  1
  Nb  Nb42  1  0.50136918  0.00054262  0.85469006  1
  Nb  Nb43  1  0.50086164  0.99787853  0.64575763  1
  Nb  Nb44  1  0.83299962  0.33097273  0.68810852  1
  Nb  Nb45  1  0.33459291  0.34083762  0.97826703  1
  Nb  Nb46  1  0.83018235  0.33078124  0.97834870  1
  Nb  Nb47  1  0.33338463  0.33240998  0.48196016  1
  Nb  Nb48  1  0.83046014  0.32663238  0.48050958  1
  Nb  Nb49  1  0.16856207  0.67009959  0.01883638  1
  Nb  Nb50  1  0.66569644  0.66883445  0.01877377  1
  Nb  Nb51  1  0.16695157  0.66379452  0.52129343  1
  Nb  Nb52  1  0.66396450  0.66444923  0.52177185  1
  Nb  Nb53  1  0.66490982  0.66973849  0.81174886  1
  Si  Si54  1  0.35127172  0.70292320  0.25040961  1
  Si  Si55  1  0.85134250  0.70342391  0.24999820  1
  Si  Si56  1  0.99969601  0.29632473  0.24983525  1
  Si  Si57  1  0.49973244  0.29671166  0.24991979  1
  Si  Si58  1  0.64348199  0.28685282  0.74990821  1
  Si  Si59  1  0.00132482  0.70289355  0.74875177  1
  Si  Si60  1  0.49858613  0.71224129  0.75133044  1
  Si  Si61  1  0.35487119  0.99615358  0.74965331  1
  Si  Si62  1  0.85241538  0.00081446  0.75024211  1
  Si  Si63  1  0.48166517  0.33463958  0.58447684  1
  Si  Si64  1  0.97846586  0.33625199  0.58337654  1
  Si  Si65  1  0.18849743  0.04279852  0.58331133  1
  Si  Si66  1  0.68798225  0.04432286  0.58459663  1
  Si  Si67  1  0.33399814  0.62416055  0.58349872  1
  Si  Si68  1  0.82918995  0.61645039  0.58391379  1
  Si  Si69  1  0.48115463  0.62620966  0.08153516  1
  Si  Si70  1  0.98107876  0.62568234  0.07944405  1
  Si  Si71  1  0.32929890  0.04260720  0.08322380  1
  Si  Si72  1  0.82882788  0.04065295  0.08383354  1
  Si  Si73  1  0.18928040  0.33408076  0.08127976  1
  Si  Si74  1  0.68749517  0.33413746  0.08151382  1
  Si  Si75  1  0.31271150  0.66562551  0.91531386  1
  Si  Si76  1  0.80777150  0.65733750  0.91495892  1
  Si  Si77  1  0.02228654  0.37681792  0.91790046  1
  Si  Si78  1  0.52206329  0.37736767  0.91584113  1
  Si  Si79  1  0.16880660  0.96268366  0.91735535  1
  Si  Si80  1  0.66506988  0.95525145  0.91623026  1
  Si  Si81  1  0.30848559  0.96082744  0.41559927  1
  Si  Si82  1  0.80820632  0.95689609  0.41663497  1
  Si  Si83  1  0.16854615  0.37367210  0.41893833  1
  Si  Si84  1  0.66777443  0.37563896  0.41931503  1
  Si  Si85  1  0.02119111  0.66602007  0.41998752  1
  Si  Si86  1  0.52172497  0.66725982  0.41887391  1
  S  S87  1  0.14516394  -0.00016608  0.25001359  1
  S  S88  1  0.64532056  0.00008025  0.24993811  1
  S  S89  1  0.14525227  0.28821286  0.75009233  1
  O  O90  1  0.10243013  0.01291233  0.30320285  1
  O  O91  1  0.60262399  0.01314021  0.30318134  1
  O  O92  1  0.40673610  0.79716598  0.30980825  1
  O  O93  1  0.90652750  0.79689024  0.30953332  1
  O  O94  1  0.49332189  0.18273511  0.30812051  1
  O  O95  1  0.99297617  0.18229114  0.30810239  1
  O  O96  1  0.10160967  0.18731273  0.80295586  1
  O  O97  1  0.59643976  0.17183841  0.80792202  1
  O  O98  1  0.49202422  0.81429169  0.80840339  1
  O  O99  1  0.98647897  0.79434916  0.80662553  1
  O  O100  1  0.41514978  0.01873750  0.80768377  1
  O  O101  1  0.90755781  0.02610523  0.80960380  1
  O  O102  1  0.40580357  0.98556583  0.69070979  1
  O  O103  1  0.89610395  0.96834338  0.69276094  1
  O  O104  1  0.09490060  0.20218307  0.69704438  1
  O  O105  1  0.58223862  0.19340425  0.69325502  1
  O  O106  1  0.00942870  0.81551615  0.69042532  1
  O  O107  1  0.51003565  0.82991870  0.69327488  1
  O  O108  1  0.40163871  0.81718331  0.19218988  1
  O  O109  1  0.90182814  0.81737147  0.19173177  1
  O  O110  1  0.00792462  0.20186940  0.19047520  1
  O  O111  1  0.50828435  0.20323244  0.19042767  1
  O  O112  1  0.09593164  0.98687152  0.19687328  1
  O  O113  1  0.59613201  0.98722422  0.19676979  1
  O  O114  1  0.44103165  0.36349341  0.64392926  1
  O  O115  1  0.92866784  0.36468313  0.63893083  1
  O  O116  1  0.25003542  0.12653287  0.63935406  1
  O  O117  1  0.75103115  0.14235203  0.63999159  1
  O  O118  1  0.31937639  0.50575939  0.63971074  1
  O  O119  1  0.81915382  0.50519278  0.64267695  1
  O  O120  1  0.44166134  0.50363974  0.13872710  1
  O  O121  1  0.93852843  0.50010589  0.13579605  1
  O  O122  1  0.31707186  0.12293126  0.14329830  1
  O  O123  1  0.81620154  0.12155572  0.14335727  1
  O  O124  1  0.25113172  0.37396630  0.13726891  1
  O  O125  1  0.75054423  0.37492751  0.13674782  1
  O  O126  1  0.23946741  0.31588417  0.02427422  1
  O  O127  1  0.73814536  0.31579487  0.02387445  1
  O  O128  1  0.41938404  0.52477590  0.02573457  1
  O  O129  1  0.91989240  0.52817431  0.02178383  1
  O  O130  1  0.34517230  0.16606161  0.02635692  1
  O  O131  1  0.84142257  0.16321410  0.02655968  1
  O  O132  1  0.23957068  0.16395100  0.52670956  1
  O  O133  1  0.73650466  0.16182854  0.52684670  1
  O  O134  1  0.34587258  0.53264638  0.52467520  1
  O  O135  1  0.84409745  0.52410759  0.52705928  1
  O  O136  1  0.42008263  0.31031981  0.52770842  1
  O  O137  1  0.91972699  0.30996734  0.52503893  1
  O  O138  1  0.26652466  0.69319963  0.97391058  1
  O  O139  1  0.76239187  0.68643039  0.97239763  1
  O  O140  1  0.07934906  0.47002448  0.97671695  1
  O  O141  1  0.58016408  0.47176344  0.97365881  1
  O  O142  1  0.15590590  0.83500157  0.97297022  1
  O  O143  1  0.65561078  0.83693250  0.97322043  1
  O  O144  1  0.25893544  0.83600908  0.47221830  1
  O  O145  1  0.76203257  0.83715736  0.47438123  1
  O  O146  1  0.15547969  0.47515138  0.47493437  1
  O  O147  1  0.65706302  0.47981780  0.47485417  1
  O  O148  1  0.07726356  0.68356362  0.47897772  1
  O  O149  1  0.58154245  0.68808264  0.47630773  1
  O  O150  1  0.06473035  0.62573787  0.36492552  1
  O  O151  1  0.56426840  0.62648654  0.36342159  1
  O  O152  1  0.25570847  0.87932686  0.35596615  1
  O  O153  1  0.75552401  0.87716202  0.35685628  1
  O  O154  1  0.18930168  0.49701136  0.36206497  1
  O  O155  1  0.68976275  0.49752996  0.36189306  1
  O  O156  1  0.06476473  0.50469322  0.86323767  1
  O  O157  1  0.56943194  0.49450710  0.85782571  1
  O  O158  1  0.18884076  0.88052718  0.86054588  1
  O  O159  1  0.67943214  0.85748391  0.86012320  1
  O  O160  1  0.25302772  0.63386767  0.85923226  1
  O  O161  1  0.75218651  0.64101183  0.85628462  1
  O  O162  1  0.00622769  0.82711279  0.41594506  1
  O  O163  1  0.50705020  0.82840419  0.41562356  1
  O  O164  1  0.40254730  0.97460414  0.41460174  1
  O  O165  1  0.90326620  0.97557172  0.41460814  1
  O  O166  1  0.08137130  0.19381227  0.41500293  1
  O  O167  1  0.58099346  0.19518366  0.41547711  1
  O  O168  1  0.00640671  0.18455572  0.91428333  1
  O  O169  1  0.50984885  0.18709993  0.91009593  1
  O  O170  1  0.08065709  0.96630804  0.91327102  1
  O  O171  1  0.58260962  0.97718690  0.91108558  1
  O  O172  1  0.40445066  0.84383429  0.91068434  1
  O  O173  1  0.90175848  0.82882967  0.91199237  1
  O  O174  1  0.48493863  0.15802438  0.58755264  1
  O  O175  1  0.98215895  0.16308656  0.58907129  1
  O  O176  1  0.09289992  0.01401106  0.58508732  1
  O  O177  1  0.59503692  0.02534436  0.59093363  1
  O  O178  1  0.41654805  0.81690083  0.58930228  1
  O  O179  1  0.91573421  0.80442014  0.58654343  1
  O  O180  1  0.48476276  0.80667114  0.08525533  1
  O  O181  1  0.98392551  0.80584751  0.08425134  1
  O  O182  1  0.41508603  0.02332757  0.08565441  1
  O  O183  1  0.91568932  0.02611798  0.08499672  1
  O  O184  1  0.09362133  0.17316038  0.08472000  1
  O  O185  1  0.59255796  0.17239758  0.08425184  1
  O  O186  1  0.35206398  0.17268141  0.74767666  1
  O  O187  1  0.84051580  0.16637451  0.74250697  1
  O  O188  1  0.22955954  0.30288594  0.74765851  1
  O  O189  1  0.73952204  0.31789930  0.74358175  1
  O  O190  1  0.41745316  0.52191435  0.74861246  1
  O  O191  1  0.91066542  0.51954806  0.74329821  1
  O  O192  1  0.33808984  0.51296132  0.24783056  1
  O  O193  1  0.83823881  0.51341540  0.24735708  1
  O  O194  1  0.40847662  0.29308675  0.24872655  1
  O  O195  1  0.90856795  0.29356563  0.24827478  1
  O  O196  1  0.23099012  0.15205324  0.24758947  1
  O  O197  1  0.73110308  0.15243711  0.24744418  1
  O  O198  1  0.32660318  0.50329907  0.92397974  1
  O  O199  1  0.82242843  0.49446927  0.91975694  1
  O  O200  1  0.42639509  0.35026363  0.92169891  1
  O  O201  1  0.92601548  0.35486404  0.92475321  1
  O  O202  1  0.25395335  0.14662300  0.92572174  1
  O  O203  1  0.75438488  0.13647221  0.92181920  1
  O  O204  1  0.32736283  0.15512044  0.42466240  1
  O  O205  1  0.82526077  0.15075947  0.42477331  1
  O  O206  1  0.25459077  0.36202084  0.42657747  1
  O  O207  1  0.75367965  0.36258148  0.42708645  1
  O  O208  1  0.42766065  0.49540580  0.42623180  1
  O  O209  1  0.92582674  0.49468497  0.42606404  1
  O  O210  1  0.18048992  0.50567811  0.07412328  1
  O  O211  1  0.67909907  0.50548333  0.07351614  1
  O  O212  1  0.07368958  0.63887954  0.07405813  1
  O  O213  1  0.57347454  0.63848647  0.07378569  1
  O  O214  1  0.24981049  0.84826903  0.07529466  1
  O  O215  1  0.74995525  0.84705357  0.07439960  1
  O  O216  1  0.18028964  0.85483871  0.57520914  1
  O  O217  1  0.68502427  0.86222048  0.57818966  1
  O  O218  1  0.25206102  0.65447380  0.57530998  1
  O  O219  1  0.74980812  0.65086865  0.57835263  1
  O  O220  1  0.07054237  0.50969103  0.57892012  1
  O  O221  1  0.57532730  0.50205622  0.57667975  1
  O  O222  1  0.15443209  0.84703713  0.25251777  1
  O  O223  1  0.65493338  0.84773626  0.25240902  1
  O  O224  1  0.26171165  0.70636483  0.25178339  1
  O  O225  1  0.76187599  0.70705494  0.25134006  1
  O  O226  1  0.08134009  0.48670339  0.25257926  1
  O  O227  1  0.58163403  0.48679150  0.25253632  1
  O  O228  1  0.15258326  0.45754559  0.75300926  1
  O  O229  1  0.65046243  0.47473092  0.75553777  1
  O  O230  1  0.08228561  0.67577101  0.75198214  1
  O  O231  1  0.58375714  0.69066966  0.75701169  1
  O  O232  1  0.26317902  0.82557846  0.75133119  1
  O  O233  1  0.75957869  0.82366871  0.75656299  1
