# generated using pymatgen
data_Na15Mg7Nb5Si9(SO8)9
_symmetry_space_group_name_H-M   'P 1'
_cell_length_a   9.02543460
_cell_length_b   9.00155763
_cell_length_c   22.56302152
_cell_angle_alpha   89.77332347
_cell_angle_beta   90.40134177
_cell_angle_gamma   119.91389865
_symmetry_Int_Tables_number   1
_chemical_formula_structural   Na15Mg7Nb5Si9(SO8)9
_chemical_formula_sum   'Na15 Mg7 Nb5 Si9 S9 O72'
_cell_volume   1588.83613880
_cell_formula_units_Z   1
loop_
 _symmetry_equiv_pos_site_id
 _symmetry_equiv_pos_as_xyz
  1  'x, y, z'
loop_
 _atom_site_type_symbol
 _atom_site_label
 _atom_site_symmetry_multiplicity
 _atom_site_fract_x
 _atom_site_fract_y
 _atom_site_fract_z
 _atom_site_occupancy
  Na  Na0  1  0.63143419  0.00358011  0.23635147  1
  Na  Na1  1  0.99480285  0.64718034  0.24967008  1
  Na  Na2  1  0.65201644  0.64025628  0.75560831  1
  Na  Na3  1  0.34256119  0.99612987  0.74341779  1
  Na  Na4  1  0.97676421  0.68937141  0.91244335  1
  Na  Na5  1  0.70103859  0.01055492  0.91950782  1
  Na  Na6  1  0.31629015  0.30123141  0.91877890  1
  Na  Na7  1  0.30594692  0.01893124  0.41095738  1
  Na  Na8  1  0.70397545  0.67821857  0.40630489  1
  Na  Na9  1  0.01680313  0.01589218  0.49762088  1
  Na  Na10  1  0.99824859  0.00106497  0.99165725  1
  Na  Na11  1  0.69682064  0.35429694  0.82667235  1
  Na  Na12  1  0.64349391  0.33353684  0.32099594  1
  Na  Na13  1  0.35110276  0.67354138  0.15443679  1
  Na  Na14  1  0.30478752  0.65508048  0.66260700  1
  Mg  Mg15  1  0.00890514  0.99735700  0.35270088  1
  Mg  Mg16  1  0.99665592  0.99260084  0.85186269  1
  Mg  Mg17  1  0.00793880  0.99454769  0.64888349  1
  Mg  Mg18  1  0.68146536  0.34028523  0.68387625  1
  Mg  Mg19  1  0.64935120  0.32534374  0.18565609  1
  Mg  Mg20  1  0.34315853  0.67563837  0.01751782  1
  Mg  Mg21  1  0.32414419  0.65989641  0.51890887  1
  Nb  Nb22  1  0.99102414  0.98538874  0.14567428  1
  Nb  Nb23  1  0.66582248  0.32219723  0.97882160  1
  Nb  Nb24  1  0.67073336  0.34156483  0.47943930  1
  Nb  Nb25  1  0.32658467  0.65498349  0.31239643  1
  Nb  Nb26  1  0.32130058  0.66473329  0.81959396  1
  Si  Si27  1  0.29733335  0.00674658  0.25461947  1
  Si  Si28  1  0.70484201  0.70171389  0.25392564  1
  Si  Si29  1  0.99897641  0.70291656  0.74957023  1
  Si  Si30  1  0.66136642  0.03423020  0.08956620  1
  Si  Si31  1  0.62522625  0.66833770  0.91786691  1
  Si  Si32  1  0.04402197  0.37207088  0.92321537  1
  Si  Si33  1  0.32586760  0.95593261  0.92002735  1
  Si  Si34  1  0.32047062  0.37049340  0.42173353  1
  Si  Si35  1  0.04679993  0.67037253  0.42002725  1
  S  S36  1  0.00441934  0.28677062  0.25047502  1
  S  S37  1  0.29116805  0.29628356  0.74810869  1
  S  S38  1  0.70562096  0.00004981  0.74835614  1
  S  S39  1  0.95966121  0.32926118  0.58535945  1
  S  S40  1  0.37742574  0.04156287  0.58484987  1
  S  S41  1  0.66584920  0.62978192  0.58471159  1
  S  S42  1  0.95774361  0.62088769  0.08591442  1
  S  S43  1  0.37190000  0.33125622  0.08419434  1
  S  S44  1  0.62124506  0.95814051  0.41835976  1
  O  O45  1  0.21333036  0.01982512  0.31469886  1
  O  O46  1  0.81169716  0.79483069  0.31223967  1
  O  O47  1  0.98096701  0.18415161  0.30318461  1
  O  O48  1  0.21315152  0.20082511  0.80315214  1
  O  O49  1  0.97648887  0.78524473  0.81037689  1
  O  O50  1  0.79967101  0.02267751  0.80435823  1
  O  O51  1  0.79451539  0.98184322  0.69680732  1
  O  O52  1  0.18550643  0.21637834  0.69521241  1
  O  O53  1  0.05172495  0.83553242  0.69437341  1
  O  O54  1  0.80574612  0.83636318  0.19471058  1
  O  O55  1  0.02684081  0.20752874  0.19584178  1
  O  O56  1  0.16414515  0.97563999  0.19657230  1
  O  O57  1  0.87320589  0.34446171  0.63770252  1
  O  O58  1  0.47716821  0.13055176  0.63839034  1
  O  O59  1  0.64731748  0.52293128  0.63659092  1
  O  O60  1  0.86985135  0.52704684  0.13945995  1
  O  O61  1  0.66095191  0.13485114  0.14742580  1
  O  O62  1  0.47669320  0.34933822  0.13608285  1
  O  O63  1  0.45511332  0.31033465  0.02827805  1
  O  O64  1  0.85083750  0.54172663  0.03114072  1
  O  O65  1  0.68606886  0.16292422  0.02920776  1
  O  O66  1  0.47613049  0.15077729  0.53019226  1
  O  O67  1  0.68125759  0.53202285  0.52888692  1
  O  O68  1  0.84843520  0.31637059  0.53059038  1
  O  O69  1  0.53631912  0.70885864  0.97018241  1
  O  O70  1  0.16686914  0.45352097  0.97785666  1
  O  O71  1  0.28031123  0.82690111  0.97303176  1
  O  O72  1  0.54474398  0.85254528  0.47046932  1
  O  O73  1  0.32507949  0.47454425  0.47787482  1
  O  O74  1  0.17896571  0.71565752  0.47244009  1
  O  O75  1  0.13374189  0.63534080  0.35813628  1
  O  O76  1  0.51032960  0.87980475  0.36324624  1
  O  O77  1  0.36666823  0.50039362  0.36101620  1
  O  O78  1  0.13315708  0.50643363  0.86356523  1
  O  O79  1  0.37091835  0.87217086  0.85873014  1
  O  O80  1  0.50359033  0.62721422  0.85451220  1
  O  O81  1  -0.00266696  0.81872851  0.41314327  1
  O  O82  1  0.79420837  0.98821962  0.40959515  1
  O  O83  1  0.16482196  0.17990593  0.41378839  1
  O  O84  1  0.00220404  0.18208858  0.90672710  1
  O  O85  1  0.18120742  0.00561941  0.90764229  1
  O  O86  1  0.81653685  0.82641731  0.90896302  1
  O  O87  1  0.97063741  0.17073887  0.58548147  1
  O  O88  1  0.20962308  0.03308157  0.58279689  1
  O  O89  1  0.82534366  0.79662411  0.58460586  1
  O  O90  1  0.97252441  0.80040450  0.08770243  1
  O  O91  1  0.84946951  0.02833593  0.09134372  1
  O  O92  1  0.20030636  0.16652735  0.08762692  1
  O  O93  1  0.66525250  0.14176401  0.74227955  1
  O  O94  1  0.46448878  0.30966807  0.74300791  1
  O  O95  1  0.82780629  0.51415308  0.74258405  1
  O  O96  1  0.69681227  0.52203253  0.24278344  1
  O  O97  1  0.86185619  0.32226551  0.24482460  1
  O  O98  1  0.49161104  0.15719271  0.24709529  1
  O  O99  1  0.63311964  0.48629072  0.92595308  1
  O  O100  1  0.85646750  0.37097829  0.92703461  1
  O  O101  1  0.51275014  0.14348238  0.92477215  1
  O  O102  1  0.62606172  0.12995924  0.42315803  1
  O  O103  1  0.50736018  0.35401728  0.42628909  1
  O  O104  1  0.85219523  0.48709678  0.42757597  1
  O  O105  1  0.34611781  0.47808952  0.07913462  1
  O  O106  1  0.12773571  0.64248347  0.08164863  1
  O  O107  1  0.50198450  0.84650758  0.08150706  1
  O  O108  1  0.36434223  0.87195596  0.58052211  1
  O  O109  1  0.51424515  0.64832271  0.57805171  1
  O  O110  1  0.12894280  0.48514786  0.57998696  1
  O  O111  1  0.30176191  0.81750317  0.25655156  1
  O  O112  1  0.51670770  0.69634342  0.25656890  1
  O  O113  1  0.16731118  0.46277861  0.25376452  1
  O  O114  1  0.32357586  0.47867011  0.75149315  1
  O  O115  1  0.18129305  0.68359488  0.75642095  1
  O  O116  1  0.53203090  0.83326939  0.75112945  1
