# generated using pymatgen
data_Na3Ca3Ga(SO4)6
_symmetry_space_group_name_H-M   'P 1'
_cell_length_a   9.06402344
_cell_length_b   9.06735489
_cell_length_c   23.56689153
_cell_angle_alpha   89.94356026
_cell_angle_beta   90.21184314
_cell_angle_gamma   120.24288234
_symmetry_Int_Tables_number   1
_chemical_formula_structural   Na3Ca3Ga(SO4)6
_chemical_formula_sum   'Na9 Ca9 Ga3 S18 O72'
_cell_volume   1673.25932367
_cell_formula_units_Z   3
loop_
 _symmetry_equiv_pos_site_id
 _symmetry_equiv_pos_as_xyz
  1  'x, y, z'
loop_
 _atom_site_type_symbol
 _atom_site_label
 _atom_site_symmetry_multiplicity
 _atom_site_fract_x
 _atom_site_fract_y
 _atom_site_fract_z
 _atom_site_occupancy
  Na  Na0  1  0.63896445  0.99981712  0.24932249  1
  Na  Na1  1  0.36038945  0.35957918  0.24916383  1
  Na  Na2  1  0.03758674  0.70103604  0.58572174  1
  Na  Na3  1  0.99944078  0.01495586  0.49956560  1
  Na  Na4  1  0.00004110  0.99950907  0.99718233  1
  Na  Na5  1  0.66606429  0.33250626  0.83601604  1
  Na  Na6  1  0.68224986  0.34826186  0.34337204  1
  Na  Na7  1  0.31544683  0.66565046  0.15608210  1
  Na  Na8  1  0.34961779  0.66574077  0.67824120  1
  Ca  Ca9  1  0.00034968  0.99362566  0.35459172  1
  Ca  Ca10  1  0.00031039  0.99896948  0.85125666  1
  Ca  Ca11  1  0.99843548  0.01159466  0.65578517  1
  Ca  Ca12  1  0.99942058  0.99422257  0.14186289  1
  Ca  Ca13  1  0.66120765  0.32741098  0.68938089  1
  Ca  Ca14  1  0.67534073  0.34203077  0.17995941  1
  Ca  Ca15  1  0.33556457  0.66689494  0.01494644  1
  Ca  Ca16  1  0.34112936  0.66577222  0.51486261  1
  Ca  Ca17  1  0.32454180  0.66639964  0.32780174  1
  Ga  Ga18  1  0.66618547  0.33254765  0.98136117  1
  Ga  Ga19  1  0.66089696  0.32808172  0.48601081  1
  Ga  Ga20  1  0.33314410  0.66629148  0.82193334  1
  S  S21  1  0.30322896  0.00034903  0.24964148  1
  S  S22  1  0.69360009  0.69923259  0.25076162  1
  S  S23  1  0.00244702  0.29690683  0.25028317  1
  S  S24  1  0.30285915  0.32356176  0.75569435  1
  S  S25  1  0.02025119  0.69755107  0.75250602  1
  S  S26  1  0.67726270  0.97957476  0.75558148  1
  S  S27  1  0.94853722  0.33085577  0.57848717  1
  S  S28  1  0.37290490  0.04432206  0.57866246  1
  S  S29  1  0.67294985  0.61960355  0.57963962  1
  S  S30  1  0.95513755  0.62297462  0.07616548  1
  S  S31  1  0.66789608  0.04633774  0.07972944  1
  S  S32  1  0.37819434  0.33220103  0.07933009  1
  S  S33  1  0.62176297  0.64822077  0.91682449  1
  S  S34  1  0.02678997  0.37821081  0.91666236  1
  S  S35  1  0.35164910  0.97284634  0.91689966  1
  S  S36  1  0.64103745  0.99312362  0.41903232  1
  S  S37  1  0.35143947  0.35901407  0.41900832  1
  S  S38  1  0.00751182  0.64819436  0.42438304  1
  O  O39  1  0.21974725  0.01765548  0.30061865  1
  O  O40  1  0.79269922  0.78101447  0.30238536  1
  O  O41  1  0.98290058  0.19372607  0.30120444  1
  O  O42  1  0.21526034  0.21402395  0.80402584  1
  O  O43  1  0.00007314  0.79157027  0.79924627  1
  O  O44  1  0.78709075  0.00215149  0.80401454  1
  O  O45  1  0.74773781  0.95383247  0.70196061  1
  O  O46  1  0.20572712  0.25264366  0.70199802  1
  O  O47  1  0.04400799  0.78920901  0.69723571  1
  O  O48  1  0.77781717  0.79992963  0.19977465  1
  O  O49  1  0.02111881  0.21378630  0.19913556  1
  O  O50  1  0.20563416  0.98504493  0.19804336  1
  O  O51  1  0.86829742  0.34887812  0.62964293  1
  O  O52  1  0.46868543  0.12500747  0.63028903  1
  O  O53  1  0.65838570  0.52509705  0.63145297  1
  O  O54  1  0.88017768  0.53664295  0.13020851  1
  O  O55  1  0.65813375  0.11810822  0.13527325  1
  O  O56  1  0.45972862  0.34187041  0.13499378  1
  O  O57  1  0.48126775  0.32452119  0.03111791  1
  O  O58  1  0.84761939  0.52481635  0.02627155  1
  O  O59  1  0.67675972  0.15760060  0.03129312  1
  O  O60  1  0.46267725  0.14602818  0.52666758  1
  O  O61  1  0.68872526  0.52889226  0.52833801  1
  O  O62  1  0.84425890  0.31420879  0.52647535  1
  O  O63  1  0.54553877  0.67097487  0.96773435  1
  O  O64  1  0.12644563  0.45510470  0.96769667  1
  O  O65  1  0.32942766  0.87377735  0.96785837  1
  O  O66  1  0.54673536  0.87930835  0.46596620  1
  O  O67  1  0.33165418  0.45247753  0.46605006  1
  O  O68  1  0.11155065  0.66921594  0.47477739  1
  O  O69  1  0.08477111  0.62447093  0.37236590  1
  O  O70  1  0.54946965  0.92418386  0.36408035  1
  O  O71  1  0.37481376  0.45089615  0.36421291  1
  O  O72  1  0.11320711  0.48753859  0.86494396  1
  O  O73  1  0.37468754  0.88781922  0.86512913  1
  O  O74  1  0.51278578  0.62558985  0.86507465  1
  O  O75  1  0.98514961  0.79844792  0.41933057  1
  O  O76  1  0.81491617  0.01745044  0.41711912  1
  O  O77  1  0.20083354  0.18534688  0.41690395  1
  O  O78  1  0.00110038  0.20543888  0.90982140  1
  O  O79  1  0.20427770  0.99768440  0.90996659  1
  O  O80  1  0.79499079  0.79603648  0.91022932  1
  O  O81  1  0.96917739  0.17930812  0.58020000  1
  O  O82  1  0.19949377  0.02539670  0.57967546  1
  O  O83  1  0.83545947  0.78891238  0.58081490  1
  O  O84  1  0.96785317  0.79230537  0.07495546  1
  O  O85  1  0.82433357  0.03354235  0.07745218  1
  O  O86  1  0.20806722  0.17535079  0.07673318  1
  O  O87  1  0.65202344  0.12804687  0.75109256  1
  O  O88  1  0.47693555  0.34921251  0.75129415  1
  O  O89  1  0.87034445  0.52327903  0.74974184  1
  O  O90  1  0.66436639  0.52224876  0.24787176  1
  O  O91  1  0.84584061  0.31095984  0.24698490  1
  O  O92  1  0.47667153  0.15943776  0.24735295  1
  O  O93  1  0.63281098  0.48669516  0.92139589  1
  O  O94  1  0.85344032  0.36578663  0.92098935  1
  O  O95  1  0.51352362  0.14721263  0.92174760  1
  O  O96  1  0.65330449  0.16360496  0.42638716  1
  O  O97  1  0.50951605  0.34671172  0.42668574  1
  O  O98  1  0.83475403  0.49019191  0.42882042  1
  O  O99  1  0.36181697  0.48587321  0.07585111  1
  O  O100  1  0.12618290  0.64158363  0.07373828  1
  O  O101  1  0.51365037  0.87574618  0.07615809  1
  O  O102  1  0.34927605  0.86990083  0.57451826  1
  O  O103  1  0.52469931  0.64321216  0.57450673  1
  O  O104  1  0.11787893  0.49031271  0.57381458  1
  O  O105  1  0.33112057  0.85181357  0.25365181  1
  O  O106  1  0.52117288  0.68549114  0.25429673  1
  O  O107  1  0.15935269  0.46839194  0.25472875  1
  O  O108  1  0.31621549  0.49580535  0.76302987  1
  O  O109  1  0.17928728  0.68555372  0.76124346  1
  O  O110  1  0.50472302  0.82004420  0.76295913  1
