# generated using pymatgen
data_Na9Mg8Ta4P9(SO8)9
_symmetry_space_group_name_H-M   'P 1'
_cell_length_a   8.78982543
_cell_length_b   8.77161002
_cell_length_c   22.60340325
_cell_angle_alpha   90.13915907
_cell_angle_beta   89.98231745
_cell_angle_gamma   120.01567419
_symmetry_Int_Tables_number   1
_chemical_formula_structural   Na9Mg8Ta4P9(SO8)9
_chemical_formula_sum   'Na9 Mg8 Ta4 P9 S9 O72'
_cell_volume   1509.01617659
_cell_formula_units_Z   1
loop_
 _symmetry_equiv_pos_site_id
 _symmetry_equiv_pos_as_xyz
  1  'x, y, z'
loop_
 _atom_site_type_symbol
 _atom_site_label
 _atom_site_symmetry_multiplicity
 _atom_site_fract_x
 _atom_site_fract_y
 _atom_site_fract_z
 _atom_site_occupancy
  Na  Na0  1  0.65997789  0.96593227  0.58286213  1
  Na  Na1  1  0.29884947  0.95945488  0.08212853  1
  Na  Na2  1  0.03148533  0.33865002  0.08256212  1
  Na  Na3  1  0.01828769  0.00112564  0.49501394  1
  Na  Na4  1  0.98176914  0.98289074  0.99399466  1
  Na  Na5  1  0.66461070  0.33385013  0.82928605  1
  Na  Na6  1  0.66882418  0.33589735  0.32870077  1
  Na  Na7  1  0.34664292  0.67532747  0.16238669  1
  Na  Na8  1  0.32028792  0.66266582  0.66190365  1
  Mg  Mg9  1  0.99989848  0.99883416  0.35404700  1
  Mg  Mg10  1  -0.00000250  0.99859236  0.85388874  1
  Mg  Mg11  1  0.01649800  0.00202377  0.64758526  1
  Mg  Mg12  1  0.98271983  0.98572180  0.14739445  1
  Mg  Mg13  1  0.66246284  0.32991204  0.68482240  1
  Mg  Mg14  1  0.67101120  0.33365505  0.18439862  1
  Mg  Mg15  1  0.33875881  0.67200710  0.01657223  1
  Mg  Mg16  1  0.32731012  0.66719240  0.51700677  1
  Ta  Ta17  1  0.67681306  0.33749969  0.97726461  1
  Ta  Ta18  1  0.65774743  0.32851264  0.47697364  1
  Ta  Ta19  1  0.33109289  0.66667640  0.31749083  1
  Ta  Ta20  1  0.33567831  0.66877351  0.81735143  1
  P  P21  1  0.37252835  0.03873853  0.58530272  1
  P  P22  1  0.95972526  0.62678795  0.08514744  1
  P  P23  1  0.66439557  0.03983085  0.08512581  1
  P  P24  1  0.62692994  0.67003823  0.91908383  1
  P  P25  1  0.04684648  0.37220595  0.91946478  1
  P  P26  1  0.32914923  0.95954022  0.91987285  1
  P  P27  1  0.62905702  0.95524311  0.42002119  1
  P  P28  1  0.32650021  0.37432273  0.41932058  1
  P  P29  1  0.04141967  0.66991215  0.41944147  1
  S  S30  1  0.29346924  0.00250347  0.24996216  1
  S  S31  1  0.70618842  0.70535587  0.25128186  1
  S  S32  1  0.99948409  0.29127084  0.25020435  1
  S  S33  1  0.29238813  0.29205589  0.75088139  1
  S  S34  1  0.99797143  0.70585744  0.75063048  1
  S  S35  1  0.70973354  0.00165133  0.74961506  1
  S  S36  1  0.95779168  0.33622187  0.58454444  1
  S  S37  1  0.66612629  0.62313014  0.58458462  1
  S  S38  1  0.37952546  0.33664011  0.08453980  1
  O  O39  1  0.20569686  0.01968047  0.30183032  1
  O  O40  1  0.81064613  0.78902558  0.30379241  1
  O  O41  1  0.98193288  0.18557423  0.30184976  1
  O  O42  1  0.20982348  0.18835206  0.80347625  1
  O  O43  1  0.97732006  0.78848534  0.80344972  1
  O  O44  1  0.81492233  0.01906683  0.80138474  1
  O  O45  1  0.77916061  0.96944914  0.69427174  1
  O  O46  1  0.18654866  0.22019705  0.69703946  1
  O  O47  1  0.03211477  0.81178754  0.69691079  1
  O  O48  1  0.77669791  0.81052788  0.19741120  1
  O  O49  1  0.03112144  0.22144455  0.19486633  1
  O  O50  1  0.19178083  0.97012501  0.19473259  1
  O  O51  1  0.87631120  0.36124896  0.63701016  1
  O  O52  1  0.49333039  0.12769586  0.63755600  1
  O  O53  1  0.64688666  0.51880444  0.63651119  1
  O  O54  1  0.87207206  0.50974092  0.13775860  1
  O  O55  1  0.63031625  0.12515817  0.13805439  1
  O  O56  1  0.48441570  0.36062364  0.13703708  1
  O  O57  1  0.46506218  0.30931229  0.03016513  1
  O  O58  1  0.83985776  0.52955162  0.02776472  1
  O  O59  1  0.68817357  0.16416120  0.02825172  1
  O  O60  1  0.47657987  0.16182826  0.52792073  1
  O  O61  1  0.68932466  0.53480216  0.52961539  1
  O  O62  1  0.84261409  0.31231231  0.53015497  1
  O  O63  1  0.53974383  0.69104966  0.97276003  1
  O  O64  1  0.14613614  0.45385505  0.97589368  1
  O  O65  1  0.30653600  0.85588238  0.97555001  1
  O  O66  1  0.54815816  0.85411569  0.47607943  1
  O  O67  1  0.30844219  0.46201485  0.47348699  1
  O  O68  1  0.15111731  0.69348745  0.47289097  1
  O  O69  1  0.13198510  0.63521746  0.36246878  1
  O  O70  1  0.50121760  0.86349320  0.36453189  1
  O  O71  1  0.36140270  0.49708941  0.36257137  1
  O  O72  1  0.13951388  0.49847046  0.86416828  1
  O  O73  1  0.36289667  0.86505445  0.86412500  1
  O  O74  1  0.50374228  0.63763930  0.86208874  1
  O  O75  1  0.01434309  0.82252702  0.40734849  1
  O  O76  1  0.80887596  0.98460490  0.40784614  1
  O  O77  1  0.17695475  0.19255473  0.40788865  1
  O  O78  1  0.01682321  0.19126904  0.90798311  1
  O  O79  1  0.17571277  0.98459149  0.90762961  1
  O  O80  1  0.80718889  0.82253803  0.90757310  1
  O  O81  1  0.96103119  0.16813450  0.58715742  1
  O  O82  1  0.19527597  0.03007649  0.58570978  1
  O  O83  1  0.82413009  0.80204473  0.58704554  1
  O  O84  1  0.98255343  0.81183282  0.08662417  1
  O  O85  1  0.83950694  0.04053577  0.08672812  1
  O  O86  1  0.20343904  0.17294566  0.08785396  1
  O  O87  1  0.68286710  0.15423640  0.74536658  1
  O  O88  1  0.47228912  0.32149773  0.74500974  1
  O  O89  1  0.84669582  0.52612563  0.74432711  1
  O  O90  1  0.67750534  0.52554810  0.24526432  1
  O  O91  1  0.84787378  0.31908117  0.24612016  1
  O  O92  1  0.47254051  0.15484976  0.24559348  1
  O  O93  1  0.63410873  0.49303385  0.92327679  1
  O  O94  1  0.86141694  0.36548383  0.92208503  1
  O  O95  1  0.50536065  0.14333181  0.92349146  1
  O  O96  1  0.63728371  0.14152631  0.42358987  1
  O  O97  1  0.50505219  0.36671716  0.42362780  1
  O  O98  1  0.85722235  0.49382001  0.42445435  1
  O  O99  1  0.35365873  0.48899541  0.07750181  1
  O  O100  1  0.14118455  0.64084936  0.07725166  1
  O  O101  1  0.50250833  0.85870033  0.07664013  1
  O  O102  1  0.36124665  0.85934362  0.57707392  1
  O  O103  1  0.50865421  0.64157784  0.57779779  1
  O  O104  1  0.13358864  0.48804779  0.57700533  1
  O  O105  1  0.31243632  0.83633056  0.25782987  1
  O  O106  1  0.52240706  0.68801614  0.25896451  1
  O  O107  1  0.16559367  0.47589246  0.25785476  1
  O  O108  1  0.31057993  0.47680005  0.75846231  1
  O  O109  1  0.16390457  0.68714783  0.75845893  1
  O  O110  1  0.52463085  0.83596392  0.75747335  1
