# generated using pymatgen
data_CaHf3SiS5O24
_symmetry_space_group_name_H-M   'P 1'
_cell_length_a   9.02787010
_cell_length_b   9.02054586
_cell_length_c   23.22480292
_cell_angle_alpha   89.80272188
_cell_angle_beta   89.86265464
_cell_angle_gamma   120.00698253
_symmetry_Int_Tables_number   1
_chemical_formula_structural   CaHf3SiS5O24
_chemical_formula_sum   'Ca3 Hf9 Si3 S15 O72'
_cell_volume   1637.80706631
_cell_formula_units_Z   3
loop_
 _symmetry_equiv_pos_site_id
 _symmetry_equiv_pos_as_xyz
  1  'x, y, z'
loop_
 _atom_site_type_symbol
 _atom_site_label
 _atom_site_symmetry_multiplicity
 _atom_site_fract_x
 _atom_site_fract_y
 _atom_site_fract_z
 _atom_site_occupancy
  Ca  Ca0  1  0.99881727  0.99955690  0.35923667  1
  Ca  Ca1  1  0.66300606  0.33707877  0.69054109  1
  Ca  Ca2  1  0.66655085  0.33263219  0.18636185  1
  Hf  Hf3  1  0.00635380  0.00715667  0.86030143  1
  Hf  Hf4  1  0.99314068  0.99299312  0.64488918  1
  Hf  Hf5  1  0.00087261  0.00177695  0.14478251  1
  Hf  Hf6  1  0.66586484  0.32663322  0.97378309  1
  Hf  Hf7  1  0.67041465  0.34461930  0.48193458  1
  Hf  Hf8  1  0.32334254  0.66398483  0.01632062  1
  Hf  Hf9  1  0.33904775  0.66779243  0.52459251  1
  Hf  Hf10  1  0.33382505  0.66743053  0.30993390  1
  Hf  Hf11  1  0.32544668  0.67004470  0.81299548  1
  Si  Si12  1  0.66954582  0.62634870  0.58494373  1
  Si  Si13  1  0.04535266  0.38052741  0.91604153  1
  Si  Si14  1  0.33402197  0.95397060  0.91539351  1
  S  S15  1  0.28366386  0.99260605  0.25053287  1
  S  S16  1  0.70863475  0.71574108  0.25054265  1
  S  S17  1  0.00778123  0.29213379  0.25056890  1
  S  S18  1  0.27913880  0.28660174  0.75126530  1
  S  S19  1  0.00657809  0.72098616  0.75146163  1
  S  S20  1  0.71343385  0.99120826  0.75165278  1
  S  S21  1  0.95756513  0.33111038  0.58219226  1
  S  S22  1  0.37423201  0.04301373  0.58228170  1
  S  S23  1  0.96077654  0.62945213  0.08313905  1
  S  S24  1  0.66701256  0.03764246  0.08261340  1
  S  S25  1  0.37315008  0.33485013  0.08316649  1
  S  S26  1  0.61805806  0.66514284  0.91637889  1
  S  S27  1  0.60924849  0.95411523  0.41733669  1
  S  S28  1  0.34183127  0.38887143  0.41782818  1
  S  S29  1  0.04645401  0.65606184  0.41760036  1
  O  O30  1  0.20729954  0.01748949  0.30171988  1
  O  O31  1  0.80976108  0.79167902  0.30154056  1
  O  O32  1  0.98142699  0.18985192  0.30172886  1
  O  O33  1  0.18636035  0.17696415  0.80219327  1
  O  O34  1  0.98556904  0.80799537  0.80182376  1
  O  O35  1  0.82044265  0.00913020  0.80220587  1
  O  O36  1  0.80076351  0.97142656  0.69838743  1
  O  O37  1  0.17310980  0.20483393  0.69872370  1
  O  O38  1  0.03191957  0.82924479  0.69839277  1
  O  O39  1  0.79277508  0.82907280  0.19835254  1
  O  O40  1  0.03679348  0.20835182  0.19851179  1
  O  O41  1  0.17155596  0.96438670  0.19850993  1
  O  O42  1  0.89098512  0.36765089  0.63321453  1
  O  O43  1  0.47955028  0.10306555  0.63291328  1
  O  O44  1  0.62438716  0.50801529  0.63903058  1
  O  O45  1  0.89222994  0.52773433  0.13515723  1
  O  O46  1  0.63260768  0.10531321  0.13437686  1
  O  O47  1  0.47278580  0.36351012  0.13514901  1
  O  O48  1  0.45239069  0.30173599  0.03265560  1
  O  O49  1  0.84907541  0.55218411  0.03284133  1
  O  O50  1  0.70118010  0.15367961  0.03243813  1
  O  O51  1  0.46034307  0.15541108  0.53049283  1
  O  O52  1  0.70007522  0.53250546  0.52672511  1
  O  O53  1  0.84376835  0.29953088  0.53057961  1
  O  O54  1  0.54174844  0.69695556  0.96822510  1
  O  O55  1  0.16745681  0.46690116  0.97223302  1
  O  O56  1  0.30807053  0.83555830  0.97198409  1
  O  O57  1  0.51996782  0.84389061  0.46781138  1
  O  O58  1  0.31916114  0.47614091  0.46805751  1
  O  O59  1  0.15318867  0.67740611  0.46804559  1
  O  O60  1  0.13108911  0.63308682  0.36476628  1
  O  O61  1  0.50182315  0.86890230  0.36472756  1
  O  O62  1  0.36845608  0.49729490  0.36505100  1
  O  O63  1  0.13938052  0.50204671  0.86022824  1
  O  O64  1  0.37145623  0.86645053  0.85996295  1
  O  O65  1  0.51026195  0.63273886  0.86511448  1
  O  O66  1  0.02446311  0.80345207  0.41136795  1
  O  O67  1  0.77600449  0.96938313  0.41195613  1
  O  O68  1  0.19213460  0.22113069  0.41231800  1
  O  O69  1  0.01680580  0.19058376  0.90550423  1
  O  O70  1  0.16530832  0.96955353  0.90453094  1
  O  O71  1  0.78927300  0.81571571  0.90697637  1
  O  O72  1  0.97999451  0.17987558  0.58964545  1
  O  O73  1  0.20495350  0.03013519  0.59028069  1
  O  O74  1  0.83997016  0.81778087  0.59329704  1
  O  O75  1  0.98070996  0.80539442  0.09339287  1
  O  O76  1  0.82689605  0.02441450  0.09277258  1
  O  O77  1  0.19714927  0.17695739  0.09323197  1
  O  O78  1  0.69542119  0.14032788  0.74503027  1
  O  O79  1  0.44387006  0.29742229  0.74785039  1
  O  O80  1  0.86110661  0.55177060  0.74599352  1
  O  O81  1  0.67861744  0.54448879  0.24074734  1
  O  O82  1  0.86633456  0.32173233  0.24056425  1
  O  O83  1  0.45509049  0.13396362  0.24064660  1
  O  O84  1  0.63739880  0.51366025  0.92771693  1
  O  O85  1  0.86155986  0.36676746  0.93008870  1
  O  O86  1  0.49751179  0.14292413  0.92934213  1
  O  O87  1  0.62227347  0.12283385  0.42523886  1
  O  O88  1  0.49797009  0.37388079  0.42558044  1
  O  O89  1  0.87683063  0.49543253  0.42467126  1
  O  O90  1  0.34791285  0.48213322  0.07256720  1
  O  O91  1  0.13503509  0.65595520  0.07276422  1
  O  O92  1  0.52533266  0.86357272  0.07077972  1
  O  O93  1  0.34182319  0.86762482  0.56784765  1
  O  O94  1  0.51114444  0.65804308  0.56659090  1
  O  O95  1  0.12904478  0.48085757  0.56802216  1
  O  O96  1  0.29439415  0.83015344  0.25838533  1
  O  O97  1  0.53583561  0.70537175  0.25843098  1
  O  O98  1  0.16987310  0.46477942  0.25848098  1
  O  O99  1  0.29609974  0.45790842  0.75862883  1
  O  O100  1  0.16776813  0.71266289  0.75678653  1
  O  O101  1  0.54571020  0.83113648  0.75748607  1
