# generated using pymatgen
data_Na9Ca5NbP6(SO12)3
_symmetry_space_group_name_H-M   'P 1'
_cell_length_a   9.34360316
_cell_length_b   9.34360281
_cell_length_c   23.01135524
_cell_angle_alpha   89.85638017
_cell_angle_beta   90.14361983
_cell_angle_gamma   119.82468939
_symmetry_Int_Tables_number   1
_chemical_formula_structural   Na9Ca5NbP6(SO12)3
_chemical_formula_sum   'Na18 Ca10 Nb2 P12 S6 O72'
_cell_volume   1742.86702690
_cell_formula_units_Z   2
loop_
 _symmetry_equiv_pos_site_id
 _symmetry_equiv_pos_as_xyz
  1  'x, y, z'
loop_
 _atom_site_type_symbol
 _atom_site_label
 _atom_site_symmetry_multiplicity
 _atom_site_fract_x
 _atom_site_fract_y
 _atom_site_fract_z
 _atom_site_occupancy
  Na  Na0  1  0.34404233  0.33461801  0.25257677  1
  Na  Na1  1  0.66538199  0.65595767  0.75257677  1
  Na  Na2  1  0.03087310  0.69937491  0.58867979  1
  Na  Na3  1  0.66686745  0.96773521  0.58731647  1
  Na  Na4  1  0.30062509  0.96912690  0.08867979  1
  Na  Na5  1  0.03226479  0.33313255  0.08731647  1
  Na  Na6  1  0.96346726  0.67379884  0.90527182  1
  Na  Na7  1  0.70803526  0.03238750  0.90557192  1
  Na  Na8  1  0.32910885  0.29281169  0.90530256  1
  Na  Na9  1  0.96761250  0.29196474  0.40557192  1
  Na  Na10  1  0.32620116  0.03653274  0.40527182  1
  Na  Na11  1  0.70718831  0.67089115  0.40530256  1
  Na  Na12  1  0.02047486  0.02036233  0.49481947  1
  Na  Na13  1  0.97963767  0.97952514  0.99481947  1
  Na  Na14  1  0.66646246  0.31715865  0.82402874  1
  Na  Na15  1  0.68284135  0.33353754  0.32402874  1
  Na  Na16  1  0.35743021  0.68736350  0.17208348  1
  Na  Na17  1  0.31263650  0.64256979  0.67208348  1
  Ca  Ca18  1  0.99044506  0.99181155  0.34244493  1
  Ca  Ca19  1  0.00818845  0.00955494  0.84244493  1
  Ca  Ca20  1  0.01451736  0.01353788  0.66172807  1
  Ca  Ca21  1  0.98646212  0.98548264  0.16172807  1
  Ca  Ca22  1  0.65690231  0.32434219  0.68663625  1
  Ca  Ca23  1  0.67565781  0.34309769  0.18663625  1
  Ca  Ca24  1  0.66751150  0.33941714  0.97852567  1
  Ca  Ca25  1  0.66058286  0.33248850  0.47852567  1
  Ca  Ca26  1  0.34144367  0.66597228  0.01539870  1
  Ca  Ca27  1  0.33402772  0.65855633  0.51539870  1
  Nb  Nb28  1  0.33313910  0.67203221  0.31687335  1
  Nb  Nb29  1  0.32796779  0.66686090  0.81687335  1
  P  P30  1  0.31095166  0.99672932  0.25174821  1
  P  P31  1  0.67667813  0.68453397  0.25683957  1
  P  P32  1  0.01218460  0.32205711  0.25343716  1
  P  P33  1  0.31546603  0.32332187  0.75683957  1
  P  P34  1  0.00327068  0.68904834  0.75174821  1
  P  P35  1  0.67794289  0.98781540  0.75343716  1
  P  P36  1  0.62989425  0.66812931  0.91285996  1
  P  P37  1  0.03831333  0.37157179  0.91864159  1
  P  P38  1  0.33319897  0.96105227  0.91873845  1
  P  P39  1  0.62842821  0.96168667  0.41864159  1
  P  P40  1  0.33187069  0.37010575  0.41285996  1
  P  P41  1  0.03894773  0.66680103  0.41873845  1
  S  S42  1  0.96204398  0.32820314  0.58140255  1
  S  S43  1  0.35768732  0.02495069  0.58020008  1
  S  S44  1  0.67624249  0.64598814  0.58425616  1
  S  S45  1  0.97504931  0.64231268  0.08020008  1
  S  S46  1  0.67179686  0.03795602  0.08140255  1
  S  S47  1  0.35401186  0.32375751  0.08425616  1
  O  O48  1  0.22245282  0.01875211  0.30418465  1
  O  O49  1  0.77163908  0.75497634  0.31325217  1
  O  O50  1  0.99898884  0.22217988  0.30806493  1
  O  O51  1  0.24502366  0.22836092  0.81325217  1
  O  O52  1  0.98124789  0.77754718  0.80418465  1
  O  O53  1  0.77782012  0.00101116  0.80806493  1
  O  O54  1  0.75033789  0.94815106  0.69914661  1
  O  O55  1  0.20601662  0.24142203  0.70420539  1
  O  O56  1  0.03983276  0.78952183  0.69512990  1
  O  O57  1  0.75857797  0.79398338  0.20420539  1
  O  O58  1  0.05184894  0.24966211  0.19914661  1
  O  O59  1  0.21047817  0.96016724  0.19512990  1
  O  O60  1  0.86410106  0.33695605  0.62989458  1
  O  O61  1  0.46131738  0.12343072  0.62875289  1
  O  O62  1  0.67121882  0.55205690  0.63636128  1
  O  O63  1  0.87656928  0.53868262  0.12875289  1
  O  O64  1  0.66304395  0.13589894  0.12989458  1
  O  O65  1  0.44794310  0.32878118  0.13636128  1
  O  O66  1  0.44081694  0.32062516  0.03048006  1
  O  O67  1  0.89342245  0.56815878  0.02390284  1
  O  O68  1  0.68157728  0.12257059  0.02515114  1
  O  O69  1  0.43184122  0.10657755  0.52390284  1
  O  O70  1  0.67937484  0.55918306  0.53048006  1
  O  O71  1  0.87742941  0.31842272  0.52515114  1
  O  O72  1  0.55011360  0.68687975  0.96749692  1
  O  O73  1  0.12212098  0.44154759  0.97704620  1
  O  O74  1  0.31932802  0.87599177  0.97692750  1
  O  O75  1  0.55845241  0.87787902  0.47704620  1
  O  O76  1  0.31312025  0.44988640  0.46749692  1
  O  O77  1  0.12400823  0.68067198  0.47692750  1
  O  O78  1  0.15818052  0.66628796  0.36848660  1
  O  O79  1  0.50953896  0.83937583  0.36905578  1
  O  O80  1  0.33266354  0.47885921  0.35907676  1
  O  O81  1  0.16062417  0.49046104  0.86905578  1
  O  O82  1  0.33371204  0.84181948  0.86848660  1
  O  O83  1  0.52114079  0.66733646  0.85907676  1
  O  O84  1  0.01584950  0.81795875  0.41106871  1
  O  O85  1  0.80423247  0.98834437  0.41168332  1
  O  O86  1  0.18422586  0.19251987  0.40880317  1
  O  O87  1  0.01165563  0.19576753  0.91168332  1
  O  O88  1  0.18204125  0.98415050  0.91106871  1
  O  O89  1  0.80748013  0.81577414  0.90880317  1
  O  O90  1  0.97520306  0.17551930  0.58597035  1
  O  O91  1  0.18628293  0.99818568  0.58352092  1
  O  O92  1  0.83117338  0.81217180  0.58462264  1
  O  O93  1  0.00181432  0.81371707  0.08352092  1
  O  O94  1  0.82448070  0.02479694  0.08597035  1
  O  O95  1  0.18782820  0.16882662  0.08462264  1
  O  O96  1  0.64822808  0.13299354  0.74800484  1
  O  O97  1  0.49725799  0.36930212  0.75029879  1
  O  O98  1  0.85122187  0.51696977  0.74758602  1
  O  O99  1  0.63069788  0.50274201  0.25029879  1
  O  O100  1  0.86700646  0.35177192  0.24800484  1
  O  O101  1  0.48303023  0.14877813  0.24758602  1
  O  O102  1  0.63032118  0.50241705  0.90984717  1
  O  O103  1  0.87386521  0.37236412  0.91070771  1
  O  O104  1  0.49700486  0.12634027  0.91180320  1
  O  O105  1  0.62763588  0.12613479  0.41070771  1
  O  O106  1  0.49758295  0.36967882  0.40984717  1
  O  O107  1  0.87365973  0.50299514  0.41180320  1
  O  O108  1  0.32608496  0.46807544  0.08492918  1
  O  O109  1  0.14196801  0.65385089  0.08391303  1
  O  O110  1  0.51940139  0.87227304  0.08361166  1
  O  O111  1  0.34614911  0.85803199  0.58391303  1
  O  O112  1  0.53192456  0.67391504  0.58492918  1
  O  O113  1  0.12772696  0.48059861  0.58361166  1
  O  O114  1  0.33234911  0.83989401  0.26433601  1
  O  O115  1  0.50029711  0.67503322  0.26251696  1
  O  O116  1  0.17438218  0.50106978  0.26144538  1
  O  O117  1  0.32496678  0.49970289  0.76251696  1
  O  O118  1  0.16010599  0.66765089  0.76433601  1
  O  O119  1  0.49893022  0.82561782  0.76144538  1
