# generated using pymatgen
data_Na5TaIn3SiP5O24
_symmetry_space_group_name_H-M   'P 1'
_cell_length_a   9.05277211
_cell_length_b   9.05040139
_cell_length_c   22.56777637
_cell_angle_alpha   90.02725802
_cell_angle_beta   90.11964323
_cell_angle_gamma   120.00677567
_symmetry_Int_Tables_number   1
_chemical_formula_structural   Na5TaIn3SiP5O24
_chemical_formula_sum   'Na15 Ta3 In9 Si3 P15 O72'
_cell_volume   1601.17041977
_cell_formula_units_Z   3
loop_
 _symmetry_equiv_pos_site_id
 _symmetry_equiv_pos_as_xyz
  1  'x, y, z'
loop_
 _atom_site_type_symbol
 _atom_site_label
 _atom_site_symmetry_multiplicity
 _atom_site_fract_x
 _atom_site_fract_y
 _atom_site_fract_z
 _atom_site_occupancy
  Na  Na0  1  0.63654389  0.99916960  0.25167931  1
  Na  Na1  1  0.36232678  0.36183731  0.25030954  1
  Na  Na2  1  0.00112234  0.63744049  0.25078590  1
  Na  Na3  1  0.30709844  0.34369705  0.58894328  1
  Na  Na4  1  0.03570427  0.70259268  0.58545084  1
  Na  Na5  1  0.66380510  0.95965995  0.58558704  1
  Na  Na6  1  0.29499261  0.95711157  0.07833238  1
  Na  Na7  1  0.97740101  0.67795320  0.91304077  1
  Na  Na8  1  0.69337702  0.01641577  0.91000495  1
  Na  Na9  1  0.99615020  0.99668814  0.49555815  1
  Na  Na10  1  0.01165918  0.02423797  0.99604887  1
  Na  Na11  1  0.65211175  0.33008542  0.82345718  1
  Na  Na12  1  0.66682201  0.33109520  0.33509001  1
  Na  Na13  1  0.33275536  0.65139792  0.16088805  1
  Na  Na14  1  0.34316079  0.66581100  0.66890965  1
  Ta  Ta15  1  0.66580618  0.33347950  0.97935460  1
  Ta  Ta16  1  0.66807282  0.33860389  0.47974264  1
  Ta  Ta17  1  0.32943632  0.66472794  0.81501149  1
  In  In18  1  0.99931290  0.99910199  0.35279677  1
  In  In19  1  0.00793082  0.00884506  0.84827185  1
  In  In20  1  0.99899593  0.99946724  0.65355916  1
  In  In21  1  0.99399827  0.00060804  0.14429474  1
  In  In22  1  0.66624219  0.33538689  0.68694851  1
  In  In23  1  0.66889123  0.33612157  0.18045725  1
  In  In24  1  0.32966532  0.65720014  0.01632304  1
  In  In25  1  0.33636220  0.66678712  0.51216327  1
  In  In26  1  0.33434325  0.66724226  0.32312680  1
  Si  Si27  1  0.66593496  0.62912152  0.58438711  1
  Si  Si28  1  0.03843885  0.36904275  0.91854598  1
  Si  Si29  1  0.33210396  0.96015599  0.91997389  1
  P  P30  1  0.29556336  0.99856589  0.24798143  1
  P  P31  1  0.70311036  0.70482521  0.25001478  1
  P  P32  1  0.00184768  0.29639165  0.24987304  1
  P  P33  1  0.30113123  0.30569314  0.74898886  1
  P  P34  1  0.00374169  0.69994644  0.75150511  1
  P  P35  1  0.69360035  0.99523698  0.75101781  1
  P  P36  1  0.95765160  0.33447390  0.58269270  1
  P  P37  1  0.37766165  0.04328156  0.58246376  1
  P  P38  1  0.96304762  0.63071160  0.08380999  1
  P  P39  1  0.66762981  0.03908302  0.08249971  1
  P  P40  1  0.37370633  0.33523029  0.08446311  1
  P  P41  1  0.62167071  0.66200682  0.91690092  1
  P  P42  1  0.63845325  0.97469673  0.41740307  1
  P  P43  1  0.33416617  0.36119379  0.41740885  1
  P  P44  1  0.02912914  0.66461383  0.41763857  1
  O  O45  1  0.21080078  0.03294952  0.30085743  1
  O  O46  1  0.81767219  0.78290157  0.30457952  1
  O  O47  1  0.96466034  0.18150879  0.30423517  1
  O  O48  1  0.21088071  0.19386314  0.80180859  1
  O  O49  1  0.98308631  0.78574813  0.80674232  1
  O  O50  1  0.79850617  0.01277187  0.80661960  1
  O  O51  1  0.76927717  0.96813306  0.69285909  1
  O  O52  1  0.20051526  0.23550690  0.68966618  1
  O  O53  1  0.03390571  0.80254194  0.69325275  1
  O  O54  1  0.77931226  0.81692773  0.19439205  1
  O  O55  1  0.03750814  0.22017129  0.19407814  1
  O  O56  1  0.19136888  0.96803219  0.18983586  1
  O  O57  1  0.88128120  0.36517661  0.63803291  1
  O  O58  1  0.48983418  0.11269211  0.63739568  1
  O  O59  1  0.62069224  0.50309544  0.63954023  1
  O  O60  1  0.88555887  0.53950947  0.14285068  1
  O  O61  1  0.64435503  0.11554201  0.14062816  1
  O  O62  1  0.46145900  0.34775861  0.14447150  1
  O  O63  1  0.48733512  0.32596928  0.03255236  1
  O  O64  1  0.84818942  0.52317698  0.02966122  1
  O  O65  1  0.67664793  0.15757731  0.02855511  1
  O  O66  1  0.47764212  0.15934980  0.52772539  1
  O  O67  1  0.68740564  0.52322590  0.52626405  1
  O  O68  1  0.83990173  0.31293653  0.52770203  1
  O  O69  1  0.55660153  0.70888104  0.97172196  1
  O  O70  1  0.14625815  0.44028844  0.97761347  1
  O  O71  1  0.30312469  0.85654851  0.98083647  1
  O  O72  1  0.55348649  0.86916831  0.47314442  1
  O  O73  1  0.31333774  0.44508941  0.47340050  1
  O  O74  1  0.13357260  0.68390352  0.47370712  1
  O  O75  1  0.10432171  0.63465298  0.36044858  1
  O  O76  1  0.53247685  0.89879819  0.36004979  1
  O  O77  1  0.36589659  0.46745074  0.36039111  1
  O  O78  1  0.13898123  0.50222751  0.86254114  1
  O  O79  1  0.37153678  0.85852612  0.86566822  1
  O  O80  1  0.50229676  0.63072447  0.86271496  1
  O  O81  1  0.00081808  0.81703869  0.41435507  1
  O  O82  1  0.81794582  0.99940058  0.41412478  1
  O  O83  1  0.18187150  0.18044169  0.41372217  1
  O  O84  1  0.98166056  0.17089986  0.91012167  1
  O  O85  1  0.16441494  0.97564428  0.91070107  1
  O  O86  1  0.80413205  0.80803834  0.90682577  1
  O  O87  1  0.96963623  0.16946756  0.58426691  1
  O  O88  1  0.20612705  0.04269575  0.58485306  1
  O  O89  1  0.84489329  0.81320170  0.58572040  1
  O  O90  1  0.97439684  0.80741412  0.08023651  1
  O  O91  1  0.83440915  0.03444687  0.07999417  1
  O  O92  1  0.20450494  0.16201074  0.08036873  1
  O  O93  1  0.66688787  0.14945300  0.74792172  1
  O  O94  1  0.48101747  0.33128001  0.74754937  1
  O  O95  1  0.85366330  0.51741515  0.74860971  1
  O  O96  1  0.68079048  0.52224590  0.24526618  1
  O  O97  1  0.84176370  0.31896338  0.24458376  1
  O  O98  1  0.47948713  0.15797025  0.24521706  1
  O  O99  1  0.63518256  0.49642886  0.92580733  1
  O  O100  1  0.85233750  0.37209960  0.92493071  1
  O  O101  1  0.51205687  0.14956445  0.92532150  1
  O  O102  1  0.65336526  0.15471590  0.42450069  1
  O  O103  1  0.50006879  0.34599719  0.42469509  1
  O  O104  1  0.84892944  0.49733530  0.42425251  1
  O  O105  1  0.35568800  0.49280506  0.08004548  1
  O  O106  1  0.14371519  0.65516867  0.08163987  1
  O  O107  1  0.50532347  0.86433178  0.07778700  1
  O  O108  1  0.34259166  0.85882878  0.57443309  1
  O  O109  1  0.50118132  0.65700265  0.57749974  1
  O  O110  1  0.13719611  0.49312047  0.57555477  1
  O  O111  1  0.31326353  0.83647342  0.25545197  1
  O  O112  1  0.52153342  0.68370447  0.25645648  1
  O  O113  1  0.16255547  0.47768469  0.25656675  1
  O  O114  1  0.31606263  0.48579605  0.75844984  1
  O  O115  1  0.17222515  0.68878488  0.75988839  1
  O  O116  1  0.51397282  0.82843449  0.75869820  1
