# generated using pymatgen
data_Na2TiZnP2SO12
_symmetry_space_group_name_H-M   'P 1'
_cell_length_a   8.79243069
_cell_length_b   8.82176190
_cell_length_c   21.99563807
_cell_angle_alpha   90.16852357
_cell_angle_beta   90.00000000
_cell_angle_gamma   119.89007496
_symmetry_Int_Tables_number   1
_chemical_formula_structural   Na2TiZnP2SO12
_chemical_formula_sum   'Na12 Ti6 Zn6 P12 S6 O72'
_cell_volume   1479.13895996
_cell_formula_units_Z   6
loop_
 _symmetry_equiv_pos_site_id
 _symmetry_equiv_pos_as_xyz
  1  'x, y, z'
loop_
 _atom_site_type_symbol
 _atom_site_label
 _atom_site_symmetry_multiplicity
 _atom_site_fract_x
 _atom_site_fract_y
 _atom_site_fract_z
 _atom_site_occupancy
  Na  Na0  1  0.99120062  0.63217987  0.24315309  1
  Na  Na1  1  0.64097925  0.63217987  0.74315309  1
  Na  Na2  1  0.65786762  0.96551287  0.57648609  1
  Na  Na3  1  0.30764625  0.96551287  0.07648609  1
  Na  Na4  1  0.32453362  0.29884687  0.90982009  1
  Na  Na5  1  0.97431225  0.29884687  0.40982009  1
  Na  Na6  1  0.00775414  0.97430699  0.49401898  1
  Na  Na7  1  0.96655286  0.97430699  0.99401898  1
  Na  Na8  1  0.67442114  0.30763999  0.82735198  1
  Na  Na9  1  0.63321986  0.30763999  0.32735198  1
  Na  Na10  1  0.34108714  0.64097399  0.16068598  1
  Na  Na11  1  0.29988586  0.64097399  0.66068598  1
  Ti  Ti12  1  0.99870947  0.01203227  0.64763335  1
  Ti  Ti13  1  0.01332279  0.01203227  0.14763335  1
  Ti  Ti14  1  0.66537647  0.34536527  0.98096635  1
  Ti  Ti15  1  0.67998979  0.34536527  0.48096635  1
  Ti  Ti16  1  0.33204247  0.67869927  0.31430035  1
  Ti  Ti17  1  0.34665579  0.67869927  0.81430035  1
  Zn  Zn18  1  0.99760386  0.99604579  0.34981233  1
  Zn  Zn19  1  0.99844193  0.99604579  0.84981233  1
  Zn  Zn20  1  0.66427086  0.32937879  0.68314533  1
  Zn  Zn21  1  0.66510893  0.32937879  0.18314533  1
  Zn  Zn22  1  0.33093686  0.66271279  0.01647933  1
  Zn  Zn23  1  0.33177493  0.66271279  0.51647933  1
  P  P24  1  0.29691912  0.00440758  0.25135189  1
  P  P25  1  0.00481468  0.29591696  0.25430895  1
  P  P26  1  0.29110227  0.29591696  0.75430895  1
  P  P27  1  0.70748846  0.00440758  0.75135189  1
  P  P28  1  0.96358612  0.33774058  0.58468489  1
  P  P29  1  0.67148168  0.62924996  0.58764195  1
  P  P30  1  0.95776927  0.62924996  0.08764195  1
  P  P31  1  0.37415546  0.33774058  0.08468489  1
  P  P32  1  0.63025212  0.67107458  0.91801889  1
  P  P33  1  0.33814768  0.96258396  0.92097595  1
  P  P34  1  0.62443527  0.96258396  0.42097595  1
  P  P35  1  0.04082146  0.67107458  0.41801889  1
  S  S36  1  0.70204336  0.71178247  0.24998935  1
  S  S37  1  0.00973911  0.71178247  0.74998935  1
  S  S38  1  0.36871036  0.04511547  0.58332235  1
  S  S39  1  0.67640611  0.04511547  0.08332235  1
  S  S40  1  0.03537636  0.37844947  0.91665635  1
  S  S41  1  0.34307211  0.37844947  0.41665635  1
  O  O42  1  0.20549619  0.02031420  0.30667690  1
  O  O43  1  0.80481185  0.78812307  0.30550551  1
  O  O44  1  0.98231145  0.19780281  0.31326246  1
  O  O45  1  0.21549136  0.19780281  0.81326246  1
  O  O46  1  0.98331121  0.78812307  0.80550551  1
  O  O47  1  0.81481801  0.02031420  0.80667690  1
  O  O48  1  0.79390311  0.96965600  0.69260661  1
  O  O49  1  0.16566836  0.18877764  0.69866925  1
  O  O50  1  0.02636918  0.81961580  0.69519550  1
  O  O51  1  0.79324662  0.81961580  0.19519550  1
  O  O52  1  0.02310928  0.18877764  0.19866925  1
  O  O53  1  0.17575289  0.96965600  0.19260661  1
  O  O54  1  0.87216319  0.35364720  0.64000990  1
  O  O55  1  0.47147885  0.12145607  0.63883851  1
  O  O56  1  0.64897845  0.53113581  0.64659546  1
  O  O57  1  0.88215836  0.53113581  0.14659546  1
  O  O58  1  0.64997821  0.12145607  0.13883851  1
  O  O59  1  0.48148501  0.35364720  0.14000990  1
  O  O60  1  0.46057011  0.30298900  0.02593961  1
  O  O61  1  0.83233536  0.52211064  0.03200225  1
  O  O62  1  0.69303618  0.15294880  0.02852850  1
  O  O63  1  0.45991362  0.15294880  0.52852850  1
  O  O64  1  0.68977628  0.52211064  0.53200225  1
  O  O65  1  0.84241989  0.30298900  0.52593961  1
  O  O66  1  0.53882919  0.68698120  0.97334390  1
  O  O67  1  0.13814485  0.45479007  0.97217251  1
  O  O68  1  0.31564445  0.86446981  0.97992946  1
  O  O69  1  0.54882436  0.86446981  0.47992946  1
  O  O70  1  0.31664421  0.45479007  0.47217251  1
  O  O71  1  0.14815101  0.68698120  0.47334390  1
  O  O72  1  0.12723611  0.63632300  0.35927361  1
  O  O73  1  0.49900136  0.85544464  0.36533625  1
  O  O74  1  0.35970218  0.48628280  0.36186250  1
  O  O75  1  0.12657962  0.48628280  0.86186250  1
  O  O76  1  0.35644228  0.85544464  0.86533625  1
  O  O77  1  0.50908589  0.63632300  0.85927361  1
  O  O78  1  0.00668001  0.82092703  0.40978813  1
  O  O79  1  0.81147271  0.99708172  0.41219241  1
  O  O80  1  0.18952334  0.20094796  0.41137299  1
  O  O81  1  0.01142462  0.20094796  0.91137299  1
  O  O82  1  0.18560902  0.99708172  0.91219241  1
  O  O83  1  0.81424702  0.82092703  0.90978813  1
  O  O84  1  0.96693823  0.15814392  0.58907684  1
  O  O85  1  0.19337692  0.03420622  0.58656845  1
  O  O86  1  0.84609521  0.81243169  0.58881701  1
  O  O87  1  0.96633648  0.81243169  0.08881701  1
  O  O88  1  0.84082929  0.03420622  0.08656845  1
  O  O89  1  0.19120569  0.15814392  0.08907684  1
  O  O90  1  0.67334701  0.15426003  0.74312113  1
  O  O91  1  0.47813971  0.33041472  0.74552541  1
  O  O92  1  0.85619034  0.53428096  0.74470599  1
  O  O93  1  0.67809162  0.53428096  0.24470599  1
  O  O94  1  0.85227602  0.33041472  0.24552541  1
  O  O95  1  0.48091402  0.15426003  0.24312113  1
  O  O96  1  0.63360523  0.49147692  0.92240984  1
  O  O97  1  0.86004392  0.36753922  0.91990145  1
  O  O98  1  0.51276221  0.14576469  0.92215001  1
  O  O99  1  0.63300348  0.14576469  0.42215001  1
  O  O100  1  0.50749629  0.36753922  0.41990145  1
  O  O101  1  0.85787269  0.49147692  0.42240984  1
  O  O102  1  0.34001301  0.48759403  0.07645513  1
  O  O103  1  0.14480571  0.66374872  0.07885941  1
  O  O104  1  0.52285634  0.86761496  0.07803999  1
  O  O105  1  0.34475762  0.86761496  0.57803999  1
  O  O106  1  0.51894202  0.66374872  0.57885941  1
  O  O107  1  0.14758002  0.48759403  0.57645513  1
  O  O108  1  0.30027123  0.82481092  0.25574384  1
  O  O109  1  0.52670992  0.70087322  0.25323545  1
  O  O110  1  0.17942821  0.47909869  0.25548401  1
  O  O111  1  0.29966948  0.47909869  0.75548401  1
  O  O112  1  0.17416229  0.70087322  0.75323545  1
  O  O113  1  0.52453869  0.82481092  0.75574384  1
