# generated using pymatgen
data_Na4HfZn3SiS5O24
_symmetry_space_group_name_H-M   'P 1'
_cell_length_a   8.90193761
_cell_length_b   8.90631556
_cell_length_c   22.64418181
_cell_angle_alpha   89.96948087
_cell_angle_beta   90.66385048
_cell_angle_gamma   120.01045051
_symmetry_Int_Tables_number   1
_chemical_formula_structural   Na4HfZn3SiS5O24
_chemical_formula_sum   'Na12 Hf3 Zn9 Si3 S15 O72'
_cell_volume   1554.48657062
_cell_formula_units_Z   3
loop_
 _symmetry_equiv_pos_site_id
 _symmetry_equiv_pos_as_xyz
  1  'x, y, z'
loop_
 _atom_site_type_symbol
 _atom_site_label
 _atom_site_symmetry_multiplicity
 _atom_site_fract_x
 _atom_site_fract_y
 _atom_site_fract_z
 _atom_site_occupancy
  Na  Na0  1  0.36379913  0.36425973  0.24932409  1
  Na  Na1  1  0.31217824  0.34299131  0.58827235  1
  Na  Na2  1  0.02728406  0.70006830  0.58249177  1
  Na  Na3  1  0.98899668  0.67914548  0.91695416  1
  Na  Na4  1  0.70063077  0.02937948  0.91072312  1
  Na  Na5  1  0.30797322  0.28686962  0.91832375  1
  Na  Na6  1  0.97411328  0.98598722  0.49818286  1
  Na  Na7  1  0.01526379  0.01267130  0.00281448  1
  Na  Na8  1  0.66644502  0.32389393  0.82467607  1
  Na  Na9  1  0.68043104  0.32895461  0.32740120  1
  Na  Na10  1  0.33156890  0.67819755  0.16498805  1
  Na  Na11  1  0.36356769  0.67905924  0.66163808  1
  Hf  Hf12  1  0.66700816  0.32594691  0.98469299  1
  Hf  Hf13  1  0.67026350  0.34320200  0.48025789  1
  Hf  Hf14  1  0.32516477  0.66941693  0.81466514  1
  Zn  Zn15  1  0.99505525  0.99620773  0.34662343  1
  Zn  Zn16  1  0.01251783  0.01496894  0.84851733  1
  Zn  Zn17  1  0.97288913  0.98392436  0.65018457  1
  Zn  Zn18  1  0.99571348  0.99494144  0.15251461  1
  Zn  Zn19  1  0.66173806  0.34191346  0.68145624  1
  Zn  Zn20  1  0.67496696  0.33295068  0.18292563  1
  Zn  Zn21  1  0.30768421  0.65840184  0.01525030  1
  Zn  Zn22  1  0.35976703  0.67708406  0.51348411  1
  Zn  Zn23  1  0.33320342  0.67793428  0.31730731  1
  Si  Si24  1  0.66476269  0.63401630  0.58566470  1
  Si  Si25  1  0.04029960  0.36972597  0.91870647  1
  Si  Si26  1  0.33006483  0.95966038  0.91842981  1
  S  S27  1  0.29351073  0.99951464  0.24996569  1
  S  S28  1  0.70313147  0.70334928  0.24998510  1
  S  S29  1  0.00039864  0.29444227  0.25032809  1
  S  S30  1  0.29840995  0.29543075  0.74853580  1
  S  S31  1  0.99612541  0.70352340  0.74987024  1
  S  S32  1  0.70342164  0.00286703  0.75043747  1
  S  S33  1  0.95897801  0.33252568  0.58441846  1
  S  S34  1  0.37725588  0.04035243  0.58394449  1
  S  S35  1  0.96209132  0.63305014  0.08646982  1
  S  S36  1  0.66723078  0.03175411  0.08629625  1
  S  S37  1  0.36975199  0.33567580  0.08624835  1
  S  S38  1  0.62400708  0.66572355  0.91837955  1
  S  S39  1  0.63268118  0.96308410  0.41509929  1
  S  S40  1  0.32591544  0.36551600  0.41524821  1
  S  S41  1  0.04454264  0.67015819  0.41759835  1
  O  O42  1  0.21422382  0.02971347  0.30288854  1
  O  O43  1  0.80780565  0.78294015  0.30410961  1
  O  O44  1  0.97592820  0.19082703  0.30415951  1
  O  O45  1  0.21650391  0.19927297  0.80339077  1
  O  O46  1  0.98043167  0.78651649  0.80416871  1
  O  O47  1  0.79993501  0.01950899  0.80646721  1
  O  O48  1  0.78564094  0.97931383  0.69834517  1
  O  O49  1  0.19268663  0.21442430  0.69457283  1
  O  O50  1  0.02102516  0.80606947  0.69587783  1
  O  O51  1  0.78250000  0.80692411  0.19656619  1
  O  O52  1  0.02952917  0.21418912  0.19729627  1
  O  O53  1  0.18914048  0.97505278  0.19569205  1
  O  O54  1  0.87693929  0.35347400  0.63728205  1
  O  O55  1  0.48266405  0.11208438  0.63766132  1
  O  O56  1  0.62166890  0.50516842  0.64084885  1
  O  O57  1  0.87015292  0.52376231  0.13701326  1
  O  O58  1  0.64634874  0.12224533  0.13680142  1
  O  O59  1  0.47393982  0.35006458  0.13985122  1
  O  O60  1  0.46251200  0.31831145  0.03176234  1
  O  O61  1  0.85896517  0.54607430  0.02970809  1
  O  O62  1  0.68618324  0.14022048  0.02994995  1
  O  O63  1  0.46918514  0.15029307  0.53098585  1
  O  O64  1  0.69503077  0.53220275  0.52796548  1
  O  O65  1  0.84735045  0.30515160  0.53035449  1
  O  O66  1  0.55112779  0.69931011  0.97067455  1
  O  O67  1  0.17184909  0.44200562  0.97407718  1
  O  O68  1  0.29720855  0.84268277  0.97548249  1
  O  O69  1  0.55501323  0.86333151  0.46929205  1
  O  O70  1  0.30680115  0.44655641  0.46965827  1
  O  O71  1  0.14168105  0.68730454  0.47340054  1
  O  O72  1  0.12325220  0.64142885  0.36533094  1
  O  O73  1  0.52424090  0.88552812  0.36184033  1
  O  O74  1  0.35749782  0.47230360  0.36179287  1
  O  O75  1  0.12985293  0.49996004  0.86119870  1
  O  O76  1  0.38171917  0.87756417  0.86125248  1
  O  O77  1  0.51012330  0.62945746  0.86437438  1
  O  O78  1  0.01811438  0.82079623  0.41206705  1
  O  O79  1  0.80820305  0.98451420  0.41010665  1
  O  O80  1  0.17440452  0.18955228  0.40977163  1
  O  O81  1  0.99576791  0.17132221  0.90895172  1
  O  O82  1  0.15996321  0.97950457  0.90861243  1
  O  O83  1  0.79901395  0.81212527  0.90842537  1
  O  O84  1  0.98887081  0.18272582  0.58702195  1
  O  O85  1  0.20892181  0.03961866  0.58621773  1
  O  O86  1  0.84918485  0.81796521  0.58653301  1
  O  O87  1  0.97285218  0.80447870  0.08808101  1
  O  O88  1  0.83059355  0.02600680  0.08840726  1
  O  O89  1  0.19826413  0.17527186  0.08662858  1
  O  O90  1  0.68154107  0.15671745  0.74514871  1
  O  O91  1  0.47199593  0.31133484  0.74657658  1
  O  O92  1  0.84642325  0.52540231  0.74628616  1
  O  O93  1  0.67923805  0.52358774  0.24533182  1
  O  O94  1  0.84500984  0.31567776  0.24402368  1
  O  O95  1  0.46884677  0.16159200  0.24525579  1
  O  O96  1  0.63692598  0.50356721  0.92431556  1
  O  O97  1  0.85272876  0.36749535  0.92552575  1
  O  O98  1  0.50234535  0.15825862  0.92396905  1
  O  O99  1  0.64989771  0.14040416  0.42198756  1
  O  O100  1  0.48782360  0.34720328  0.42243148  1
  O  O101  1  0.86507527  0.50552742  0.42179292  1
  O  O102  1  0.35956217  0.49470838  0.08113131  1
  O  O103  1  0.13397424  0.64722875  0.08327582  1
  O  O104  1  0.51333163  0.85979483  0.07924472  1
  O  O105  1  0.33923935  0.85948971  0.57574784  1
  O  O106  1  0.48694446  0.64287091  0.57705972  1
  O  O107  1  0.12857604  0.49493454  0.57718073  1
  O  O108  1  0.31430022  0.84416052  0.25579666  1
  O  O109  1  0.52340485  0.67916473  0.25473201  1
  O  O110  1  0.16257808  0.46951151  0.25613188  1
  O  O111  1  0.31909066  0.47489977  0.75373978  1
  O  O112  1  0.16095588  0.69041904  0.75391867  1
  O  O113  1  0.52720824  0.83945534  0.75384892  1
