# generated using pymatgen
data_NaLaNb3SiP5O24
_symmetry_space_group_name_H-M   'P 1'
_cell_length_a   8.94698049
_cell_length_b   8.94768548
_cell_length_c   23.31308958
_cell_angle_alpha   89.76580503
_cell_angle_beta   90.15021387
_cell_angle_gamma   120.04133023
_symmetry_Int_Tables_number   1
_chemical_formula_structural   NaLaNb3SiP5O24
_chemical_formula_sum   'Na3 La3 Nb9 Si3 P15 O72'
_cell_volume   1615.59655590
_cell_formula_units_Z   3
loop_
 _symmetry_equiv_pos_site_id
 _symmetry_equiv_pos_as_xyz
  1  'x, y, z'
loop_
 _atom_site_type_symbol
 _atom_site_label
 _atom_site_symmetry_multiplicity
 _atom_site_fract_x
 _atom_site_fract_y
 _atom_site_fract_z
 _atom_site_occupancy
  Na  Na0  1  0.00076315  -0.00000953  0.99624290  1
  Na  Na1  1  0.65975860  0.33063981  0.83659967  1
  Na  Na2  1  0.66437306  0.33151834  0.33483975  1
  La  La3  1  0.00492369  0.00154096  0.85306433  1
  La  La4  1  0.66739547  0.33451000  0.97894457  1
  La  La5  1  0.66599493  0.33465222  0.47940084  1
  Nb  Nb6  1  0.99333003  0.99702433  0.35763563  1
  Nb  Nb7  1  0.00317176  0.00380703  0.65169550  1
  Nb  Nb8  1  0.99694123  0.00074864  0.15254132  1
  Nb  Nb9  1  0.66465194  0.33341384  0.67987547  1
  Nb  Nb10  1  0.66892888  0.33584984  0.18711059  1
  Nb  Nb11  1  0.33341925  0.66622607  0.02471845  1
  Nb  Nb12  1  0.33297771  0.66572730  0.52107549  1
  Nb  Nb13  1  0.33194682  0.66561822  0.30510474  1
  Nb  Nb14  1  0.33384981  0.66631698  0.80772249  1
  Si  Si15  1  0.71714258  0.70845756  0.25339638  1
  Si  Si16  1  0.99081905  0.28125803  0.25275900  1
  Si  Si17  1  0.30446157  0.29627283  0.75093939  1
  P  P18  1  0.28873143  0.00909928  0.25279148  1
  P  P19  1  0.99233162  0.69550954  0.74879919  1
  P  P20  1  0.70409660  0.00716652  0.74851301  1
  P  P21  1  0.96546490  0.32952335  0.58243934  1
  P  P22  1  0.36282119  0.03236795  0.58287498  1
  P  P23  1  0.67145403  0.63791530  0.58256197  1
  P  P24  1  0.96485155  0.63453227  0.08657567  1
  P  P25  1  0.66886831  0.03648188  0.08637800  1
  P  P26  1  0.36681804  0.32924387  0.08618130  1
  P  P27  1  0.60751080  0.66876358  0.91677708  1
  P  P28  1  0.05982452  0.39337706  0.91678617  1
  P  P29  1  0.33214219  0.93981524  0.91696555  1
  P  P30  1  0.61566097  0.93842644  0.41248581  1
  P  P31  1  0.32070278  0.38312914  0.41211739  1
  P  P32  1  0.06330053  0.68068164  0.41227510  1
  O  O33  1  0.20828228  0.04332815  0.30582837  1
  O  O34  1  0.84320093  0.79748174  0.30912850  1
  O  O35  1  0.95861970  0.15589240  0.30833153  1
  O  O36  1  0.25419416  0.18722393  0.80840962  1
  O  O37  1  0.93613545  0.74255327  0.80345550  1
  O  O38  1  0.80697962  0.05863376  0.80337601  1
  O  O39  1  0.80108816  0.97422704  0.69942220  1
  O  O40  1  0.16569014  0.18723745  0.69907388  1
  O  O41  1  0.02064125  0.82483334  0.69974409  1
  O  O42  1  0.81149229  0.83131341  0.19823044  1
  O  O43  1  0.02570000  0.19204346  0.19762681  1
  O  O44  1  0.17411179  0.97606694  0.19965463  1
  O  O45  1  0.87142717  0.36625900  0.63140710  1
  O  O46  1  0.49597546  0.12920280  0.63183203  1
  O  O47  1  0.63415512  0.50277052  0.63126340  1
  O  O48  1  0.86404644  0.50524482  0.13737085  1
  O  O49  1  0.64104890  0.13448305  0.13682632  1
  O  O50  1  0.49411947  0.35763388  0.13689358  1
  O  O51  1  0.42512655  0.28327788  0.03165330  1
  O  O52  1  0.85736109  0.57829175  0.03256194  1
  O  O53  1  0.71844290  0.14195862  0.03181183  1
  O  O54  1  0.41695097  0.13866303  0.52885292  1
  O  O55  1  0.72125673  0.58313451  0.52844584  1
  O  O56  1  0.86210078  0.28231482  0.52795518  1
  O  O57  1  0.50083699  0.65271304  0.97293308  1
  O  O58  1  0.15079671  0.49873103  0.97310935  1
  O  O59  1  0.34801321  0.84815798  0.97338639  1
  O  O60  1  0.52683466  0.83713840  0.46880532  1
  O  O61  1  0.31009972  0.47389036  0.46816965  1
  O  O62  1  0.16440949  0.68996078  0.46863273  1
  O  O63  1  0.15964134  0.67023543  0.35944727  1
  O  O64  1  0.50992564  0.84338877  0.35954236  1
  O  O65  1  0.33152185  0.49186856  0.35910696  1
  O  O66  1  0.16606435  0.48631600  0.86154584  1
  O  O67  1  0.31778635  0.83514723  0.86189918  1
  O  O68  1  0.51626746  0.68440362  0.86129890  1
  O  O69  1  0.05654889  0.85086827  0.40723345  1
  O  O70  1  0.79507460  0.94716164  0.40787371  1
  O  O71  1  0.15377391  0.20459071  0.40679260  1
  O  O72  1  0.05034786  0.21978813  0.92382175  1
  O  O73  1  0.16702100  0.94713828  0.92507106  1
  O  O74  1  0.78056894  0.83286964  0.92405433  1
  O  O75  1  0.99724188  0.18154472  0.60162314  1
  O  O76  1  0.18274555  0.99640660  0.60285377  1
  O  O77  1  0.81423773  0.81561212  0.60316181  1
  O  O78  1  0.00010725  0.81723643  0.10211549  1
  O  O79  1  0.82089338  0.00400586  0.10077337  1
  O  O80  1  0.18490957  0.17735916  0.10090728  1
  O  O81  1  0.67488550  0.15792475  0.72970702  1
  O  O82  1  0.49497142  0.33040837  0.72951848  1
  O  O83  1  0.84709646  0.51321062  0.72958045  1
  O  O84  1  0.69195971  0.51671838  0.23998324  1
  O  O85  1  0.81968496  0.29878154  0.23960621  1
  O  O86  1  0.47013172  0.16811048  0.24115901  1
  O  O87  1  0.61560624  0.50380468  0.91042140  1
  O  O88  1  0.88659890  0.38516204  0.91041467  1
  O  O89  1  0.49689439  0.11383962  0.91130997  1
  O  O90  1  0.64053967  0.11911649  0.41250603  1
  O  O91  1  0.48060821  0.36480582  0.41174767  1
  O  O92  1  0.88350996  0.52288114  0.41232449  1
  O  O93  1  0.35321368  0.49434838  0.07783514  1
  O  O94  1  0.14099214  0.64359160  0.07808963  1
  O  O95  1  0.50516435  0.85711518  0.07796490  1
  O  O96  1  0.35207473  0.85484664  0.57181903  1
  O  O97  1  0.50310811  0.64678157  0.57152976  1
  O  O98  1  0.14602701  0.49418211  0.57151405  1
  O  O99  1  0.31249273  0.85031879  0.26115165  1
  O  O100  1  0.52678857  0.68784157  0.26203015  1
  O  O101  1  0.15510678  0.47533450  0.26185561  1
  O  O102  1  0.32031860  0.48605378  0.75914575  1
  O  O103  1  0.15888720  0.68552826  0.75718554  1
  O  O104  1  0.52342828  0.84575187  0.75676289  1
