# generated using pymatgen
data_Na5Al2In2P5SO24
_symmetry_space_group_name_H-M   'P 1'
_cell_length_a   8.79075846
_cell_length_b   8.77506431
_cell_length_c   22.14303013
_cell_angle_alpha   90.37838552
_cell_angle_beta   89.73442410
_cell_angle_gamma   119.95804467
_symmetry_Int_Tables_number   1
_chemical_formula_structural   Na5Al2In2P5SO24
_chemical_formula_sum   'Na15 Al6 In6 P15 S3 O72'
_cell_volume   1479.85035595
_cell_formula_units_Z   3
loop_
 _symmetry_equiv_pos_site_id
 _symmetry_equiv_pos_as_xyz
  1  'x, y, z'
loop_
 _atom_site_type_symbol
 _atom_site_label
 _atom_site_symmetry_multiplicity
 _atom_site_fract_x
 _atom_site_fract_y
 _atom_site_fract_z
 _atom_site_occupancy
  Na  Na0  1  0.63870474  0.00060594  0.25029402  1
  Na  Na1  1  0.99857291  0.36008468  0.74974121  1
  Na  Na2  1  0.36173931  0.99961247  0.75056223  1
  Na  Na3  1  0.03538240  0.70045702  0.58111083  1
  Na  Na4  1  0.66305894  0.96445295  0.58264011  1
  Na  Na5  1  0.30491350  0.97614481  0.08361161  1
  Na  Na6  1  0.02644608  0.33171679  0.08494200  1
  Na  Na7  1  0.97014096  0.66377239  0.91726748  1
  Na  Na8  1  0.69916778  0.67068382  0.41704669  1
  Na  Na9  1  0.01835849  0.01713008  0.49534899  1
  Na  Na10  1  0.99550617  0.00551421  0.00314179  1
  Na  Na11  1  0.65474538  0.32485680  0.83510463  1
  Na  Na12  1  0.68010131  0.33910633  0.33227368  1
  Na  Na13  1  0.33668608  0.65010108  0.16940756  1
  Na  Na14  1  0.34493065  0.65209735  0.66516074  1
  Al  Al15  1  0.98639989  0.99149347  0.34719047  1
  Al  Al16  1  0.99037913  0.99895902  0.15198415  1
  Al  Al17  1  0.67826958  0.35262322  0.18331961  1
  Al  Al18  1  0.67524727  0.32685018  0.47996871  1
  Al  Al19  1  0.33253906  0.66707360  0.02234070  1
  Al  Al20  1  0.32369093  0.65821476  0.31543142  1
  In  In21  1  0.00498309  0.01088975  0.85548962  1
  In  In22  1  0.00432723  0.00421983  0.64549936  1
  In  In23  1  0.66660233  0.34076630  0.68158017  1
  In  In24  1  0.66318245  0.32604122  0.98927153  1
  In  In25  1  0.32974243  0.66599962  0.50922870  1
  In  In26  1  0.33809766  0.66833218  0.81825368  1
  P  P27  1  0.70739080  0.70537558  0.25033849  1
  P  P28  1  0.00276110  0.29160343  0.25011983  1
  P  P29  1  0.29961575  0.29910168  0.75035617  1
  P  P30  1  0.99707041  0.70226956  0.75156069  1
  P  P31  1  0.70238086  0.99800185  0.74809345  1
  P  P32  1  0.96033800  0.33475672  0.57973080  1
  P  P33  1  0.37921564  0.04795378  0.57846070  1
  P  P34  1  0.66264720  0.62014384  0.57595618  1
  P  P35  1  0.96285548  0.63616822  0.08572067  1
  P  P36  1  0.66748524  0.03330435  0.08895531  1
  P  P37  1  0.37051983  0.33385018  0.08856177  1
  P  P38  1  0.04373485  0.37653617  0.92244084  1
  P  P39  1  0.33597915  0.95953715  0.92152201  1
  P  P40  1  0.63201193  0.96750494  0.41141604  1
  P  P41  1  0.03546674  0.66972520  0.41258918  1
  S  S42  1  0.28558122  -0.00082821  0.25065082  1
  S  S43  1  0.62223071  0.66586120  0.92227580  1
  S  S44  1  0.32693571  0.36214608  0.41117358  1
  O  O45  1  0.19600380  0.02143183  0.30338801  1
  O  O46  1  0.81709666  0.78615078  0.30790206  1
  O  O47  1  0.96596969  0.16330653  0.30270358  1
  O  O48  1  0.22037645  0.18614471  0.80666238  1
  O  O49  1  0.97791136  0.78562333  0.81009609  1
  O  O50  1  0.81838544  0.02804169  0.80306597  1
  O  O51  1  0.77771984  0.97633920  0.68814095  1
  O  O52  1  0.18619527  0.22007691  0.69412868  1
  O  O53  1  0.02438065  0.80955002  0.69385831  1
  O  O54  1  0.79876999  0.83457518  0.19777844  1
  O  O55  1  0.03129023  0.20889128  0.19227645  1
  O  O56  1  0.18259141  0.97451302  0.19465146  1
  O  O57  1  0.89401737  0.36358351  0.64097909  1
  O  O58  1  0.47204678  0.11132319  0.63990416  1
  O  O59  1  0.64084582  0.52855722  0.63600928  1
  O  O60  1  0.86824597  0.49908379  0.13592263  1
  O  O61  1  0.62863416  0.12534992  0.14264073  1
  O  O62  1  0.49704643  0.36315985  0.14075857  1
  O  O63  1  0.43110437  0.28076033  0.03096990  1
  O  O64  1  0.86168005  0.57445131  0.02609592  1
  O  O65  1  0.72253286  0.15201351  0.03296553  1
  O  O66  1  0.48370294  0.16461386  0.52547192  1
  O  O67  1  0.68150191  0.52313622  0.52046076  1
  O  O68  1  0.83901218  0.31685471  0.52725551  1
  O  O69  1  0.52456448  0.67808774  0.97433546  1
  O  O70  1  0.15901049  0.47924834  0.97702707  1
  O  O71  1  0.32243898  0.84174147  0.97549660  1
  O  O72  1  0.56855914  0.85230229  0.46908241  1
  O  O73  1  0.28860375  0.42441228  0.46841202  1
  O  O74  1  0.13240108  0.70691874  0.47345011  1
  O  O75  1  0.13839566  0.63989265  0.36199989  1
  O  O76  1  0.50644416  0.86724960  0.35806813  1
  O  O77  1  0.36202719  0.49132354  0.36193684  1
  O  O78  1  0.11578003  0.47152470  0.86177581  1
  O  O79  1  0.35397281  0.88701504  0.86005059  1
  O  O80  1  0.53525284  0.64604338  0.86410981  1
  O  O81  1  0.01115214  0.83221312  0.40204534  1
  O  O82  1  0.81699109  0.98678065  0.40187735  1
  O  O83  1  0.17433243  0.18583300  0.39982771  1
  O  O84  1  0.02395779  0.19278034  0.92284842  1
  O  O85  1  0.15918216  0.96058716  0.92242152  1
  O  O86  1  0.79904890  0.82687059  0.92223492  1
  O  O87  1  0.96677326  0.16298668  0.57949984  1
  O  O88  1  0.19331102  0.02395090  0.57889819  1
  O  O89  1  0.83486563  0.80340482  0.57733047  1
  O  O90  1  0.99384610  0.82282637  0.09920685  1
  O  O91  1  0.83004775  0.01187140  0.09888383  1
  O  O92  1  0.18262216  0.16941388  0.09846720  1
  O  O93  1  0.68373111  0.16469917  0.74726134  1
  O  O94  1  0.47975346  0.31245451  0.74696932  1
  O  O95  1  0.83850270  0.51536755  0.74963752  1
  O  O96  1  0.68891589  0.52200808  0.23982972  1
  O  O97  1  0.83201965  0.30669838  0.24199514  1
  O  O98  1  0.46574164  0.15612765  0.24616107  1
  O  O99  1  0.64826327  0.51171721  0.92523370  1
  O  O100  1  0.86247567  0.36599672  0.92497871  1
  O  O101  1  0.49468891  0.14538209  0.92388054  1
  O  O102  1  0.64651185  0.14891515  0.42126404  1
  O  O103  1  0.49133676  0.35369557  0.41693467  1
  O  O104  1  0.84733125  0.50356614  0.41937893  1
  O  O105  1  0.34741168  0.49714316  0.07913524  1
  O  O106  1  0.14869583  0.65161282  0.07908440  1
  O  O107  1  0.49744562  0.85372184  0.07815210  1
  O  O108  1  0.35799011  0.86086167  0.57478775  1
  O  O109  1  0.50627938  0.65269747  0.57270787  1
  O  O110  1  0.14279298  0.49970077  0.57465241  1
  O  O111  1  0.30831905  0.84028427  0.25640575  1
  O  O112  1  0.52175886  0.69074014  0.25839589  1
  O  O113  1  0.16675612  0.47631753  0.26039817  1
  O  O114  1  0.31377675  0.48016661  0.75437944  1
  O  O115  1  0.16482529  0.68518985  0.75254188  1
  O  O116  1  0.51653111  0.83797950  0.75199362  1
