# generated using pymatgen
data_NaMg2Nb2P3(SO8)3
_symmetry_space_group_name_H-M   'P 1'
_cell_length_a   8.75410502
_cell_length_b   8.75463907
_cell_length_c   22.65034134
_cell_angle_alpha   90.00991152
_cell_angle_beta   90.00123117
_cell_angle_gamma   120.01005675
_symmetry_Int_Tables_number   1
_chemical_formula_structural   NaMg2Nb2P3(SO8)3
_chemical_formula_sum   'Na3 Mg6 Nb6 P9 S9 O72'
_cell_volume   1503.18125701
_cell_formula_units_Z   3
loop_
 _symmetry_equiv_pos_site_id
 _symmetry_equiv_pos_as_xyz
  1  'x, y, z'
loop_
 _atom_site_type_symbol
 _atom_site_label
 _atom_site_symmetry_multiplicity
 _atom_site_fract_x
 _atom_site_fract_y
 _atom_site_fract_z
 _atom_site_occupancy
  Na  Na0  1  0.99105565  0.99986017  0.99958548  1
  Na  Na1  1  0.67557764  0.34289896  0.83504082  1
  Na  Na2  1  0.65982139  0.32874645  0.33988950  1
  Mg  Mg3  1  0.99309571  0.99468784  0.85532310  1
  Mg  Mg4  1  0.99386061  0.99419786  0.14868211  1
  Mg  Mg5  1  0.67888567  0.33909178  0.68516063  1
  Mg  Mg6  1  0.67400780  0.33592842  0.97877500  1
  Mg  Mg7  1  0.66764887  0.32571312  0.48012135  1
  Mg  Mg8  1  0.34493829  0.67310840  0.31064766  1
  Nb  Nb9  1  0.99871698  0.99540735  0.35656612  1
  Nb  Nb10  1  0.00126782  0.99803935  0.64337795  1
  Nb  Nb11  1  0.66046766  0.32423819  0.19140085  1
  Nb  Nb12  1  0.34110525  0.66665333  0.02402692  1
  Nb  Nb13  1  0.33377938  0.65713342  0.51808338  1
  Nb  Nb14  1  0.32450956  0.65842760  0.81137523  1
  P  P15  1  0.27721266  0.98725028  0.24845641  1
  P  P16  1  0.70901730  0.71508552  0.24796917  1
  P  P17  1  0.99162709  0.70930463  0.75248562  1
  P  P18  1  0.95096803  0.33587175  0.58338992  1
  P  P19  1  0.67729363  0.05195356  0.08093251  1
  P  P20  1  0.62604387  0.66523656  0.91624970  1
  P  P21  1  0.03962529  0.37149404  0.91804956  1
  P  P22  1  0.61864411  0.95971504  0.41411466  1
  P  P23  1  0.34126209  0.37842047  0.41261656  1
  S  S24  1  0.00744934  0.29163245  0.24943358  1
  S  S25  1  0.29146431  0.28402318  0.75107456  1
  S  S26  1  0.71228983  0.00372915  0.75126428  1
  S  S27  1  0.38331404  0.04576823  0.58376056  1
  S  S28  1  0.66466149  0.61712263  0.58346742  1
  S  S29  1  0.95328473  0.62432461  0.08196552  1
  S  S30  1  0.37564886  0.32569858  0.08219455  1
  S  S31  1  0.33334137  0.95712173  0.91691333  1
  S  S32  1  0.04297338  0.66095024  0.41502695  1
  O  O33  1  0.19958540  0.03402219  0.30495573  1
  O  O34  1  0.83493549  0.80040572  0.30450805  1
  O  O35  1  0.96433575  0.17475684  0.30313595  1
  O  O36  1  0.20848861  0.18063039  0.80350738  1
  O  O37  1  0.97434860  0.80093233  0.80572790  1
  O  O38  1  0.82131627  0.03177658  0.80301308  1
  O  O39  1  0.79462373  0.97209779  0.69698669  1
  O  O40  1  0.17810763  0.20651097  0.69669430  1
  O  O41  1  0.02581838  0.82972385  0.69532954  1
  O  O42  1  0.79701180  0.82173045  0.19428574  1
  O  O43  1  0.02667227  0.21091890  0.19625459  1
  O  O44  1  0.17988428  0.98021319  0.19343962  1
  O  O45  1  0.88057426  0.36769868  0.63958024  1
  O  O46  1  0.48349279  0.12085221  0.63764544  1
  O  O47  1  0.63307753  0.51465745  0.63705146  1
  O  O48  1  0.87470579  0.51198055  0.13573926  1
  O  O49  1  0.64000238  0.13665320  0.13773514  1
  O  O50  1  0.48883611  0.36334679  0.13636416  1
  O  O51  1  0.45883664  0.30612051  0.02953930  1
  O  O52  1  0.84644120  0.54310193  0.02959780  1
  O  O53  1  0.69251135  0.15884740  0.02726690  1
  O  O54  1  0.45053385  0.15294430  0.53107399  1
  O  O55  1  0.69975011  0.54815854  0.53031781  1
  O  O56  1  0.84399487  0.29749724  0.52806952  1
  O  O57  1  0.52586680  0.68926316  0.97171637  1
  O  O58  1  0.16344267  0.47502024  0.97133458  1
  O  O59  1  0.30694574  0.84332966  0.97001670  1
  O  O60  1  0.52996236  0.83690437  0.47147240  1
  O  O61  1  0.30558706  0.46566149  0.47119115  1
  O  O62  1  0.15579200  0.69499703  0.46997043  1
  O  O63  1  0.12373675  0.63662803  0.36305443  1
  O  O64  1  0.50610674  0.87067753  0.36176793  1
  O  O65  1  0.35836247  0.49098490  0.36107064  1
  O  O66  1  0.13997505  0.49614429  0.86148107  1
  O  O67  1  0.35929767  0.86897339  0.86299166  1
  O  O68  1  0.50267506  0.64548785  0.86181930  1
  O  O69  1  0.03133414  0.82767305  0.41060946  1
  O  O70  1  0.80484597  0.97095476  0.40709075  1
  O  O71  1  0.16627284  0.19437996  0.40709549  1
  O  O72  1  0.03666961  0.19879858  0.91042261  1
  O  O73  1  0.17358864  0.96895951  0.91094919  1
  O  O74  1  0.80126535  0.83422192  0.91237623  1
  O  O75  1  0.98338075  0.17291201  0.59700838  1
  O  O76  1  0.19757067  0.02242573  0.59362108  1
  O  O77  1  0.82223200  0.80293738  0.59284427  1
  O  O78  1  0.98264320  0.80276490  0.08934948  1
  O  O79  1  0.82962604  0.01997868  0.09036324  1
  O  O80  1  0.19811777  0.17730050  0.09036856  1
  O  O81  1  0.68444407  0.15344629  0.74218901  1
  O  O82  1  0.46767051  0.30976466  0.74145882  1
  O  O83  1  0.83763281  0.52544029  0.74290168  1
  O  O84  1  0.69892727  0.52540167  0.24025717  1
  O  O85  1  0.83737375  0.30523291  0.24330189  1
  O  O86  1  0.47128448  0.16800644  0.24169727  1
  O  O87  1  0.62951716  0.49522501  0.92222713  1
  O  O88  1  0.86444387  0.36568179  0.92043375  1
  O  O89  1  0.49340849  0.12881347  0.92179081  1
  O  O90  1  0.64931691  0.14318877  0.42450172  1
  O  O91  1  0.49698681  0.35523733  0.42630469  1
  O  O92  1  0.86565338  0.51251736  0.42477250  1
  O  O93  1  0.36138219  0.49257929  0.07612308  1
  O  O94  1  0.13297789  0.63816833  0.07417027  1
  O  O95  1  0.50041227  0.86355710  0.07301011  1
  O  O96  1  0.35105832  0.86315570  0.57491791  1
  O  O97  1  0.51090986  0.64768579  0.57552766  1
  O  O98  1  0.14383598  0.49583791  0.57144972  1
  O  O99  1  0.31029484  0.83989651  0.26067475  1
  O  O100  1  0.52725790  0.67905637  0.25964566  1
  O  O101  1  0.15198856  0.46664382  0.25963893  1
  O  O102  1  0.30609779  0.46440206  0.75679331  1
  O  O103  1  0.16734815  0.69722154  0.75987750  1
  O  O104  1  0.53506861  0.83871381  0.75777470  1
