# generated using pymatgen
data_Na3Hf3Al(PO4)6
_symmetry_space_group_name_H-M   'P 1'
_cell_length_a   8.78961272
_cell_length_b   8.78048256
_cell_length_c   22.74377444
_cell_angle_alpha   90.02121642
_cell_angle_beta   89.98596280
_cell_angle_gamma   120.15729582
_symmetry_Int_Tables_number   1
_chemical_formula_structural   Na3Hf3Al(PO4)6
_chemical_formula_sum   'Na9 Hf9 Al3 P18 O72'
_cell_volume   1517.71671321
_cell_formula_units_Z   3
loop_
 _symmetry_equiv_pos_site_id
 _symmetry_equiv_pos_as_xyz
  1  'x, y, z'
loop_
 _atom_site_type_symbol
 _atom_site_label
 _atom_site_symmetry_multiplicity
 _atom_site_fract_x
 _atom_site_fract_y
 _atom_site_fract_z
 _atom_site_occupancy
  Na  Na0  1  0.36594031  0.36266157  0.24747436  1
  Na  Na1  1  0.63856896  0.63460402  0.74793523  1
  Na  Na2  1  0.97169589  0.30104599  0.41412518  1
  Na  Na3  1  0.00069437  0.99185840  0.49764633  1
  Na  Na4  1  0.99983823  0.99984451  0.00132017  1
  Na  Na5  1  0.66722034  0.32526240  0.83212997  1
  Na  Na6  1  0.66743756  0.33350145  0.32850851  1
  Na  Na7  1  0.33265590  0.67474287  0.16515701  1
  Na  Na8  1  0.32562245  0.66728708  0.66536884  1
  Hf  Hf9  1  0.00086527  0.00184857  0.85238725  1
  Hf  Hf10  1  0.00166521  0.00230665  0.64534914  1
  Hf  Hf11  1  0.99775038  0.99773213  0.14638271  1
  Hf  Hf12  1  0.66665024  0.33371826  0.98113134  1
  Hf  Hf13  1  0.66119286  0.33381205  0.48075465  1
  Hf  Hf14  1  0.33352493  0.66676143  0.02338070  1
  Hf  Hf15  1  0.33414490  0.66869334  0.52102394  1
  Hf  Hf16  1  0.33457311  0.67346217  0.31217273  1
  Hf  Hf17  1  0.32816628  0.66732693  0.81378650  1
  Al  Al18  1  0.99884825  0.99266168  0.34885945  1
  Al  Al19  1  0.66738675  0.32775432  0.68431271  1
  Al  Al20  1  0.67344655  0.33280180  0.18512847  1
  P  P21  1  0.29140540  0.00728648  0.25075608  1
  P  P22  1  0.71760489  0.70726719  0.25147401  1
  P  P23  1  0.98780043  0.28288862  0.25177322  1
  P  P24  1  0.30090904  0.29120888  0.74824876  1
  P  P25  1  0.99340071  0.69977068  0.74765180  1
  P  P26  1  0.70895433  0.01112836  0.74821633  1
  P  P27  1  0.95005911  0.33486617  0.58545628  1
  P  P28  1  0.38369808  0.04894527  0.58667916  1
  P  P29  1  0.66488359  0.61668587  0.58701936  1
  P  P30  1  0.94989694  0.61585335  0.08668595  1
  P  P31  1  0.66652755  0.05097133  0.08676141  1
  P  P32  1  0.38370442  0.33362378  0.08730018  1
  P  P33  1  0.62388698  0.66652582  0.91635068  1
  P  P34  1  0.04176928  0.37521229  0.91751310  1
  P  P35  1  0.33288597  0.95779955  0.91735720  1
  P  P36  1  0.63400383  0.95722786  0.41547808  1
  P  P37  1  0.32656214  0.36701776  0.41408339  1
  P  P38  1  0.04277756  0.67821660  0.41534214  1
  O  O39  1  0.20231559  0.03713415  0.30478200  1
  O  O40  1  0.83016736  0.79875869  0.30561315  1
  O  O41  1  0.96790332  0.17410139  0.30790761  1
  O  O42  1  0.21329652  0.17896081  0.80342928  1
  O  O43  1  0.96054561  0.78519688  0.80257768  1
  O  O44  1  0.82145056  0.03493892  0.80352351  1
  O  O45  1  0.79257013  0.96853055  0.69549041  1
  O  O46  1  0.18016426  0.20720427  0.69494106  1
  O  O47  1  0.02610131  0.82068892  0.69449666  1
  O  O48  1  0.79436485  0.82141139  0.19627392  1
  O  O49  1  0.03099413  0.20390679  0.19792379  1
  O  O50  1  0.17739398  0.97358378  0.19573981  1
  O  O51  1  0.85909300  0.35915664  0.63876818  1
  O  O52  1  0.49806269  0.13916198  0.64021077  1
  O  O53  1  0.64089982  0.50587579  0.64217876  1
  O  O54  1  0.86003594  0.50118428  0.14042723  1
  O  O55  1  0.64079108  0.14012615  0.14051624  1
  O  O56  1  0.49492362  0.35845257  0.14259126  1
  O  O57  1  0.46436497  0.30670545  0.03070354  1
  O  O58  1  0.84387861  0.53756451  0.02951094  1
  O  O59  1  0.69414731  0.15687433  0.02957523  1
  O  O60  1  0.46234499  0.15587610  0.52968975  1
  O  O61  1  0.69305913  0.53566087  0.53074416  1
  O  O62  1  0.84675767  0.30690512  0.52731681  1
  O  O63  1  0.53585338  0.69332553  0.97031384  1
  O  O64  1  0.15566659  0.46164321  0.97178688  1
  O  O65  1  0.30546105  0.84386946  0.97165747  1
  O  O66  1  0.54546328  0.84467315  0.47077038  1
  O  O67  1  0.29527890  0.45542185  0.46868939  1
  O  O68  1  0.15575741  0.70183265  0.47076159  1
  O  O69  1  0.12605740  0.63531138  0.36256298  1
  O  O70  1  0.51354445  0.87356969  0.36214811  1
  O  O71  1  0.35891940  0.48362359  0.35945145  1
  O  O72  1  0.12726708  0.48749936  0.86191890  1
  O  O73  1  0.36046324  0.87279765  0.86180867  1
  O  O74  1  0.51561949  0.64023352  0.85944898  1
  O  O75  1  0.02342287  0.83962587  0.40570118  1
  O  O76  1  0.81922168  0.98213269  0.40687794  1
  O  O77  1  0.15821669  0.18585457  0.40640428  1
  O  O78  1  0.02368101  0.19212996  0.91045328  1
  O  O79  1  0.16804118  0.97550994  0.91000030  1
  O  O80  1  0.80772117  0.83160697  0.90998022  1
  O  O81  1  0.97211769  0.17091315  0.59065286  1
  O  O82  1  0.19770837  0.02656970  0.59081903  1
  O  O83  1  0.82903263  0.80308082  0.59087858  1
  O  O84  1  0.97289943  0.80215644  0.09086096  1
  O  O85  1  0.82952464  0.02805931  0.09122174  1
  O  O86  1  0.19697505  0.17053413  0.09110723  1
  O  O87  1  0.68929821  0.17245434  0.73939917  1
  O  O88  1  0.48630353  0.31639411  0.74019517  1
  O  O89  1  0.82521908  0.51873287  0.73972820  1
  O  O90  1  0.68853101  0.51880418  0.24300268  1
  O  O91  1  0.82778694  0.30580481  0.24204727  1
  O  O92  1  0.47500552  0.17442548  0.24269792  1
  O  O93  1  0.64242036  0.50187149  0.92186796  1
  O  O94  1  0.85853617  0.35627504  0.92216381  1
  O  O95  1  0.49761243  0.14149065  0.92215257  1
  O  O96  1  0.65671586  0.14445451  0.42269289  1
  O  O97  1  0.49174224  0.35101618  0.42189525  1
  O  O98  1  0.86171427  0.50561796  0.42292608  1
  O  O99  1  0.36377154  0.49847039  0.07999639  1
  O  O100  1  0.13496876  0.63670389  0.07984532  1
  O  O101  1  0.50197433  0.86521769  0.07989054  1
  O  O102  1  0.36288395  0.86372142  0.57936924  1
  O  O103  1  0.50033114  0.63640872  0.57907629  1
  O  O104  1  0.13618999  0.49926047  0.57876554  1
  O  O105  1  0.31149596  0.84262409  0.25719721  1
  O  O106  1  0.52730291  0.68141596  0.25787121  1
  O  O107  1  0.16047017  0.46782480  0.25803925  1
  O  O108  1  0.32330731  0.47821672  0.75550787  1
  O  O109  1  0.15831439  0.68362963  0.75492400  1
  O  O110  1  0.52797741  0.83841317  0.75572484  1
