# generated using pymatgen
data_Cd2P3Br
_symmetry_space_group_name_H-M   'P 1'
_cell_length_a   6.12359300
_cell_length_b   6.12359213
_cell_length_c   7.58082723
_cell_angle_alpha   96.73706204
_cell_angle_beta   96.73706116
_cell_angle_gamma   96.64960777
_symmetry_Int_Tables_number   1
_chemical_formula_structural   Cd2P3Br
_chemical_formula_sum   'Cd4 P6 Br2'
_cell_volume   277.92692835
_cell_formula_units_Z   2
loop_
 _symmetry_equiv_pos_site_id
 _symmetry_equiv_pos_as_xyz
  1  'x, y, z'
loop_
 _atom_site_type_symbol
 _atom_site_label
 _atom_site_symmetry_multiplicity
 _atom_site_fract_x
 _atom_site_fract_y
 _atom_site_fract_z
 _atom_site_occupancy
  Cd  Cd0  1  0.64919649  0.35337111  0.42303106  1
  Cd  Cd1  1  0.35337111  0.64919649  0.92303106  1
  Cd  Cd2  1  0.14291836  0.84809496  0.49202022  1
  Cd  Cd3  1  0.84809496  0.14291836  0.99202022  1
  P  P4  1  0.94332546  0.55271263  0.95692080  1
  P  P5  1  0.55271263  0.94332546  0.45692080  1
  P  P6  1  0.68090975  0.58888048  0.74331353  1
  P  P7  1  0.58888048  0.68090975  0.24331353  1
  P  P8  1  0.81500815  0.90772551  0.67076792  1
  P  P9  1  0.90772551  0.81500815  0.17076792  1
  Br  Br10  1  0.12233539  0.37351971  0.45394646  1
  Br  Br11  1  0.37351971  0.12233539  0.95394646  1
