# generated using pymatgen
data_Na6La4Ta4Si7S5O48
_symmetry_space_group_name_H-M   'P 1'
_cell_length_a   18.43873823
_cell_length_b   9.19096801
_cell_length_c   23.66699152
_cell_angle_alpha   90.24588414
_cell_angle_beta   89.57661287
_cell_angle_gamma   119.97018448
_symmetry_Int_Tables_number   1
_chemical_formula_structural   Na6La4Ta4Si7S5O48
_chemical_formula_sum   'Na18 La12 Ta12 Si21 S15 O144'
_cell_volume   3474.43811324
_cell_formula_units_Z   3
loop_
 _symmetry_equiv_pos_site_id
 _symmetry_equiv_pos_as_xyz
  1  'x, y, z'
loop_
 _atom_site_type_symbol
 _atom_site_label
 _atom_site_symmetry_multiplicity
 _atom_site_fract_x
 _atom_site_fract_y
 _atom_site_fract_z
 _atom_site_occupancy
  Na  Na0  1  0.00334945  0.61353591  0.25780938  1
  Na  Na1  1  0.49866106  0.63205738  0.26401954  1
  Na  Na2  1  0.99742504  0.36994974  0.75346539  1
  Na  Na3  1  0.50391308  0.39384798  0.75350936  1
  Na  Na4  1  0.33082950  0.98763329  0.57183346  1
  Na  Na5  1  0.82943580  0.67083875  0.07546636  1
  Na  Na6  1  0.00165449  0.97312483  0.50297717  1
  Na  Na7  1  0.50021758  0.01741784  0.49269792  1
  Na  Na8  1  0.99319572  0.97903401  0.99465389  1
  Na  Na9  1  0.50351420  0.03216629  0.00672106  1
  Na  Na10  1  0.32456866  0.36173782  0.82836754  1
  Na  Na11  1  0.83175222  0.33386778  0.83794470  1
  Na  Na12  1  0.33401553  0.33334143  0.34129876  1
  Na  Na13  1  0.82153092  0.28700781  0.33044411  1
  Na  Na14  1  0.17278671  0.65308623  0.17854154  1
  Na  Na15  1  0.66444982  0.66587353  0.17001282  1
  Na  Na16  1  0.16366319  0.66706248  0.66042959  1
  Na  Na17  1  0.67252409  0.69447195  0.66831844  1
  La  La18  1  0.50745599  0.99345372  0.64050698  1
  La  La19  1  0.00636528  0.01836272  0.14253124  1
  La  La20  1  0.33698088  0.34923654  0.68717594  1
  La  La21  1  0.81996818  0.32881370  0.68443885  1
  La  La22  1  0.32062077  0.31467951  0.18799488  1
  La  La23  1  0.83642449  0.32570634  0.18892174  1
  La  La24  1  0.66468085  0.64166011  0.00401349  1
  La  La25  1  0.16105843  0.68323654  0.50378114  1
  La  La26  1  0.17768047  0.66789388  0.32047924  1
  La  La27  1  0.66773020  0.68410042  0.32617180  1
  La  La28  1  0.16622177  0.63958467  0.82191949  1
  La  La29  1  0.67686605  0.68591155  0.81902258  1
  Ta  Ta30  1  0.99001788  0.00753187  0.35744339  1
  Ta  Ta31  1  0.50227452  0.98241265  0.35898199  1
  Ta  Ta32  1  0.99353311  0.01585021  0.85314021  1
  Ta  Ta33  1  0.49106977  0.97410284  0.85743807  1
  Ta  Ta34  1  0.99972382  0.00010665  0.64276992  1
  Ta  Ta35  1  0.50018713  0.00413225  0.14560678  1
  Ta  Ta36  1  0.34315014  0.33249430  0.98161558  1
  Ta  Ta37  1  0.83461304  0.34526588  0.98574114  1
  Ta  Ta38  1  0.33488969  0.32246648  0.48641333  1
  Ta  Ta39  1  0.83462487  0.35340359  0.47695731  1
  Ta  Ta40  1  0.16876665  0.67159808  0.01354284  1
  Ta  Ta41  1  0.66654013  0.65106159  0.51037198  1
  Si  Si42  1  0.63894545  0.99848609  0.24909451  1
  Si  Si43  1  0.36266949  0.72412933  0.24966137  1
  Si  Si44  1  0.00283566  0.29982799  0.25442094  1
  Si  Si45  1  0.13905467  0.27313380  0.74884031  1
  Si  Si46  1  0.50299204  0.70653915  0.75373034  1
  Si  Si47  1  0.85845253  0.00255726  0.74643312  1
  Si  Si48  1  0.48763029  0.34453595  0.58331498  1
  Si  Si49  1  0.18470012  0.03983599  0.58550150  1
  Si  Si50  1  0.83047376  0.63199469  0.58187458  1
  Si  Si51  1  0.98702588  0.63184877  0.08217404  1
  Si  Si52  1  0.33183328  0.03082634  0.08241043  1
  Si  Si53  1  0.68447608  0.32735135  0.08505792  1
  Si  Si54  1  0.31548800  0.65179079  0.91951262  1
  Si  Si55  1  0.82989699  0.66973804  0.91851369  1
  Si  Si56  1  0.01172060  0.36612272  0.91841705  1
  Si  Si57  1  0.50952800  0.34812052  0.90937975  1
  Si  Si58  1  0.32690770  0.98492459  0.41858370  1
  Si  Si59  1  0.81510459  0.97843774  0.42082757  1
  Si  Si60  1  0.66603953  0.36278021  0.41406423  1
  Si  Si61  1  0.00864051  0.67045448  0.40897973  1
  Si  Si62  1  0.51084468  0.65341707  0.41914231  1
  S  S63  1  0.14086588  0.00160292  0.25838316  1
  S  S64  1  0.85764824  0.71928468  0.25455598  1
  S  S65  1  0.50261436  0.27836618  0.24788516  1
  S  S66  1  0.64071383  0.27762447  0.75893985  1
  S  S67  1  0.00202881  0.73008672  0.74868860  1
  S  S68  1  0.35869053  0.99808127  0.75537559  1
  S  S69  1  0.98109011  0.32374094  0.58531552  1
  S  S70  1  0.69095976  0.02844543  0.57270327  1
  S  S71  1  0.32814963  0.62882200  0.57606099  1
  S  S72  1  0.47788182  0.63379116  0.08251761  1
  S  S73  1  0.82983164  0.03038688  0.07572276  1
  S  S74  1  0.19010982  0.35077178  0.07266907  1
  S  S75  1  0.17075284  0.97594786  0.92182756  1
  S  S76  1  0.66550931  0.99674378  0.91748292  1
  S  S77  1  0.16590334  0.33356323  0.41766608  1
  O  O78  1  0.08503144  0.99350569  0.30462317  1
  O  O79  1  0.58532556  0.99201715  0.30696870  1
  O  O80  1  0.41584367  0.82427826  0.30728377  1
  O  O81  1  0.90639778  0.83588772  0.30261941  1
  O  O82  1  0.50150389  0.18197196  0.29728908  1
  O  O83  1  0.00543674  0.18650098  0.30994321  1
  O  O84  1  0.08467730  0.17047692  0.80709119  1
  O  O85  1  0.58528809  0.17432025  0.80583128  1
  O  O86  1  0.50510790  0.82394313  0.81021321  1
  O  O87  1  0.00067352  0.82502462  0.79909439  1
  O  O88  1  0.40726458  0.97911538  0.80357206  1
  O  O89  1  0.90978780  0.00623378  0.80742958  1
  O  O90  1  0.39746126  0.99376197  0.70103491  1
  O  O91  1  0.91578027  0.00042104  0.69247728  1
  O  O92  1  0.08431051  0.16274482  0.69261675  1
  O  O93  1  0.60456632  0.20114584  0.70351115  1
  O  O94  1  0.00045027  0.81395452  0.69473077  1
  O  O95  1  0.49962997  0.80193616  0.69696164  1
  O  O96  1  0.41537901  0.83271598  0.19167214  1
  O  O97  1  0.89852445  0.79886857  0.20010448  1
  O  O98  1  -0.00004508  0.19900773  0.19681990  1
  O  O99  1  0.49983831  0.18837435  0.19260887  1
  O  O100  1  0.10633351  0.00872642  0.20247079  1
  O  O101  1  0.58422778  0.00596710  0.19248560  1
  O  O102  1  0.45929936  0.36715772  0.64595164  1
  O  O103  1  0.94421902  0.34053556  0.63933667  1
  O  O104  1  0.24404132  0.12248461  0.63928444  1
  O  O105  1  0.72504142  0.08448103  0.63056807  1
  O  O106  1  0.32884921  0.55455719  0.63095557  1
  O  O107  1  0.80880361  0.52468522  0.63984452  1
  O  O108  1  0.43982858  0.53902537  0.13482946  1
  O  O109  1  0.96190944  0.55178236  0.14432051  1
  O  O110  1  0.30771488  0.09585433  0.13890423  1
  O  O111  1  0.83091659  0.10783446  0.13036841  1
  O  O112  1  0.22590974  0.36892698  0.12954938  1
  O  O113  1  0.74603414  0.36827741  0.13778450  1
  O  O114  1  0.24583773  0.34344500  0.02954684  1
  O  O115  1  0.73684994  0.31197775  0.02827474  1
  O  O116  1  0.42476794  0.53422114  0.03241571  1
  O  O117  1  0.91344988  0.49803065  0.03619426  1
  O  O118  1  0.34523460  0.17036436  0.03138576  1
  O  O119  1  0.82614373  0.13106612  0.02798496  1
  O  O120  1  0.23632545  0.15967325  0.52931513  1
  O  O121  1  0.74869807  0.15242150  0.53133205  1
  O  O122  1  0.32493206  0.51992918  0.52865981  1
  O  O123  1  0.84627055  0.52173661  0.53172535  1
  O  O124  1  0.41312645  0.32899099  0.53763655  1
  O  O125  1  0.92920542  0.30984985  0.53629835  1
  O  O126  1  0.26286918  0.69163028  0.96745642  1
  O  O127  1  0.80041041  0.71942020  0.97670329  1
  O  O128  1  0.08704169  0.48710806  0.96381171  1
  O  O129  1  0.56385178  0.40858679  0.96628426  1
  O  O130  1  0.15908604  0.85745589  0.96896999  1
  O  O131  1  0.64480111  0.88640172  0.96693229  1
  O  O132  1  0.29516217  0.87732943  0.47681924  1
  O  O133  1  0.76218453  0.83116247  0.46748173  1
  O  O134  1  0.14560432  0.40345950  0.46735854  1
  O  O135  1  0.65266645  0.46470514  0.46771406  1
  O  O136  1  0.06429281  0.72429169  0.46552728  1
  O  O137  1  0.58493136  0.68309038  0.46449215  1
  O  O138  1  0.04640363  0.62427236  0.35521899  1
  O  O139  1  0.53006035  0.60171211  0.35764568  1
  O  O140  1  0.26197484  0.90870975  0.36740820  1
  O  O141  1  0.76694175  0.93280215  0.36166349  1
  O  O142  1  0.18289393  0.43591687  0.36680121  1
  O  O143  1  0.69197667  0.47833777  0.35938436  1
  O  O144  1  0.03334455  0.45969286  0.85754980  1
  O  O145  1  0.54561059  0.46806858  0.85552810  1
  O  O146  1  0.19139837  0.92008801  0.86942727  1
  O  O147  1  0.68218641  0.92804657  0.86638002  1
  O  O148  1  0.26526694  0.60303118  0.86105275  1
  O  O149  1  0.76630138  0.62528922  0.86703761  1
  O  O150  1  0.98897738  0.82387906  0.39660771  1
  O  O151  1  0.50592095  0.83034894  0.41282508  1
  O  O152  1  0.41966016  0.01142714  0.40245239  1
  O  O153  1  0.91101389  0.00144840  0.41052740  1
  O  O154  1  0.09037276  0.15995598  0.40819291  1
  O  O155  1  0.58453509  0.17621196  0.40615803  1
  O  O156  1  0.00645521  0.17780030  0.91026165  1
  O  O157  1  0.48860102  0.15436650  0.89788466  1
  O  O158  1  0.09505509  0.99127539  0.91805666  1
  O  O159  1  0.59048243  0.02097768  0.90835220  1
  O  O160  1  0.41079454  0.81891634  0.91016528  1
  O  O161  1  0.92593115  0.82584027  0.90235078  1
  O  O162  1  0.48367528  0.16372950  0.57491528  1
  O  O163  1  0.98443717  0.16030697  0.58783427  1
  O  O164  1  0.09029748  0.02298008  0.59139923  1
  O  O165  1  0.60829736  0.01770556  0.56724871  1
  O  O166  1  0.40563459  0.79626347  0.56990854  1
  O  O167  1  0.91806568  0.81612736  0.59164736  1
  O  O168  1  0.47825625  0.79789357  0.08331626  1
  O  O169  1  0.98379238  0.80472271  0.07366073  1
  O  O170  1  0.41792913  0.01994505  0.09043605  1
  O  O171  1  0.90720898  0.01781160  0.06927776  1
  O  O172  1  0.10687816  0.19905803  0.06757450  1
  O  O173  1  0.59055724  0.15445383  0.09051953  1
  O  O174  1  0.36306443  0.16169978  0.76327666  1
  O  O175  1  0.85963592  0.18122074  0.74975182  1
  O  O176  1  0.23024753  0.29471733  0.75360316  1
  O  O177  1  0.72388165  0.29080240  0.76549086  1
  O  O178  1  0.41972416  0.52371116  0.76214891  1
  O  O179  1  0.92662984  0.55840619  0.75035744  1
  O  O180  1  0.36177917  0.54383975  0.24907158  1
  O  O181  1  0.86145736  0.56386687  0.26262852  1
  O  O182  1  0.42649886  0.29705368  0.24835941  1
  O  O183  1  0.91957416  0.31610370  0.26274498  1
  O  O184  1  0.22426361  0.15501535  0.26560086  1
  O  O185  1  0.72976300  0.16305678  0.25205633  1
  O  O186  1  0.33309887  0.50066514  0.93830045  1
  O  O187  1  0.84077017  0.50218646  0.93088864  1
  O  O188  1  0.41535646  0.32669879  0.92789944  1
  O  O189  1  0.91786109  0.31836426  0.93999854  1
  O  O190  1  0.24293690  0.14699695  0.93741187  1
  O  O191  1  0.73874897  0.16657650  0.92638925  1
  O  O192  1  0.34079390  0.17700162  0.43190150  1
  O  O193  1  0.83695003  0.16647403  0.44101367  1
  O  O194  1  0.23863383  0.30915879  0.42663721  1
  O  O195  1  0.74268754  0.32992316  0.43650808  1
  O  O196  1  0.41644196  0.51276164  0.44081927  1
  O  O197  1  0.91478870  0.50613468  0.42625847  1
  O  O198  1  0.18057919  0.50265351  0.06474026  1
  O  O199  1  0.67507532  0.49376528  0.07644777  1
  O  O200  1  0.07849584  0.65465790  0.06037966  1
  O  O201  1  0.56306724  0.66358546  0.07490723  1
  O  O202  1  0.25229146  0.84882225  0.06145675  1
  O  O203  1  0.75563908  0.85951480  0.07525408  1
  O  O204  1  0.17452901  0.85371808  0.57783436  1
  O  O205  1  0.68162244  0.86053566  0.56490808  1
  O  O206  1  0.25420737  0.65162439  0.57554825  1
  O  O207  1  0.75187887  0.65746387  0.56350652  1
  O  O208  1  0.06773278  0.46323176  0.58009897  1
  O  O209  1  0.57848089  0.50770201  0.56501452  1
  O  O210  1  0.14733401  0.84762845  0.25731507  1
  O  O211  1  0.63593258  0.81768440  0.24446447  1
  O  O212  1  0.27116633  0.70385472  0.24682934  1
  O  O213  1  0.77263920  0.69291147  0.25498338  1
  O  O214  1  0.08562798  0.48550592  0.25137345  1
  O  O215  1  0.57773197  0.44603677  0.24469721  1
  O  O216  1  0.13583071  0.44937733  0.74696260  1
  O  O217  1  0.64695801  0.44397330  0.75900898  1
  O  O218  1  0.07816502  0.71426905  0.74813052  1
  O  O219  1  0.58574534  0.68654815  0.75115681  1
  O  O220  1  0.27248103  0.85652552  0.75810175  1
  O  O221  1  0.76863055  0.83714326  0.74506767  1
