# generated using pymatgen
data_Ba3(SnP2)2
_symmetry_space_group_name_H-M   'P 1'
_cell_length_a   7.95098669
_cell_length_b   7.94490769
_cell_length_c   19.48669696
_cell_angle_alpha   90.00000000
_cell_angle_beta   90.00000000
_cell_angle_gamma   112.81975719
_symmetry_Int_Tables_number   1
_chemical_formula_structural   Ba3(SnP2)2
_chemical_formula_sum   'Ba12 Sn8 P16'
_cell_volume   1134.62301074
_cell_formula_units_Z   4
loop_
 _symmetry_equiv_pos_site_id
 _symmetry_equiv_pos_as_xyz
  1  'x, y, z'
loop_
 _atom_site_type_symbol
 _atom_site_label
 _atom_site_symmetry_multiplicity
 _atom_site_fract_x
 _atom_site_fract_y
 _atom_site_fract_z
 _atom_site_occupancy
  Ba  Ba0  1  0.93333709  0.29648584  0.31185774  1
  Ba  Ba1  1  0.56666291  0.70351416  0.81185774  1
  Ba  Ba2  1  0.06666291  0.70351416  0.68814226  1
  Ba  Ba3  1  0.43333709  0.29648584  0.18814226  1
  Ba  Ba4  1  0.54423852  0.23192691  0.93711234  1
  Ba  Ba5  1  0.95576148  0.76807309  0.43711234  1
  Ba  Ba6  1  0.45576148  0.76807309  0.06288766  1
  Ba  Ba7  1  0.04423852  0.23192691  0.56288766  1
  Ba  Ba8  1  0.55015642  0.18266867  0.69482433  1
  Ba  Ba9  1  0.94984358  0.81733133  0.19482433  1
  Ba  Ba10  1  0.44984358  0.81733133  0.30517567  1
  Ba  Ba11  1  0.05015642  0.18266867  0.80517567  1
  Sn  Sn12  1  0.41500191  0.35306544  0.37939872  1
  Sn  Sn13  1  0.08499809  0.64693456  0.87939872  1
  Sn  Sn14  1  0.58499809  0.64693456  0.62060128  1
  Sn  Sn15  1  0.91500191  0.35306544  0.12060128  1
  Sn  Sn16  1  0.94595154  0.77287957  0.99387755  1
  Sn  Sn17  1  0.44595154  0.77287957  0.50612245  1
  Sn  Sn18  1  0.05404846  0.22712043  0.00612245  1
  Sn  Sn19  1  0.55404846  0.22712043  0.49387755  1
  P  P20  1  0.68410211  0.55643350  0.31042580  1
  P  P21  1  0.81589789  0.44356650  0.81042580  1
  P  P22  1  0.31589789  0.44356650  0.68957420  1
  P  P23  1  0.18410211  0.55643350  0.18957420  1
  P  P24  1  0.72270102  0.52930703  0.07111855  1
  P  P25  1  0.77729898  0.47069297  0.57111855  1
  P  P26  1  0.27729898  0.47069297  0.92888145  1
  P  P27  1  0.22270102  0.52930703  0.42888145  1
  P  P28  1  0.70208740  0.07030113  0.18029872  1
  P  P29  1  0.79791260  0.92969887  0.68029872  1
  P  P30  1  0.29791260  0.92969887  0.81970128  1
  P  P31  1  0.20208740  0.07030113  0.31970128  1
  P  P32  1  0.79086768  0.97446528  0.94374130  1
  P  P33  1  0.29086768  0.97446528  0.55625870  1
  P  P34  1  0.20913332  0.02553472  0.05625870  1
  P  P35  1  0.70913232  0.02553472  0.44374130  1
