# generated using pymatgen
data_Na2MgTiP2SO12
_symmetry_space_group_name_H-M   'P 1'
_cell_length_a   8.76370119
_cell_length_b   8.75247426
_cell_length_c   22.08593576
_cell_angle_alpha   90.52307227
_cell_angle_beta   90.00000000
_cell_angle_gamma   120.04244090
_symmetry_Int_Tables_number   1
_chemical_formula_structural   Na2MgTiP2SO12
_chemical_formula_sum   'Na12 Mg6 Ti6 P12 S6 O72'
_cell_volume   1466.40792008
_cell_formula_units_Z   6
loop_
 _symmetry_equiv_pos_site_id
 _symmetry_equiv_pos_as_xyz
  1  'x, y, z'
loop_
 _atom_site_type_symbol
 _atom_site_label
 _atom_site_symmetry_multiplicity
 _atom_site_fract_x
 _atom_site_fract_y
 _atom_site_fract_z
 _atom_site_occupancy
  Na  Na0  1  0.99335688  0.63351182  0.24476039  1
  Na  Na1  1  0.64015494  0.63351182  0.74476039  1
  Na  Na2  1  0.66002388  0.96684482  0.57809339  1
  Na  Na3  1  0.30682194  0.96684482  0.07809339  1
  Na  Na4  1  0.32668988  0.30017882  0.91142739  1
  Na  Na5  1  0.97348794  0.30017882  0.41142739  1
  Na  Na6  1  0.00633707  0.97763473  0.49559576  1
  Na  Na7  1  0.97129766  0.97763473  0.99559576  1
  Na  Na8  1  0.67300407  0.31096773  0.82892876  1
  Na  Na9  1  0.63796466  0.31096773  0.32892876  1
  Na  Na10  1  0.33967007  0.64430173  0.16226276  1
  Na  Na11  1  0.30463066  0.64430173  0.66226276  1
  Mg  Mg12  1  0.99860046  0.99724230  0.35245288  1
  Mg  Mg13  1  0.99864184  0.99724230  0.85245288  1
  Mg  Mg14  1  0.66526746  0.33057530  0.68578588  1
  Mg  Mg15  1  0.66530884  0.33057530  0.18578588  1
  Mg  Mg16  1  0.33193346  0.66390930  0.01911988  1
  Mg  Mg17  1  0.33197484  0.66390930  0.51911988  1
  Ti  Ti18  1  0.99850711  0.01102850  0.64748479  1
  Ti  Ti19  1  0.01252139  0.01102850  0.14748479  1
  Ti  Ti20  1  0.66517411  0.34436150  0.98081779  1
  Ti  Ti21  1  0.67918839  0.34436150  0.48081779  1
  Ti  Ti22  1  0.33184011  0.67769550  0.31415179  1
  Ti  Ti23  1  0.34585439  0.67769550  0.81415179  1
  P  P24  1  0.29526802  0.00493700  0.25150531  1
  P  P25  1  0.00288890  0.29400118  0.25423885  1
  P  P26  1  0.29111228  0.29400118  0.75423885  1
  P  P27  1  0.70966898  0.00493700  0.75150531  1
  P  P28  1  0.96193502  0.33827000  0.58483831  1
  P  P29  1  0.66955590  0.62733418  0.58757185  1
  P  P30  1  0.95777928  0.62733418  0.08757185  1
  P  P31  1  0.37633598  0.33827000  0.08483831  1
  P  P32  1  0.62860102  0.67160400  0.91817231  1
  P  P33  1  0.33622190  0.96066818  0.92090585  1
  P  P34  1  0.62444528  0.96066818  0.42090585  1
  P  P35  1  0.04300198  0.67160400  0.41817231  1
  S  S36  1  0.70527598  0.71207350  0.24974519  1
  S  S37  1  0.00679752  0.71207350  0.74974519  1
  S  S38  1  0.37194298  0.04540650  0.58307819  1
  S  S39  1  0.67346452  0.04540650  0.08307819  1
  S  S40  1  0.03860898  0.37874050  0.91641219  1
  S  S41  1  0.34013052  0.37874050  0.41641219  1
  O  O42  1  0.20038431  0.01897817  0.30587389  1
  O  O43  1  0.81164672  0.79310117  0.30405537  1
  O  O44  1  0.98021883  0.19285107  0.31169486  1
  O  O45  1  0.21263224  0.19285107  0.81169486  1
  O  O46  1  0.98145445  0.79310117  0.80405537  1
  O  O47  1  0.81859387  0.01897817  0.80587389  1
  O  O48  1  0.79258660  0.96805136  0.69198912  1
  O  O49  1  0.16578389  0.18963004  0.69789485  1
  O  O50  1  0.02830837  0.82011287  0.69478666  1
  O  O51  1  0.79180450  0.82011287  0.19478666  1
  O  O52  1  0.02384616  0.18963004  0.19789485  1
  O  O53  1  0.17546477  0.96805136  0.19198912  1
  O  O54  1  0.86705131  0.35231117  0.63920689  1
  O  O55  1  0.47831372  0.12643417  0.63738837  1
  O  O56  1  0.64688583  0.52618407  0.64502786  1
  O  O57  1  0.87929924  0.52618407  0.14502786  1
  O  O58  1  0.64812145  0.12643417  0.13738837  1
  O  O59  1  0.48526087  0.35231117  0.13920689  1
  O  O60  1  0.45925360  0.30138436  0.02532212  1
  O  O61  1  0.83245089  0.52296304  0.03122785  1
  O  O62  1  0.69497537  0.15344587  0.02811966  1
  O  O63  1  0.45847150  0.15344587  0.52811966  1
  O  O64  1  0.69051316  0.52296304  0.53122785  1
  O  O65  1  0.84213177  0.30138436  0.52532212  1
  O  O66  1  0.53371731  0.68564517  0.97254089  1
  O  O67  1  0.14497972  0.45976817  0.97072237  1
  O  O68  1  0.31355183  0.85951807  0.97836186  1
  O  O69  1  0.54596524  0.85951807  0.47836186  1
  O  O70  1  0.31478745  0.45976817  0.47072237  1
  O  O71  1  0.15192687  0.68564517  0.47254089  1
  O  O72  1  0.12591960  0.63471836  0.35865612  1
  O  O73  1  0.49911689  0.85629704  0.36456185  1
  O  O74  1  0.36164137  0.48677987  0.36145366  1
  O  O75  1  0.12513750  0.48677987  0.86145366  1
  O  O76  1  0.35717916  0.85629704  0.86456185  1
  O  O77  1  0.50879777  0.63471836  0.85865612  1
  O  O78  1  0.01215594  0.82472285  0.41039978  1
  O  O79  1  0.81183272  0.99467595  0.41181233  1
  O  O80  1  0.18302896  0.20084113  0.41054770  1
  O  O81  1  0.01781217  0.20084113  0.91054770  1
  O  O82  1  0.18284323  0.99467595  0.91181233  1
  O  O83  1  0.81256691  0.82472285  0.91039978  1
  O  O84  1  0.96829964  0.15856313  0.58893221  1
  O  O85  1  0.19425911  0.02993716  0.58734816  1
  O  O86  1  0.84485497  0.81280607  0.58888192  1
  O  O87  1  0.96795110  0.81280607  0.08888192  1
  O  O88  1  0.83567805  0.02993716  0.08734816  1
  O  O89  1  0.19026349  0.15856313  0.08893221  1
  O  O90  1  0.67882294  0.15805585  0.74373278  1
  O  O91  1  0.47849972  0.32800895  0.74514533  1
  O  O92  1  0.84969596  0.53417413  0.74388070  1
  O  O93  1  0.68447917  0.53417413  0.24388070  1
  O  O94  1  0.84951023  0.32800895  0.24514533  1
  O  O95  1  0.47923391  0.15805585  0.24373278  1
  O  O96  1  0.63496664  0.49189613  0.92226521  1
  O  O97  1  0.86092611  0.36327016  0.92068116  1
  O  O98  1  0.51152197  0.14613907  0.92221492  1
  O  O99  1  0.63461810  0.14613907  0.42221492  1
  O  O100  1  0.50234505  0.36327016  0.42068116  1
  O  O101  1  0.85693049  0.49189613  0.42226521  1
  O  O102  1  0.34548894  0.49138985  0.07706678  1
  O  O103  1  0.14516572  0.66134295  0.07847933  1
  O  O104  1  0.51636196  0.86750813  0.07721470  1
  O  O105  1  0.35114517  0.86750813  0.57721470  1
  O  O106  1  0.51617623  0.66134295  0.57847933  1
  O  O107  1  0.14589991  0.49138985  0.57706678  1
  O  O108  1  0.30163264  0.82523013  0.25559921  1
  O  O109  1  0.52759211  0.69660416  0.25401516  1
  O  O110  1  0.17818797  0.47947307  0.25554892  1
  O  O111  1  0.30128410  0.47947307  0.75554892  1
  O  O112  1  0.16901105  0.69660416  0.75401516  1
  O  O113  1  0.52359649  0.82523013  0.75559921  1
