# generated using pymatgen
data_MgMn6(O5F)2
_symmetry_space_group_name_H-M   'P 1'
_cell_length_a   5.17902402
_cell_length_b   5.16030488
_cell_length_c   8.82430558
_cell_angle_alpha   92.34162945
_cell_angle_beta   87.23699020
_cell_angle_gamma   104.51651929
_symmetry_Int_Tables_number   1
_chemical_formula_structural   MgMn6(O5F)2
_chemical_formula_sum   'Mg1 Mn6 O10 F2'
_cell_volume   227.93733080
_cell_formula_units_Z   1
loop_
 _symmetry_equiv_pos_site_id
 _symmetry_equiv_pos_as_xyz
  1  'x, y, z'
loop_
 _atom_site_type_symbol
 _atom_site_label
 _atom_site_symmetry_multiplicity
 _atom_site_fract_x
 _atom_site_fract_y
 _atom_site_fract_z
 _atom_site_occupancy
  Mg  Mg0  1  0.69664848  0.29581994  0.67744664  1
  Mn  Mn1  1  0.00087063  0.00058329  0.00679960  1
  Mn  Mn2  1  0.98865953  0.00947088  0.32144428  1
  Mn  Mn3  1  0.03342524  0.96469055  0.65923073  1
  Mn  Mn4  1  0.41386718  0.59632454  0.85686572  1
  Mn  Mn5  1  0.55254056  0.44516979  0.16313417  1
  Mn  Mn6  1  0.45101821  0.54554679  0.48994239  1
  O  O7  1  0.14368850  0.85761716  0.15488693  1
  O  O8  1  0.16633372  0.83037897  0.83187172  1
  O  O9  1  0.31216926  0.30464166  -0.00194168  1
  O  O10  1  0.31966626  0.28656873  0.33124013  1
  O  O11  1  0.31418913  0.30247496  0.66486084  1
  O  O12  1  0.68901506  0.70107957  0.00497871  1
  O  O13  1  0.71125361  0.68017523  0.33124165  1
  O  O14  1  0.68830728  0.68535369  0.67036833  1
  O  O15  1  0.83715641  0.16786812  0.17321163  1
  O  O16  1  0.86457453  0.13241705  0.51330480  1
  F  F17  1  0.19786347  0.79667343  0.47130767  1
  F  F18  1  0.82708594  0.17492364  0.85123573  1
