# generated using pymatgen
data_MgMnV4O12
_symmetry_space_group_name_H-M   'P 1'
_cell_length_a   7.04339466
_cell_length_b   6.88297074
_cell_length_c   6.09757349
_cell_angle_alpha   72.10173053
_cell_angle_beta   106.51642624
_cell_angle_gamma   99.30418212
_symmetry_Int_Tables_number   1
_chemical_formula_structural   MgMnV4O12
_chemical_formula_sum   'Mg1 Mn1 V4 O12'
_cell_volume   268.79795954
_cell_formula_units_Z   1
loop_
 _symmetry_equiv_pos_site_id
 _symmetry_equiv_pos_as_xyz
  1  'x, y, z'
loop_
 _atom_site_type_symbol
 _atom_site_label
 _atom_site_symmetry_multiplicity
 _atom_site_fract_x
 _atom_site_fract_y
 _atom_site_fract_z
 _atom_site_occupancy
  Mg  Mg0  1  0.99230700  0.87572900  0.88207600  1
  Mn  Mn1  1  0.91497600  0.92704000  0.28463500  1
  V  V2  1  0.22162700  0.58817900  0.76761900  1
  V  V3  1  0.39024100  0.77720400  0.26784500  1
  V  V4  1  0.61217500  0.21134800  0.74035700  1
  V  V5  1  0.77933500  0.39991600  0.22196100  1
  O  O6  1  0.03626100  0.76566700  0.64372400  1
  O  O7  1  0.11080800  0.35959300  0.81195700  1
  O  O8  1  0.20171000  0.93888200  0.16172100  1
  O  O9  1  0.36223400  0.61797800  0.55187100  1
  O  O10  1  0.39705500  0.07967700  0.69658600  1
  O  O11  1  0.35211700  0.63523900  0.05321700  1
  O  O12  1  0.61965400  0.35390600  0.95196800  1
  O  O13  1  0.61780900  0.90134400  0.30877300  1
  O  O14  1  0.65613200  0.36738100  0.45376800  1
  O  O15  1  0.79451800  0.04051600  0.88500900  1
  O  O16  1  0.89057800  0.64680500  0.14814900  1
  O  O17  1  0.94855300  0.22668800  0.31980400  1
