# generated using pymatgen
data_Na6MgTi7Si6(SO8)6
_symmetry_space_group_name_H-M   'P 1'
_cell_length_a   17.55482154
_cell_length_b   8.75650838
_cell_length_c   22.48755649
_cell_angle_alpha   89.91821101
_cell_angle_beta   90.10786996
_cell_angle_gamma   119.96340098
_symmetry_Int_Tables_number   1
_chemical_formula_structural   Na6MgTi7Si6(SO8)6
_chemical_formula_sum   'Na18 Mg3 Ti21 Si18 S18 O144'
_cell_volume   2994.74256453
_cell_formula_units_Z   3
loop_
 _symmetry_equiv_pos_site_id
 _symmetry_equiv_pos_as_xyz
  1  'x, y, z'
loop_
 _atom_site_type_symbol
 _atom_site_label
 _atom_site_symmetry_multiplicity
 _atom_site_fract_x
 _atom_site_fract_y
 _atom_site_fract_z
 _atom_site_occupancy
  Na  Na0  1  0.68577818  0.37502059  0.25075843  1
  Na  Na1  1  0.99731373  0.64002352  0.25052819  1
  Na  Na2  1  0.99802294  0.36215974  0.75160229  1
  Na  Na3  1  0.49494779  0.36169366  0.74922763  1
  Na  Na4  1  0.18902602  0.00960543  0.75097453  1
  Na  Na5  1  0.68491932  0.00686180  0.74913240  1
  Na  Na6  1  0.99877239  0.99873617  0.49582168  1
  Na  Na7  1  0.50269595  0.00025526  0.50035088  1
  Na  Na8  1  0.00394156  0.00507827  0.99949595  1
  Na  Na9  1  0.50085127  0.99646218  0.99825748  1
  Na  Na10  1  0.33247084  0.33625823  0.82942964  1
  Na  Na11  1  0.83001750  0.33404176  0.83039615  1
  Na  Na12  1  0.33338328  0.33138738  0.33020586  1
  Na  Na13  1  0.83333829  0.33175989  0.33423937  1
  Na  Na14  1  0.17117313  0.66801739  0.16521611  1
  Na  Na15  1  0.66549072  0.66816022  0.16950936  1
  Na  Na16  1  0.17339172  0.66748932  0.66710047  1
  Na  Na17  1  0.66921853  0.66391703  0.66478793  1
  Mg  Mg18  1  0.33315815  0.33625020  0.68833843  1
  Mg  Mg19  1  0.82942435  0.33246472  0.68537554  1
  Mg  Mg20  1  0.83367273  0.33349095  0.18499516  1
  Ti  Ti21  1  0.00089355  0.98554951  0.35755185  1
  Ti  Ti22  1  0.50294598  0.01289563  0.35718283  1
  Ti  Ti23  1  0.00873496  0.02412032  0.85642549  1
  Ti  Ti24  1  0.50484139  0.00011999  0.84837202  1
  Ti  Ti25  1  0.99698066  0.00832580  0.65020124  1
  Ti  Ti26  1  0.50030401  0.00372433  0.65437008  1
  Ti  Ti27  1  0.00494664  0.99339052  0.15007345  1
  Ti  Ti28  1  0.49976688  0.00280696  0.14624452  1
  Ti  Ti29  1  0.33408167  0.33951655  0.18692650  1
  Ti  Ti30  1  0.32478789  0.33239497  0.98313113  1
  Ti  Ti31  1  0.83294918  0.32335526  0.97400759  1
  Ti  Ti32  1  0.33580166  0.35001563  0.47611619  1
  Ti  Ti33  1  0.83044434  0.32912231  0.47166836  1
  Ti  Ti34  1  0.15983341  0.65428496  0.01784577  1
  Ti  Ti35  1  0.65776022  0.67224824  0.02015611  1
  Ti  Ti36  1  0.16068258  0.65562506  0.51624357  1
  Ti  Ti37  1  0.66663000  0.67024046  0.51257242  1
  Ti  Ti38  1  0.16244402  0.66067938  0.31555607  1
  Ti  Ti39  1  0.66796896  0.66284609  0.31639432  1
  Ti  Ti40  1  0.17149484  0.67295798  0.81592675  1
  Ti  Ti41  1  0.66990098  0.67983302  0.80791707  1
  Si  Si42  1  0.14868407  0.00535794  0.25240507  1
  Si  Si43  1  0.85415536  0.71382972  0.24980526  1
  Si  Si44  1  0.49758320  0.29043060  0.24997786  1
  Si  Si45  1  0.14728594  0.29678999  0.75007107  1
  Si  Si46  1  0.64845593  0.29580188  0.75073069  1
  Si  Si47  1  0.49603592  0.70743154  0.75013224  1
  Si  Si48  1  0.35445829  0.99376790  0.75184258  1
  Si  Si49  1  0.85768792  0.00058807  0.75204391  1
  Si  Si50  1  0.47458500  0.62090843  0.08348209  1
  Si  Si51  1  0.18563715  0.33428584  0.08555813  1
  Si  Si52  1  0.02284256  0.38114175  0.91522388  1
  Si  Si53  1  0.16776919  0.95795701  0.91767254  1
  Si  Si54  1  0.66232494  0.95410385  0.91543824  1
  Si  Si55  1  0.81184362  0.95205465  0.41526858  1
  Si  Si56  1  0.16526732  0.37473944  0.41530664  1
  Si  Si57  1  0.66575739  0.38050703  0.41722560  1
  Si  Si58  1  0.02181192  0.66465046  0.41737613  1
  Si  Si59  1  0.52396716  0.67046375  0.41473955  1
  S  S60  1  0.64295051  0.99703017  0.24948739  1
  S  S61  1  0.35651616  0.71445654  0.25055733  1
  S  S62  1  -0.00013307  0.28543657  0.25006124  1
  S  S63  1  0.99824293  0.71279690  0.75025921  1
  S  S64  1  0.47879101  0.33371791  0.58314954  1
  S  S65  1  0.97818879  0.33417591  0.58359594  1
  S  S66  1  0.18806568  0.04146632  0.58322759  1
  S  S67  1  0.68750839  0.04111301  0.58305332  1
  S  S68  1  0.33328320  0.62484512  0.58333505  1
  S  S69  1  0.83356569  0.62372592  0.58330690  1
  S  S70  1  0.97737871  0.62184898  0.08286576  1
  S  S71  1  0.33301378  0.04472601  0.08363392  1
  S  S72  1  0.83339536  0.04315022  0.08281244  1
  S  S73  1  0.68896523  0.33483911  0.08277457  1
  S  S74  1  0.31198200  0.66866411  0.91792740  1
  S  S75  1  0.80992485  0.66626044  0.91789981  1
  S  S76  1  0.52148954  0.37782589  0.91689154  1
  S  S77  1  0.30989162  0.95466927  0.41733192  1
  O  O78  1  0.09898296  0.03192629  0.30838271  1
  O  O79  1  0.60305155  0.02972263  0.30276117  1
  O  O80  1  0.41017151  0.79371206  0.30396976  1
  O  O81  1  0.92066058  0.80850455  0.30612243  1
  O  O82  1  0.48651237  0.15910381  0.30657228  1
  O  O83  1  0.98646452  0.18279130  0.30401312  1
  O  O84  1  0.09772587  0.16393614  0.80706874  1
  O  O85  1  0.59966168  0.16391672  0.80738345  1
  O  O86  1  0.48569963  0.80503129  0.80868233  1
  O  O87  1  0.98517988  0.79046252  0.80368034  1
  O  O88  1  0.41877240  0.02998705  0.80902135  1
  O  O89  1  0.92085066  0.02737410  0.80813621  1
  O  O90  1  0.40107416  0.96052265  0.69254109  1
  O  O91  1  0.90179633  0.96466840  0.69163663  1
  O  O92  1  0.07785205  0.19221216  0.69302477  1
  O  O93  1  0.58081826  0.20397929  0.69299612  1
  O  O94  1  0.01558090  0.82615098  0.69603736  1
  O  O95  1  0.52206965  0.84358633  0.69281674  1
  O  O96  1  0.39824195  0.82295871  0.19614444  1
  O  O97  1  0.90415550  0.83899145  0.19073907  1
  O  O98  1  0.01562776  0.20986887  0.19585238  1
  O  O99  1  0.51390990  0.18492493  0.19324909  1
  O  O100  1  0.08176532  0.96108205  0.19376462  1
  O  O101  1  0.58813577  0.97226728  0.19530423  1
  O  O102  1  0.43972844  0.35857878  0.63724908  1
  O  O103  1  0.94226493  0.36254636  0.63834963  1
  O  O104  1  0.23966710  0.11738190  0.63743039  1
  O  O105  1  0.73926851  0.11749782  0.63764223  1
  O  O106  1  0.31806509  0.51687150  0.63539714  1
  O  O107  1  0.82132367  0.51887983  0.63698415  1
  O  O108  1  0.43235275  0.49789192  0.14173137  1
  O  O109  1  0.94070175  0.51883976  0.13778458  1
  O  O110  1  0.31893388  0.12313886  0.13726008  1
  O  O111  1  0.81741733  0.12080903  0.13601954  1
  O  O112  1  0.25145274  0.36226870  0.14091151  1
  O  O113  1  0.73953303  0.35991375  0.13788858  1
  O  O114  1  0.23293875  0.30105808  0.02636991  1
  O  O115  1  0.73096484  0.30616379  0.03049585  1
  O  O116  1  0.41549348  0.52626207  0.02443344  1
  O  O117  1  0.92214192  0.53555935  0.03037933  1
  O  O118  1  0.34974471  0.15436939  0.02975978  1
  O  O119  1  0.84507443  0.15605761  0.02929476  1
  O  O120  1  0.23023278  0.15243850  0.53000055  1
  O  O121  1  0.73164496  0.15358406  0.53049091  1
  O  O122  1  0.34551967  0.53805066  0.52893874  1
  O  O123  1  0.84677611  0.54047803  0.52985760  1
  O  O124  1  0.42234315  0.30931204  0.53001769  1
  O  O125  1  0.92448160  0.30875276  0.53076630  1
  O  O126  1  0.26960826  0.69261997  0.97085116  1
  O  O127  1  0.76833657  0.69092602  0.97130416  1
  O  O128  1  0.08381845  0.46875454  0.97438117  1
  O  O129  1  0.57918905  0.46477822  0.97050333  1
  O  O130  1  0.15534667  0.82991226  0.97460349  1
  O  O131  1  0.65315839  0.83129738  0.97384124  1
  O  O132  1  0.26999497  0.84466585  0.47092165  1
  O  O133  1  0.76479911  0.83063590  0.47452576  1
  O  O134  1  0.15549758  0.47927210  0.47379555  1
  O  O135  1  0.64853676  0.46740696  0.47553366  1
  O  O136  1  0.08614835  0.69624266  0.47472466  1
  O  O137  1  0.58324186  0.70146578  0.47466865  1
  O  O138  1  0.06780613  0.63384793  0.35810991  1
  O  O139  1  0.56643029  0.62976833  0.35749684  1
  O  O140  1  0.25599398  0.87694363  0.36306700  1
  O  O141  1  0.74714223  0.86520355  0.35815445  1
  O  O142  1  0.18568290  0.50899790  0.35872656  1
  O  O143  1  0.68457569  0.49419405  0.35647932  1
  O  O144  1  0.06577185  0.49892879  0.85606645  1
  O  O145  1  0.56273784  0.48526498  0.86297837  1
  O  O146  1  0.18258190  0.86517802  0.85758391  1
  O  O147  1  0.68315119  0.86705822  0.85814493  1
  O  O148  1  0.25641959  0.63681320  0.86340042  1
  O  O149  1  0.75554176  0.63250689  0.86387290  1
  O  O150  1  0.01412130  0.83888437  0.41243888  1
  O  O151  1  0.50716353  0.83585618  0.40552304  1
  O  O152  1  0.39762172  0.97034666  0.41093738  1
  O  O153  1  0.90881233  0.97919081  0.40781597  1
  O  O154  1  0.07925290  0.18724610  0.40949968  1
  O  O155  1  0.57965719  0.18262003  0.40873964  1
  O  O156  1  0.00962514  0.18400051  0.91153565  1
  O  O157  1  0.51369649  0.20252209  0.91336100  1
  O  O158  1  0.07831348  0.96839682  0.90918919  1
  O  O159  1  0.57706118  0.97691482  0.91248657  1
  O  O160  1  0.39852900  0.82652474  0.91205559  1
  O  O161  1  0.89839129  0.81991440  0.91123321  1
  O  O162  1  0.48696992  0.17146454  0.58650151  1
  O  O163  1  0.98876642  0.17387230  0.58827856  1
  O  O164  1  0.09807877  0.01956032  0.58880627  1
  O  O165  1  0.59891638  0.02499492  0.58705036  1
  O  O166  1  0.41367560  0.80116112  0.58639975  1
  O  O167  1  0.91496532  0.80292358  0.58889827  1
  O  O168  1  0.48961298  0.82035975  0.09379480  1
  O  O169  1  0.98599503  0.79967563  0.08717699  1
  O  O170  1  0.41352952  0.02553155  0.09047757  1
  O  O171  1  0.91230815  0.02762906  0.08730831  1
  O  O172  1  0.08816217  0.15960638  0.09245866  1
  O  O173  1  0.59934893  0.17319846  0.08855009  1
  O  O174  1  0.34441210  0.16359807  0.74362415  1
  O  O175  1  0.84911833  0.17335327  0.74385413  1
  O  O176  1  0.23728579  0.30061757  0.74343645  1
  O  O177  1  0.74092241  0.30599653  0.74501345  1
  O  O178  1  0.41730266  0.51334646  0.74469769  1
  O  O179  1  0.92332009  0.53448599  0.74226951  1
  O  O180  1  0.34726277  0.53771394  0.24433832  1
  O  O181  1  0.84486500  0.51862368  0.24422045  1
  O  O182  1  0.41067133  0.30561270  0.24222390  1
  O  O183  1  0.92350889  0.31334666  0.24258120  1
  O  O184  1  0.24341305  0.17577302  0.24111428  1
  O  O185  1  0.73026320  0.15805055  0.24273348  1
  O  O186  1  0.31975954  0.50738262  0.92245773  1
  O  O187  1  0.81921993  0.50464552  0.92591369  1
  O  O188  1  0.43458217  0.36230359  0.92408087  1
  O  O189  1  0.92564494  0.36194642  0.92729737  1
  O  O190  1  0.25632454  0.15213452  0.92549878  1
  O  O191  1  0.75147841  0.14859581  0.92775641  1
  O  O192  1  0.31996794  0.13187192  0.42468328  1
  O  O193  1  0.82024639  0.14595755  0.42779803  1
  O  O194  1  0.25346419  0.35701401  0.42801312  1
  O  O195  1  0.75103459  0.35445600  0.42635621  1
  O  O196  1  0.42608855  0.49223706  0.42791655  1
  O  O197  1  0.92627601  0.49068271  0.42667294  1
  O  O198  1  0.18024629  0.51417993  0.07542382  1
  O  O199  1  0.67881895  0.49178959  0.07475009  1
  O  O200  1  0.06726697  0.64401523  0.07680071  1
  O  O201  1  0.57423622  0.64174936  0.07438988  1
  O  O202  1  0.25579296  0.86703824  0.07692111  1
  O  O203  1  0.75411566  0.86370617  0.07455029  1
  O  O204  1  0.17916600  0.86230979  0.57575763  1
  O  O205  1  0.67800963  0.86243226  0.57720319  1
  O  O206  1  0.25452871  0.64681485  0.57466704  1
  O  O207  1  0.75473416  0.64509753  0.57758065  1
  O  O208  1  0.06936381  0.49328041  0.57710381  1
  O  O209  1  0.56783867  0.49231586  0.57700096  1
  O  O210  1  0.15351739  0.82083928  0.25845495  1
  O  O211  1  0.65067681  0.83916762  0.25435616  1
  O  O212  1  0.26827107  0.69769942  0.25518488  1
  O  O213  1  0.75648643  0.69169565  0.25484353  1
  O  O214  1  0.08043483  0.46914787  0.25496684  1
  O  O215  1  0.58805594  0.47779888  0.25501277  1
  O  O216  1  0.14674486  0.48075794  0.75648317  1
  O  O217  1  0.64879680  0.47988625  0.76052719  1
  O  O218  1  0.08037675  0.69817247  0.75405016  1
  O  O219  1  0.58774417  0.69696461  0.75887565  1
  O  O220  1  0.25539772  0.81971898  0.75747602  1
  O  O221  1  0.75960806  0.82606635  0.75636373  1
