# generated using pymatgen
data_KTlO
_symmetry_space_group_name_H-M   'P 1'
_cell_length_a   3.62595092
_cell_length_b   6.25661263
_cell_length_c   6.72759902
_cell_angle_alpha   106.28549947
_cell_angle_beta   105.62421982
_cell_angle_gamma   89.99633078
_symmetry_Int_Tables_number   1
_chemical_formula_structural   KTlO
_chemical_formula_sum   'K2 Tl2 O2'
_cell_volume   140.61542652
_cell_formula_units_Z   2
loop_
 _symmetry_equiv_pos_site_id
 _symmetry_equiv_pos_as_xyz
  1  'x, y, z'
loop_
 _atom_site_type_symbol
 _atom_site_label
 _atom_site_symmetry_multiplicity
 _atom_site_fract_x
 _atom_site_fract_y
 _atom_site_fract_z
 _atom_site_occupancy
  K  K0  1  0.12969744  0.34735852  0.25919387  1
  K  K1  1  0.87030256  0.65264148  0.74080613  1
  Tl  Tl2  1  0.63722749  0.84789176  0.27456305  1
  Tl  Tl3  1  0.36277251  0.15210824  0.72543695  1
  O  O4  1  0.74980534  0.21681375  0.49968519  1
  O  O5  1  0.25019466  0.78318625  0.50031481  1
