# generated using pymatgen
data_LaTaSi(SO6)2
_symmetry_space_group_name_H-M   'P 1'
_cell_length_a   9.25031372
_cell_length_b   9.30763123
_cell_length_c   22.62134224
_cell_angle_alpha   89.66981000
_cell_angle_beta   90.00000000
_cell_angle_gamma   119.79649925
_symmetry_Int_Tables_number   1
_chemical_formula_structural   LaTaSi(SO6)2
_chemical_formula_sum   'La6 Ta6 Si6 S12 O72'
_cell_volume   1690.13725984
_cell_formula_units_Z   6
loop_
 _symmetry_equiv_pos_site_id
 _symmetry_equiv_pos_as_xyz
  1  'x, y, z'
loop_
 _atom_site_type_symbol
 _atom_site_label
 _atom_site_symmetry_multiplicity
 _atom_site_fract_x
 _atom_site_fract_y
 _atom_site_fract_z
 _atom_site_occupancy
  La  La0  1  0.99245614  0.01481493  0.37473966  1
  La  La1  1  0.02235879  0.01481493  0.87473966  1
  La  La2  1  0.66866444  0.33312628  0.70761879  1
  La  La3  1  0.66446284  0.33312628  0.20761879  1
  La  La4  1  0.33110676  0.66634353  0.04155882  1
  La  La5  1  0.33523578  0.66634353  0.54155882  1
  Ta  Ta6  1  0.99847414  0.01283447  0.64403974  1
  Ta  Ta7  1  0.01436034  0.01283447  0.14403974  1
  Ta  Ta8  1  0.65806902  0.32532187  0.97698154  1
  Ta  Ta9  1  0.66725385  0.32532187  0.47698154  1
  Ta  Ta10  1  0.33307396  0.66795308  0.31109554  1
  Ta  Ta11  1  0.33487812  0.66795308  0.81109554  1
  Si  Si12  1  0.04174592  0.29859200  0.24992662  1
  Si  Si13  1  0.25684608  0.29859200  0.74992662  1
  Si  Si14  1  0.92197071  0.29676534  0.58438275  1
  Si  Si15  1  0.37479563  0.29676534  0.08438275  1
  Si  Si16  1  0.38128712  0.95851476  0.91812672  1
  Si  Si17  1  0.57722663  0.95851476  0.41812672  1
  S  S18  1  0.24638071  0.94429962  0.24943091  1
  S  S19  1  0.70116159  0.74754222  0.25039684  1
  S  S20  1  0.04638062  0.74754222  0.75039684  1
  S  S21  1  0.69791892  0.94429962  0.74943091  1
  S  S22  1  0.36348181  0.08360887  0.58156508  1
  S  S23  1  0.72050741  0.63573473  0.58303966  1
  S  S24  1  0.91522832  0.63573473  0.08303966  1
  S  S25  1  0.72012806  0.08360887  0.08156508  1
  S  S26  1  0.58861174  0.62065322  0.91485286  1
  S  S27  1  0.03366300  0.42003407  0.91549905  1
  S  S28  1  0.38637007  0.42003407  0.41549905  1
  S  S29  1  0.03204049  0.62065322  0.41485286  1
  O  O30  1  0.18525814  0.98185462  0.30256474  1
  O  O31  1  0.80151900  0.80714437  0.30355412  1
  O  O32  1  0.00521750  0.18322043  0.30653999  1
  O  O33  1  0.17800293  0.18322043  0.80653999  1
  O  O34  1  0.00562537  0.80714437  0.80355412  1
  O  O35  1  0.79659648  0.98185462  0.80256474  1
  O  O36  1  0.78728109  0.91853691  0.69759893  1
  O  O37  1  0.12276802  0.19185116  0.69327151  1
  O  O38  1  0.06823617  0.85561956  0.69803027  1
  O  O39  1  0.78738339  0.85561956  0.19803027  1
  O  O40  1  0.06908314  0.19185116  0.19327151  1
  O  O41  1  0.13125581  0.91853691  0.19759893  1
  O  O42  1  0.84276690  0.32747837  0.64163695  1
  O  O43  1  0.46277211  0.14263460  0.63460091  1
  O  O44  1  0.67848169  0.53180107  0.63561618  1
  O  O45  1  0.85332037  0.53180107  0.13561618  1
  O  O46  1  0.67986350  0.14263460  0.13460091  1
  O  O47  1  0.48471247  0.32747837  0.14163695  1
  O  O48  1  0.47832891  0.27045308  0.02677669  1
  O  O49  1  0.80950831  0.54906608  0.03012908  1
  O  O50  1  0.75049206  0.20226651  0.03019623  1
  O  O51  1  0.45177545  0.20226651  0.53019623  1
  O  O52  1  0.73955877  0.54906608  0.53012908  1
  O  O53  1  0.79212517  0.27045308  0.52677669  1
  O  O54  1  0.52776865  0.65355689  0.96898965  1
  O  O55  1  0.14044205  0.47011510  0.96715047  1
  O  O56  1  0.35678201  0.85081736  0.97578964  1
  O  O57  1  0.49403436  0.85081736  0.47578964  1
  O  O58  1  0.32967205  0.47011510  0.46715047  1
  O  O59  1  0.12578724  0.65355689  0.46898965  1
  O  O60  1  0.12053658  0.58796673  0.36418147  1
  O  O61  1  0.45424217  0.85981269  0.36014938  1
  O  O62  1  0.40990501  0.53594473  0.36393193  1
  O  O63  1  0.12603872  0.53594473  0.86393193  1
  O  O64  1  0.40556952  0.85981269  0.86014938  1
  O  O65  1  0.46742916  0.58796673  0.86418147  1
  O  O66  1  0.99691783  0.75146575  0.39853933  1
  O  O67  1  0.76629042  0.00554722  0.40750138  1
  O  O68  1  0.27135183  0.24884583  0.39905354  1
  O  O69  1  0.97749400  0.24884583  0.89905354  1
  O  O70  1  0.23925680  0.00554722  0.90750138  1
  O  O71  1  0.75454792  0.75146575  0.89853933  1
  O  O72  1  0.91376312  0.11082647  0.59418071  1
  O  O73  1  0.19984833  0.08386313  0.58898605  1
  O  O74  1  0.88563498  0.79290974  0.59247113  1
  O  O75  1  0.90727476  0.79290974  0.09247113  1
  O  O76  1  0.88401479  0.08386313  0.08898605  1
  O  O77  1  0.19706335  0.11082647  0.09418071  1
  O  O78  1  0.64968077  0.06706454  0.73503856  1
  O  O79  1  0.44066842  0.34350751  0.73150268  1
  O  O80  1  0.92234044  0.57510312  0.73923276  1
  O  O81  1  0.65276368  0.57510312  0.23923276  1
  O  O82  1  0.90284009  0.34350751  0.23150268  1
  O  O83  1  0.41738477  0.06706454  0.23503856  1
  O  O84  1  0.59421282  0.45977708  0.92168064  1
  O  O85  1  0.88266128  0.43777334  0.92641879  1
  O  O86  1  0.56153441  0.14440589  0.92715355  1
  O  O87  1  0.58287248  0.14440589  0.42715355  1
  O  O88  1  0.55511306  0.43777334  0.42641879  1
  O  O89  1  0.86556527  0.45977708  0.42168064  1
  O  O90  1  0.31958862  0.42825527  0.06740298  1
  O  O91  1  0.08927359  0.68299313  0.07159323  1
  O  O92  1  0.59426885  0.91514559  0.06716518  1
  O  O93  1  0.32087573  0.91514559  0.56716518  1
  O  O94  1  0.59371854  0.68299313  0.57159323  1
  O  O95  1  0.10866564  0.42825527  0.56740298  1
  O  O96  1  0.23947772  0.77717842  0.25612980  1
  O  O97  1  0.53933045  0.75329055  0.25881622  1
  O  O98  1  0.21851368  0.47576816  0.26317074  1
  O  O99  1  0.25725348  0.47576816  0.76317074  1
  O  O100  1  0.21395910  0.75329055  0.75881622  1
  O  O101  1  0.53769970  0.77717842  0.75612980  1
