# generated using pymatgen
data_Cs2VF6
_symmetry_space_group_name_H-M   'P 1'
_cell_length_a   6.17963799
_cell_length_b   7.23785164
_cell_length_c   7.92885807
_cell_angle_alpha   90.00000000
_cell_angle_beta   112.93538700
_cell_angle_gamma   90.00000000
_symmetry_Int_Tables_number   1
_chemical_formula_structural   Cs2VF6
_chemical_formula_sum   'Cs4 V2 F12'
_cell_volume   326.60061790
_cell_formula_units_Z   2
loop_
 _symmetry_equiv_pos_site_id
 _symmetry_equiv_pos_as_xyz
  1  'x, y, z'
loop_
 _atom_site_type_symbol
 _atom_site_label
 _atom_site_symmetry_multiplicity
 _atom_site_fract_x
 _atom_site_fract_y
 _atom_site_fract_z
 _atom_site_occupancy
  Cs  Cs0  1  0.95361891  0.75000000  0.90723583  1
  Cs  Cs1  1  0.04638109  0.25000000  0.09276417  1
  Cs  Cs2  1  0.27169351  0.75000000  0.54338602  1
  Cs  Cs3  1  0.72830649  0.25000000  0.45661398  1
  V  V4  1  0.61508936  0.75000000  0.23017673  1
  V  V5  1  0.38491064  0.25000000  0.76982327  1
  F  F6  1  0.74137566  0.75000000  0.48275232  1
  F  F7  1  0.25862434  0.25000000  0.51724768  1
  F  F8  1  0.49239995  0.75000000  0.98480090  1
  F  F9  1  0.50760005  0.25000000  0.01519910  1
  F  F10  1  0.83758353  0.56956061  0.23650600  1
  F  F11  1  0.60107753  0.43043939  0.76349400  1
  F  F12  1  0.60107753  0.06956061  0.76349400  1
  F  F13  1  0.83758353  0.93043939  0.23650600  1
  F  F14  1  0.39892247  0.56956061  0.23650600  1
  F  F15  1  0.16241647  0.43043939  0.76349400  1
  F  F16  1  0.39892247  0.93043939  0.23650600  1
  F  F17  1  0.16241647  0.06956061  0.76349400  1
