# generated using pymatgen
data_MgFe4(PO4)4
_symmetry_space_group_name_H-M   'P 1'
_cell_length_a   10.35790554
_cell_length_b   7.13920512
_cell_length_c   5.16442458
_cell_angle_alpha   89.68542743
_cell_angle_beta   87.21284230
_cell_angle_gamma   88.75672737
_symmetry_Int_Tables_number   1
_chemical_formula_structural   MgFe4(PO4)4
_chemical_formula_sum   'Mg1 Fe4 P4 O16'
_cell_volume   381.34948240
_cell_formula_units_Z   1
loop_
 _symmetry_equiv_pos_site_id
 _symmetry_equiv_pos_as_xyz
  1  'x, y, z'
loop_
 _atom_site_type_symbol
 _atom_site_label
 _atom_site_symmetry_multiplicity
 _atom_site_fract_x
 _atom_site_fract_y
 _atom_site_fract_z
 _atom_site_occupancy
  Mg  Mg0  1  0.84214100  0.72928100  0.30101200  1
  Fe  Fe1  1  0.83754800  0.23146000  0.32084800  1
  Fe  Fe2  1  0.62966200  0.71543800  0.80973400  1
  Fe  Fe3  1  0.34452300  0.19127300  0.19854700  1
  Fe  Fe4  1  0.16659400  0.70670100  0.68511500  1
  P  P5  1  0.09267300  0.94660400  0.18830200  1
  P  P6  1  0.41149200  0.44127700  0.68950900  1
  P  P7  1  0.60145600  0.98024600  0.31656900  1
  P  P8  1  0.90579300  0.47848800  0.80174600  1
  O  O9  1  0.55343300  0.47528100  0.73374500  1
  O  O10  1  0.86926100  0.48530000  0.10132800  1
  O  O11  1  0.87425500  0.29006200  0.68740700  1
  O  O12  1  0.83006400  0.64437200  0.67090200  1
  O  O13  1  0.05295600  0.51247600  0.76453800  1
  O  O14  1  0.11612300  0.91443300  0.89361700  1
  O  O15  1  0.13501200  0.76551200  0.33340400  1
  O  O16  1  0.16785800  0.11815600  0.27110100  1
  O  O17  1  0.33358200  0.62607200  0.75806600  1
  O  O18  1  0.66449000  0.16146200  0.22128200  1
  O  O19  1  0.38742100  0.39480400  0.40280600  1
  O  O20  1  0.45624500  0.98243000  0.24727500  1
  O  O21  1  0.94423600  0.97346300  0.25388500  1
  O  O22  1  0.61767400  0.94875800  0.60749600  1
  O  O23  1  0.67021400  0.80527000  0.17444900  1
  O  O24  1  0.35779200  0.27616800  0.85481400  1
