# generated using pymatgen
data_CsHgCl3
_symmetry_space_group_name_H-M   'P 1'
_cell_length_a   13.38732080
_cell_length_b   13.38700318
_cell_length_c   9.46966602
_cell_angle_alpha   90.00155691
_cell_angle_beta   89.99357249
_cell_angle_gamma   120.00013670
_symmetry_Int_Tables_number   1
_chemical_formula_structural   CsHgCl3
_chemical_formula_sum   'Cs9 Hg9 Cl27'
_cell_volume   1469.74411496
_cell_formula_units_Z   9
loop_
 _symmetry_equiv_pos_site_id
 _symmetry_equiv_pos_as_xyz
  1  'x, y, z'
loop_
 _atom_site_type_symbol
 _atom_site_label
 _atom_site_symmetry_multiplicity
 _atom_site_fract_x
 _atom_site_fract_y
 _atom_site_fract_z
 _atom_site_occupancy
  Cs  Cs0  1  0.54856791  0.44714731  0.13543254  1
  Cs  Cs1  1  0.89861002  0.45143062  0.46867909  1
  Cs  Cs2  1  0.55280773  0.10134637  0.80208938  1
  Cs  Cs3  1  0.23248142  0.44585242  0.82872861  1
  Cs  Cs4  1  0.21335574  0.76748489  0.16185986  1
  Cs  Cs5  1  0.55404842  0.78664972  0.49536477  1
  Cs  Cs6  1  0.22793701  0.11066060  0.47632144  1
  Cs  Cs7  1  0.88279218  0.77199528  0.80961983  1
  Cs  Cs8  1  0.88929069  0.11718851  0.14290726  1
  Hg  Hg9  1  0.22429650  0.11187571  0.97828276  1
  Hg  Hg10  1  0.88747555  0.77560365  0.31167149  1
  Hg  Hg11  1  0.88814904  0.11248148  0.64493763  1
  Hg  Hg12  1  0.55368383  0.44104955  0.64839899  1
  Hg  Hg13  1  0.88736906  0.44630335  0.98156113  1
  Hg  Hg14  1  0.55889010  0.11260529  0.31491591  1
  Hg  Hg15  1  0.22063188  0.44208718  0.31105650  1
  Hg  Hg16  1  0.22143744  0.77933853  0.64446375  1
  Hg  Hg17  1  0.55793199  0.77855150  0.97784486  1
  Cl  Cl18  1  0.22772784  0.28334965  0.13961567  1
  Cl  Cl19  1  0.05561357  0.77236129  0.47303903  1
  Cl  Cl20  1  0.71677951  0.94425752  0.80633356  1
  Cl  Cl21  1  0.04854296  0.44613273  0.16196909  1
  Cl  Cl22  1  0.39765039  0.95150401  0.49544760  1
  Cl  Cl23  1  0.55364773  0.60233539  0.82868519  1
  Cl  Cl24  1  0.39575023  0.25549387  0.79832191  1
  Cl  Cl25  1  0.85970236  0.60427476  0.13162804  1
  Cl  Cl26  1  0.74459395  0.14026460  0.46471919  1
  Cl  Cl27  1  0.07076110  0.08866081  0.82520571  1
  Cl  Cl28  1  0.01777898  0.92922390  0.15875306  1
  Cl  Cl29  1  0.91148290  0.98232049  0.49178449  1
  Cl  Cl30  1  0.34633623  0.08065765  0.13686017  1
  Cl  Cl31  1  0.73425889  0.65373039  0.47026151  1
  Cl  Cl32  1  0.91938112  0.26578461  0.80335895  1
  Cl  Cl33  1  0.42024615  0.44958289  0.48622681  1
  Cl  Cl34  1  0.02937671  0.57970146  0.81936051  1
  Cl  Cl35  1  0.55039391  0.97062541  0.15264542  1
  Cl  Cl36  1  0.39211497  0.76715690  0.86130982  1
  Cl  Cl37  1  0.23276737  0.62496182  0.52761890  1
  Cl  Cl38  1  0.37506260  0.60770649  0.19423128  1
  Cl  Cl39  1  0.69210484  0.79142045  0.15593149  1
  Cl  Cl40  1  0.20861965  0.90073203  0.82253419  1
  Cl  Cl41  1  0.09938236  0.30795665  0.48920016  1
  Cl  Cl42  1  0.55773591  0.27586464  0.41882796  1
  Cl  Cl43  1  0.72423637  0.28188066  0.08544208  1
  Cl  Cl44  1  0.71819690  0.44240898  0.75209941  1
