# generated using pymatgen
data_Mn2BO4
_symmetry_space_group_name_H-M   'P 1'
_cell_length_a   3.24558048
_cell_length_b   9.32456600
_cell_length_c   9.43972626
_cell_angle_alpha   90.00001768
_cell_angle_beta   90.00002089
_cell_angle_gamma   90.46002318
_symmetry_Int_Tables_number   1
_chemical_formula_structural   Mn2BO4
_chemical_formula_sum   'Mn8 B4 O16'
_cell_volume   285.67116869
_cell_formula_units_Z   4
loop_
 _symmetry_equiv_pos_site_id
 _symmetry_equiv_pos_as_xyz
  1  'x, y, z'
loop_
 _atom_site_type_symbol
 _atom_site_label
 _atom_site_symmetry_multiplicity
 _atom_site_fract_x
 _atom_site_fract_y
 _atom_site_fract_z
 _atom_site_occupancy
  Mn  Mn0  1  0.27415367  0.68441646  0.09989380  1
  Mn  Mn1  1  0.22584360  0.81556566  0.59988966  1
  Mn  Mn2  1  0.72584113  0.31554328  0.90009512  1
  Mn  Mn3  1  0.77415991  0.18447469  0.40010009  1
  Mn  Mn4  1  0.27062116  0.06554156  0.11767273  1
  Mn  Mn5  1  0.22937713  0.43446575  0.61767235  1
  Mn  Mn6  1  0.72933471  0.93458520  0.88234796  1
  Mn  Mn7  1  0.77066860  0.56540727  0.38234791  1
  B  B8  1  0.29729799  0.37089941  0.16754125  1
  B  B9  1  0.20270277  0.12910717  0.66754216  1
  B  B10  1  0.70269028  0.62907181  0.83245387  1
  B  B11  1  0.79730901  0.87092101  0.33245332  1
  O  O12  1  0.78463050  0.38654809  0.48424268  1
  O  O13  1  0.26849584  0.13041575  0.52572861  1
  O  O14  1  0.76848237  0.63034667  0.97424222  1
  O  O15  1  0.73151598  0.86964119  0.47423668  1
  O  O16  1  0.71537232  0.11346856  0.98423853  1
  O  O17  1  0.23150333  0.36959499  0.02572294  1
  O  O18  1  0.28456714  0.88659271  0.01578299  1
  O  O19  1  0.21542730  0.61339160  0.51577974  1
  O  O20  1  0.84170334  0.00050577  0.26130914  1
  O  O21  1  0.65829415  0.49948792  0.76130789  1
  O  O22  1  0.31560484  0.24141543  0.24067743  1
  O  O23  1  0.34171641  0.50044047  0.23869202  1
  O  O24  1  0.81563252  0.74143629  0.25933036  1
  O  O25  1  0.68436923  0.75854613  0.75933129  1
  O  O26  1  0.18439575  0.25860228  0.74067807  1
  O  O27  1  0.15828500  0.99956588  0.73869119  1
