# generated using pymatgen
data_K2HgS2
_symmetry_space_group_name_H-M   'P 1'
_cell_length_a   7.09201891
_cell_length_b   8.06295231
_cell_length_c   10.82740396
_cell_angle_alpha   90.00000000
_cell_angle_beta   90.00000000
_cell_angle_gamma   90.00000000
_symmetry_Int_Tables_number   1
_chemical_formula_structural   K2HgS2
_chemical_formula_sum   'K8 Hg4 S8'
_cell_volume   619.13922070
_cell_formula_units_Z   4
loop_
 _symmetry_equiv_pos_site_id
 _symmetry_equiv_pos_as_xyz
  1  'x, y, z'
loop_
 _atom_site_type_symbol
 _atom_site_label
 _atom_site_symmetry_multiplicity
 _atom_site_fract_x
 _atom_site_fract_y
 _atom_site_fract_z
 _atom_site_occupancy
  K  K0  1  0.75000000  0.95185878  0.11248916  1
  K  K1  1  0.25000000  0.54814122  0.11248916  1
  K  K2  1  0.50000000  0.25000000  0.60455882  1
  K  K3  1  -0.00000000  0.25000000  0.60455882  1
  K  K4  1  0.50000000  0.75000000  0.39544118  1
  K  K5  1  -0.00000000  0.75000000  0.39544118  1
  K  K6  1  0.25000000  0.04814122  0.88751084  1
  K  K7  1  0.75000000  0.45185878  0.88751084  1
  Hg  Hg8  1  0.75000000  0.83655107  0.71466503  1
  Hg  Hg9  1  0.75000000  0.33655107  0.28533497  1
  Hg  Hg10  1  0.25000000  0.66344893  0.71466503  1
  Hg  Hg11  1  0.25000000  0.16344893  0.28533497  1
  S  S12  1  0.75000000  0.07613021  0.83543342  1
  S  S13  1  0.25000000  0.41491862  0.39217864  1
  S  S14  1  0.75000000  0.58508138  0.60782136  1
  S  S15  1  0.25000000  0.42386979  0.83543342  1
  S  S16  1  0.25000000  0.91491862  0.60782136  1
  S  S17  1  0.75000000  0.57613021  0.16456658  1
  S  S18  1  0.25000000  0.92386979  0.16456658  1
  S  S19  1  0.75000000  0.08508138  0.39217864  1
