# generated using pymatgen
data_Na3NbZnSi(PO6)2
_symmetry_space_group_name_H-M   'P 1'
_cell_length_a   15.78823188
_cell_length_b   9.04738663
_cell_length_c   8.86795416
_cell_angle_alpha   89.99999381
_cell_angle_beta   124.65607792
_cell_angle_gamma   90.00000228
_symmetry_Int_Tables_number   1
_chemical_formula_structural   Na3NbZnSi(PO6)2
_chemical_formula_sum   'Na12 Nb4 Zn4 Si4 P8 O48'
_cell_volume   1041.97749136
_cell_formula_units_Z   4
loop_
 _symmetry_equiv_pos_site_id
 _symmetry_equiv_pos_as_xyz
  1  'x, y, z'
loop_
 _atom_site_type_symbol
 _atom_site_label
 _atom_site_symmetry_multiplicity
 _atom_site_fract_x
 _atom_site_fract_y
 _atom_site_fract_z
 _atom_site_occupancy
  Na  Na0  1  0.24945348  0.72771008  0.97743580  1
  Na  Na1  1  0.74945337  0.77228998  0.47743557  1
  Na  Na2  1  0.74945347  0.22771004  0.97743562  1
  Na  Na3  1  0.24945350  0.27229004  0.47743557  1
  Na  Na4  1  0.50748783  0.10438091  0.74988713  1
  Na  Na5  1  0.50748785  0.89561911  0.24988715  1
  Na  Na6  1  0.00748788  0.60438097  0.74988722  1
  Na  Na7  1  0.00748791  0.39561921  0.24988729  1
  Na  Na8  1  0.18212983  0.93250624  0.29713923  1
  Na  Na9  1  0.18212986  0.06749368  0.79713918  1
  Na  Na10  1  0.68212983  0.43250637  0.29713912  1
  Na  Na11  1  0.68212978  0.56749385  0.79713905  1
  Nb  Nb12  1  0.89520393  0.75539800  0.93577944  1
  Nb  Nb13  1  0.89520385  0.24460219  0.43577895  1
  Nb  Nb14  1  0.39520391  0.25539800  0.93577924  1
  Nb  Nb15  1  0.39520380  0.74460232  0.43577890  1
  Zn  Zn16  1  0.10111185  0.74094339  0.55501293  1
  Zn  Zn17  1  0.10111189  0.25905653  0.05501306  1
  Zn  Zn18  1  0.60111187  0.24094344  0.55501298  1
  Zn  Zn19  1  0.60111185  0.75905658  0.05501299  1
  Si  Si20  1  0.64842747  0.89282806  0.74794617  1
  Si  Si21  1  0.64842742  0.10717184  0.24794622  1
  Si  Si22  1  0.14842756  0.39282806  0.74794636  1
  Si  Si23  1  0.14842753  0.60717185  0.24794627  1
  P  P24  1  -0.00011604  0.95794756  0.76197897  1
  P  P25  1  -0.00011620  0.04205248  0.26197891  1
  P  P26  1  0.49988385  0.45794758  0.76197880  1
  P  P27  1  0.49988387  0.54205235  0.26197894  1
  P  P28  1  0.35401253  0.90127378  0.76155873  1
  P  P29  1  0.35401252  0.09872597  0.26155870  1
  P  P30  1  0.85401260  0.40127382  0.76155877  1
  P  P31  1  0.85401246  0.59872607  0.26155864  1
  O  O32  1  0.15093486  0.57014081  0.74068152  1
  O  O33  1  0.85287639  0.57757650  0.75161358  1
  O  O34  1  0.85287632  0.42242385  0.25161345  1
  O  O35  1  0.15093475  0.42985898  0.24068138  1
  O  O36  1  0.65093481  0.07014121  0.74068146  1
  O  O37  1  0.35287622  0.07757644  0.75161332  1
  O  O38  1  0.35287639  0.92242393  0.25161344  1
  O  O39  1  0.65093466  0.92985912  0.24068129  1
  O  O40  1  0.43856567  0.56832143  0.59107865  1
  O  O41  1  0.56099491  0.54656085  0.93723875  1
  O  O42  1  0.56099465  0.45343942  0.43723830  1
  O  O43  1  0.43856557  0.43167802  0.09107821  1
  O  O44  1  0.93856575  0.06832138  0.59107868  1
  O  O45  1  0.06099492  0.04656078  0.93723876  1
  O  O46  1  0.06099485  0.95343953  0.43723843  1
  O  O47  1  0.93856574  0.93167799  0.09107846  1
  O  O48  1  0.25729369  0.85569372  0.74818450  1
  O  O49  1  0.74547772  0.80848014  0.75420866  1
  O  O50  1  0.74547759  0.19151970  0.25420853  1
  O  O51  1  0.25729368  0.14430651  0.24818462  1
  O  O52  1  0.75729347  0.35569359  0.74818432  1
  O  O53  1  0.24547773  0.30848032  0.75420875  1
  O  O54  1  0.24547765  0.69151966  0.25420865  1
  O  O55  1  0.75729370  0.64430646  0.24818459  1
  O  O56  1  0.35471390  0.85599688  0.58693359  1
  O  O57  1  0.65021478  0.82927941  0.91545568  1
  O  O58  1  0.65021484  0.17072024  0.41545579  1
  O  O59  1  0.35471397  0.14400299  0.08693387  1
  O  O60  1  0.85471395  0.35599692  0.58693382  1
  O  O61  1  0.15021484  0.32927952  0.91545544  1
  O  O62  1  0.15021492  0.67072057  0.41545568  1
  O  O63  1  0.85471394  0.64400303  0.08693378  1
  O  O64  1  0.45175562  0.84681602  0.93496558  1
  O  O65  1  0.53497325  0.82521271  0.55804838  1
  O  O66  1  0.53497296  0.17478740  0.05804818  1
  O  O67  1  0.45175559  0.15318391  0.43496561  1
  O  O68  1  0.95175575  0.34681615  0.93496562  1
  O  O69  1  0.03497305  0.32521278  0.55804823  1
  O  O70  1  0.03497290  0.67478731  0.05804807  1
  O  O71  1  0.95175572  0.65318412  0.43496568  1
  O  O72  1  0.07121379  0.85608284  0.74464739  1
  O  O73  1  0.91327504  0.86175877  0.75020644  1
  O  O74  1  0.91327520  0.13824109  0.25020657  1
  O  O75  1  0.07121365  0.14391702  0.24464749  1
  O  O76  1  0.57121377  0.35608295  0.74464718  1
  O  O77  1  0.41327498  0.36175891  0.75020613  1
  O  O78  1  0.41327515  0.63824091  0.25020630  1
  O  O79  1  0.57121362  0.64391687  0.24464731  1
