# generated using pymatgen
data_Na6Mg2Zr6Si5S7O48
_symmetry_space_group_name_H-M   'P 1'
_cell_length_a   18.02501933
_cell_length_b   9.04146950
_cell_length_c   23.38010893
_cell_angle_alpha   89.98743875
_cell_angle_beta   89.97957685
_cell_angle_gamma   120.11815362
_symmetry_Int_Tables_number   1
_chemical_formula_structural   Na6Mg2Zr6Si5S7O48
_chemical_formula_sum   'Na18 Mg6 Zr18 Si15 S21 O144'
_cell_volume   3295.89637308
_cell_formula_units_Z   3
loop_
 _symmetry_equiv_pos_site_id
 _symmetry_equiv_pos_as_xyz
  1  'x, y, z'
loop_
 _atom_site_type_symbol
 _atom_site_label
 _atom_site_symmetry_multiplicity
 _atom_site_fract_x
 _atom_site_fract_y
 _atom_site_fract_z
 _atom_site_occupancy
  Na  Na0  1  0.65520290  0.34573845  0.58199305  1
  Na  Na1  1  0.52177132  0.69164729  0.58407560  1
  Na  Na2  1  0.82320994  0.95481856  0.58263681  1
  Na  Na3  1  0.15392044  0.96198595  0.08448307  1
  Na  Na4  1  0.32302889  0.69282930  0.08498149  1
  Na  Na5  1  0.02180807  0.35287381  0.08649765  1
  Na  Na6  1  0.00484700  0.99431705  0.49527891  1
  Na  Na7  1  0.49567145  0.00584288  0.50007372  1
  Na  Na8  1  0.99682845  0.98664683  0.00222305  1
  Na  Na9  1  0.50302304  0.00726851  0.99970839  1
  Na  Na10  1  0.32841891  0.32265114  0.82073641  1
  Na  Na11  1  0.82900243  0.33027638  0.83341302  1
  Na  Na12  1  0.32682411  0.32583741  0.33448877  1
  Na  Na13  1  0.83470278  0.34169016  0.32474687  1
  Na  Na14  1  0.16427435  0.66488639  0.16116015  1
  Na  Na15  1  0.67156723  0.67485183  0.17079468  1
  Na  Na16  1  0.17142534  0.66726474  0.66631813  1
  Na  Na17  1  0.66518499  0.66460342  0.65626193  1
  Mg  Mg18  1  0.33495815  0.32435883  0.68900066  1
  Mg  Mg19  1  0.82678726  0.33088384  0.67833681  1
  Mg  Mg20  1  0.32523073  0.31983669  0.18112772  1
  Mg  Mg21  1  0.83728709  0.34631057  0.19107235  1
  Mg  Mg22  1  0.16608772  0.66856918  0.02455766  1
  Mg  Mg23  1  0.66661170  0.66525922  0.52379752  1
  Zr  Zr24  1  0.00003063  0.99093304  0.35506936  1
  Zr  Zr25  1  0.50237244  0.99917827  0.35255292  1
  Zr  Zr26  1  0.00310599  0.00517729  0.85205593  1
  Zr  Zr27  1  0.49936427  0.99771512  0.85059064  1
  Zr  Zr28  1  0.00511423  0.00437214  0.64661450  1
  Zr  Zr29  1  0.49371243  0.00465741  0.64465697  1
  Zr  Zr30  1  0.99534900  0.98465069  0.14804255  1
  Zr  Zr31  1  0.50322043  0.00556662  0.14965369  1
  Zr  Zr32  1  0.32820197  0.31789966  0.98571715  1
  Zr  Zr33  1  0.83337080  0.34709949  0.97843371  1
  Zr  Zr34  1  0.33253008  0.31875013  0.47768561  1
  Zr  Zr35  1  0.83269473  0.34798482  0.48320431  1
  Zr  Zr36  1  0.67201244  0.67885675  0.01576395  1
  Zr  Zr37  1  0.16741058  0.66765583  0.51183105  1
  Zr  Zr38  1  0.16475025  0.66234629  0.31956889  1
  Zr  Zr39  1  0.67213816  0.67975447  0.30976452  1
  Zr  Zr40  1  0.17104966  0.66438581  0.80847785  1
  Zr  Zr41  1  0.67211488  0.67779481  0.81583909  1
  Si  Si42  1  0.65090547  0.00895380  0.24911592  1
  Si  Si43  1  0.85467366  0.70112868  0.25078337  1
  Si  Si44  1  0.15093306  0.29201471  0.74893462  1
  Si  Si45  1  0.35519821  0.01082255  0.75050901  1
  Si  Si46  1  0.47686656  0.33974863  0.58572835  1
  Si  Si47  1  0.68853717  0.03947689  0.58506408  1
  Si  Si48  1  0.83379045  0.62786878  0.58653709  1
  Si  Si49  1  0.97688295  0.61693625  0.08584651  1
  Si  Si50  1  0.33498029  0.04050186  0.08596629  1
  Si  Si51  1  0.18677001  0.33698512  0.08635420  1
  Si  Si52  1  0.81543430  0.67105439  0.91541560  1
  Si  Si53  1  0.66584143  0.96234372  0.91695394  1
  Si  Si54  1  0.31498667  0.95823565  0.41504097  1
  Si  Si55  1  0.16663658  0.37238220  0.41670519  1
  Si  Si56  1  0.01694924  0.66049769  0.41683422  1
  S  S57  1  0.14905951  0.00321266  0.24969319  1
  S  S58  1  0.35374898  0.70351307  0.24899028  1
  S  S59  1  0.00053117  0.29231975  0.24902236  1
  S  S60  1  0.49694237  0.29148960  0.25078142  1
  S  S61  1  0.64802422  0.29347031  0.74986418  1
  S  S62  1  0.99689689  0.70353074  0.75047935  1
  S  S63  1  0.49998300  0.70615445  0.74906222  1
  S  S64  1  0.85500480  0.00530615  0.74913986  1
  S  S65  1  0.97944311  0.33790465  0.58588064  1
  S  S66  1  0.19005388  0.04209318  0.58529355  1
  S  S67  1  0.32993709  0.61633689  0.58522454  1
  S  S68  1  0.47923277  0.62120197  0.08491907  1
  S  S69  1  0.83141290  0.04465340  0.08445921  1
  S  S70  1  0.68833739  0.33534615  0.08421334  1
  S  S71  1  0.31173770  0.66536066  0.91801665  1
  S  S72  1  0.02294144  0.37857268  0.91765383  1
  S  S73  1  0.52063859  0.37624080  0.91629648  1
  S  S74  1  0.16711608  0.95514581  0.91703809  1
  S  S75  1  0.81059770  0.95673210  0.41870639  1
  S  S76  1  0.66599183  0.37860979  0.41721084  1
  S  S77  1  0.52300505  0.66698273  0.41781327  1
  O  O78  1  0.10573615  0.02367079  0.30052491  1
  O  O79  1  0.59754152  0.02478161  0.30442442  1
  O  O80  1  0.40780058  0.79502894  0.29979236  1
  O  O81  1  0.91342585  0.80891454  0.30559686  1
  O  O82  1  0.48532345  0.18313470  0.30165011  1
  O  O83  1  0.99265416  0.18752727  0.29973745  1
  O  O84  1  0.09797590  0.17107515  0.80516820  1
  O  O85  1  0.60411598  0.18540329  0.80148276  1
  O  O86  1  0.49232568  0.79774071  0.80087800  1
  O  O87  1  0.98551749  0.78868024  0.80196675  1
  O  O88  1  0.41383201  0.02091958  0.80686860  1
  O  O89  1  0.90735650  0.01963109  0.80060341  1
  O  O90  1  0.39894926  0.96772543  0.69622875  1
  O  O91  1  0.89365617  0.97578314  0.69730019  1
  O  O92  1  0.08495292  0.19803323  0.69494065  1
  O  O93  1  0.59520893  0.21255108  0.69816619  1
  O  O94  1  0.01161156  0.81317012  0.69937969  1
  O  O95  1  0.51566554  0.81346137  0.69766109  1
  O  O96  1  0.39514402  0.81245170  0.19642775  1
  O  O97  1  0.89684900  0.82799318  0.19449547  1
  O  O98  1  0.01394444  0.21346256  0.19603197  1
  O  O99  1  0.51164731  0.21057635  0.19907042  1
  O  O100  1  0.09592175  0.97998134  0.19709390  1
  O  O101  1  0.58529293  0.97157739  0.19392903  1
  O  O102  1  0.43404570  0.37691061  0.63925899  1
  O  O103  1  0.93972919  0.35885033  0.63713490  1
  O  O104  1  0.24026120  0.12371036  0.63568556  1
  O  O105  1  0.74987864  0.12152480  0.63951601  1
  O  O106  1  0.31885075  0.51690967  0.63633528  1
  O  O107  1  0.81758973  0.50968619  0.64104533  1
  O  O108  1  0.44019620  0.52013505  0.13609845  1
  O  O109  1  0.93267986  0.48895227  0.13789621  1
  O  O110  1  0.31893207  0.12967624  0.13931074  1
  O  O111  1  0.81736361  0.11762881  0.13573063  1
  O  O112  1  0.25118104  0.37800446  0.13846455  1
  O  O113  1  0.73991343  0.36022965  0.13492047  1
  O  O114  1  0.23132198  0.29659097  0.02838474  1
  O  O115  1  0.72488288  0.30582964  0.03112568  1
  O  O116  1  0.42615191  0.54526717  0.03205950  1
  O  O117  1  0.91759339  0.53192813  0.02694912  1
  O  O118  1  0.35288685  0.16322535  0.02707080  1
  O  O119  1  0.84345740  0.14499010  0.03177718  1
  O  O120  1  0.22528460  0.14324699  0.53191753  1
  O  O121  1  0.73150609  0.16662675  0.52829844  1
  O  O122  1  0.34409818  0.54238473  0.53252392  1
  O  O123  1  0.85280331  0.54470761  0.52844926  1
  O  O124  1  0.41762574  0.30531622  0.52763384  1
  O  O125  1  0.92657340  0.30575818  0.53339697  1
  O  O126  1  0.27322501  0.69147582  0.96936933  1
  O  O127  1  0.76729410  0.69280659  0.97187100  1
  O  O128  1  0.07394627  0.45353648  0.96934975  1
  O  O129  1  0.57304928  0.45543554  0.96838774  1
  O  O130  1  0.15543792  0.85653783  0.96930568  1
  O  O131  1  0.65012470  0.83698136  0.97255182  1
  O  O132  1  0.27147848  0.84478473  0.47264231  1
  O  O133  1  0.77163358  0.85136420  0.46954561  1
  O  O134  1  0.15156920  0.46176889  0.47327798  1
  O  O135  1  0.65414862  0.45384865  0.46929501  1
  O  O136  1  0.07743990  0.69362079  0.47330760  1
  O  O137  1  0.57378675  0.69391959  0.46942724  1
  O  O138  1  0.06438960  0.63856144  0.36051389  1
  O  O139  1  0.56245127  0.64139725  0.36608903  1
  O  O140  1  0.25528861  0.86973213  0.35904608  1
  O  O141  1  0.75720451  0.87248402  0.36639756  1
  O  O142  1  0.18259118  0.49285505  0.36036828  1
  O  O143  1  0.67586742  0.48171918  0.36565281  1
  O  O144  1  0.06246043  0.48364460  0.86612783  1
  O  O145  1  0.56235540  0.48023967  0.86467831  1
  O  O146  1  0.17728297  0.87292173  0.86567791  1
  O  O147  1  0.67749064  0.86359799  0.86118448  1
  O  O148  1  0.25839965  0.64126969  0.86622437  1
  O  O149  1  0.75359897  0.64076701  0.86001696  1
  O  O150  1  0.00892961  0.83259682  0.41097491  1
  O  O151  1  0.51270023  0.82148626  0.40978288  1
  O  O152  1  0.41033273  0.97937076  0.40815698  1
  O  O153  1  0.89710599  0.97676563  0.41044364  1
  O  O154  1  0.08089238  0.18628808  0.40891670  1
  O  O155  1  0.58826212  0.20336500  0.40999071  1
  O  O156  1  0.01246552  0.20356897  0.90955676  1
  O  O157  1  0.51199261  0.20423184  0.91083908  1
  O  O158  1  0.08984682  0.97612062  0.91023756  1
  O  O159  1  0.58037321  0.97968967  0.90986772  1
  O  O160  1  0.39869538  0.82081308  0.90990384  1
  O  O161  1  0.90922343  0.84132491  0.90884362  1
  O  O162  1  0.48986334  0.16753576  0.59028809  1
  O  O163  1  0.98553270  0.17608142  0.59068527  1
  O  O164  1  0.10084194  0.02066755  0.58996825  1
  O  O165  1  0.59132575  0.01951209  0.59221487  1
  O  O166  1  0.41196234  0.79101336  0.58937511  1
  O  O167  1  0.91862407  0.82633599  0.59217151  1
  O  O168  1  0.48625047  0.79459113  0.08901340  1
  O  O169  1  0.99020013  0.81419287  0.09049158  1
  O  O170  1  0.41953641  0.01127075  0.09002029  1
  O  O171  1  0.91118756  0.03104321  0.08839567  1
  O  O172  1  0.09075410  0.16311069  0.09057019  1
  O  O173  1  0.60011085  0.17954658  0.08915323  1
  O  O174  1  0.34632411  0.17508303  0.74707633  1
  O  O175  1  0.84735593  0.15803724  0.74520588  1
  O  O176  1  0.24411861  0.31960404  0.74295088  1
  O  O177  1  0.73309952  0.31076113  0.74635914  1
  O  O178  1  0.42279175  0.54042752  0.74595245  1
  O  O179  1  0.92202971  0.53312434  0.74458548  1
  O  O180  1  0.34870205  0.53752064  0.24405698  1
  O  O181  1  0.84516840  0.51856424  0.24639780  1
  O  O182  1  0.42205349  0.31121488  0.24375674  1
  O  O183  1  0.92341341  0.30541481  0.24405645  1
  O  O184  1  0.23384514  0.15754183  0.24496531  1
  O  O185  1  0.74385666  0.16763411  0.24181919  1
  O  O186  1  0.32323539  0.51416062  0.92249434  1
  O  O187  1  0.82256407  0.49902613  0.92075359  1
  O  O188  1  0.43546228  0.36086266  0.92170183  1
  O  O189  1  0.93488514  0.35324742  0.92256582  1
  O  O190  1  0.24466766  0.13099435  0.92086780  1
  O  O191  1  0.75232705  0.14497339  0.92449969  1
  O  O192  1  0.32410141  0.14731440  0.42094514  1
  O  O193  1  0.81943195  0.12752826  0.42286669  1
  O  O194  1  0.25245979  0.35802923  0.42512800  1
  O  O195  1  0.74255834  0.35721132  0.42074030  1
  O  O196  1  0.43502254  0.51654312  0.42251814  1
  O  O197  1  0.92366276  0.48793996  0.42262300  1
  O  O198  1  0.17524500  0.49982833  0.07405901  1
  O  O199  1  0.67570431  0.48560481  0.07595512  1
  O  O200  1  0.07324964  0.65013273  0.07521415  1
  O  O201  1  0.56606838  0.64310272  0.07682252  1
  O  O202  1  0.25199221  0.85427086  0.07433129  1
  O  O203  1  0.75565089  0.86528083  0.07729076  1
  O  O204  1  0.17815911  0.86768481  0.57915786  1
  O  O205  1  0.67439743  0.85000276  0.57457522  1
  O  O206  1  0.25603086  0.64593042  0.57900331  1
  O  O207  1  0.75133211  0.65042999  0.57543174  1
  O  O208  1  0.06685151  0.48699324  0.57932137  1
  O  O209  1  0.57367397  0.49784346  0.57556492  1
  O  O210  1  0.15522657  0.84620850  0.25395428  1
  O  O211  1  0.65008697  0.82505988  0.25807382  1
  O  O212  1  0.26900729  0.69055684  0.25345627  1
  O  O213  1  0.75841838  0.68670900  0.25775972  1
  O  O214  1  0.07938794  0.46537023  0.25358633  1
  O  O215  1  0.57650757  0.46015180  0.25741238  1
  O  O216  1  0.15100094  0.47530007  0.75847968  1
  O  O217  1  0.65314085  0.46230005  0.75682013  1
  O  O218  1  0.07648667  0.69365279  0.75797382  1
  O  O219  1  0.57788388  0.68905293  0.75721966  1
  O  O220  1  0.25987415  0.83278231  0.75896167  1
  O  O221  1  0.76846408  0.84667597  0.75527719  1
