# generated using pymatgen
data_Na4Zn2Si(SO6)2
_symmetry_space_group_name_H-M   'P 1'
_cell_length_a   9.15337278
_cell_length_b   9.16217464
_cell_length_c   22.12646242
_cell_angle_alpha   89.95267787
_cell_angle_beta   90.00000000
_cell_angle_gamma   119.96822627
_symmetry_Int_Tables_number   1
_chemical_formula_structural   Na4Zn2Si(SO6)2
_chemical_formula_sum   'Na24 Zn12 Si6 S12 O72'
_cell_volume   1607.53743189
_cell_formula_units_Z   6
loop_
 _symmetry_equiv_pos_site_id
 _symmetry_equiv_pos_as_xyz
  1  'x, y, z'
loop_
 _atom_site_type_symbol
 _atom_site_label
 _atom_site_symmetry_multiplicity
 _atom_site_fract_x
 _atom_site_fract_y
 _atom_site_fract_z
 _atom_site_occupancy
  Na  Na0  1  0.61997744  0.99914332  0.25478117  1
  Na  Na1  1  0.36342749  0.35259619  0.25202066  1
  Na  Na2  1  0.00851334  0.64250762  0.24197665  1
  Na  Na3  1  0.63399428  0.64250762  0.74197665  1
  Na  Na4  1  0.98916870  0.35259619  0.75202066  1
  Na  Na5  1  0.37916588  0.99914332  0.75478117  1
  Na  Na6  1  0.31228149  0.34213174  0.58604692  1
  Na  Na7  1  0.02129623  0.69610123  0.58058105  1
  Na  Na8  1  0.66706809  0.95064982  0.58362388  1
  Na  Na9  1  0.28358273  0.95064982  0.08362388  1
  Na  Na10  1  0.67480600  0.69610123  0.08058105  1
  Na  Na11  1  0.02985124  0.34213174  0.08604692  1
  Na  Na12  1  0.97729763  0.67709978  0.92430251  1
  Na  Na13  1  0.68913645  0.03294615  0.90941118  1
  Na  Na14  1  0.33318573  0.29031402  0.91650606  1
  Na  Na15  1  0.95712729  0.29031402  0.41650606  1
  Na  Na16  1  0.34380870  0.03294615  0.40941118  1
  Na  Na17  1  0.69980116  0.67709978  0.42430251  1
  Na  Na18  1  0.98062190  0.98810521  0.49962735  1
  Na  Na19  1  0.00748331  0.98810521  0.99962735  1
  Na  Na20  1  0.65919762  0.31505914  0.83342121  1
  Na  Na21  1  0.65586252  0.31505914  0.33342121  1
  Na  Na22  1  0.32099434  0.67439971  0.16688645  1
  Na  Na23  1  0.35340437  0.67439971  0.66688645  1
  Zn  Zn24  1  0.00308706  0.00263649  0.34678545  1
  Zn  Zn25  1  0.99954943  0.00263649  0.84678545  1
  Zn  Zn26  1  0.96987844  0.97354823  0.65178283  1
  Zn  Zn27  1  0.00366979  0.97354823  0.15178283  1
  Zn  Zn28  1  0.66494162  0.32889296  0.68075728  1
  Zn  Zn29  1  0.66395234  0.32889296  0.18075728  1
  Zn  Zn30  1  0.66343546  0.33103695  0.98625355  1
  Zn  Zn31  1  0.66760249  0.33103695  0.48625355  1
  Zn  Zn32  1  0.30654391  0.67541525  0.01403677  1
  Zn  Zn33  1  0.36887034  0.67541525  0.51403677  1
  Zn  Zn34  1  0.34243994  0.70109063  0.32027110  1
  Zn  Zn35  1  0.35864969  0.70109063  0.82027110  1
  Si  Si36  1  0.30007930  0.00343261  0.25043859  1
  Si  Si37  1  0.70335332  0.00343261  0.75043859  1
  Si  Si38  1  0.66672998  0.62176765  0.58325084  1
  Si  Si39  1  0.95503867  0.62176765  0.08325084  1
  Si  Si40  1  0.33291938  0.97476250  0.91697853  1
  Si  Si41  1  0.64184212  0.97476250  0.41697853  1
  S  S42  1  0.70073959  0.70235450  0.25045842  1
  S  S43  1  0.00154905  0.29532246  0.24977453  1
  S  S44  1  0.29377341  0.29532246  0.74977453  1
  S  S45  1  0.00161492  0.70235450  0.75045842  1
  S  S46  1  0.96937941  0.33666302  0.58292477  1
  S  S47  1  0.36457395  0.03432236  0.58384508  1
  S  S48  1  0.66974940  0.03432236  0.08384508  1
  S  S49  1  0.36728461  0.33666302  0.08292477  1
  S  S50  1  0.62402116  0.66380862  0.91737246  1
  S  S51  1  0.04272744  0.37311702  0.91570189  1
  S  S52  1  0.33038858  0.37311702  0.41570189  1
  S  S53  1  0.03978646  0.66380862  0.41737246  1
  O  O54  1  0.21559380  0.03761678  0.31066915  1
  O  O55  1  0.80482389  0.78338879  0.30482809  1
  O  O56  1  0.97516051  0.19116463  0.30468291  1
  O  O57  1  0.21600413  0.19116463  0.80468291  1
  O  O58  1  0.97856490  0.78338879  0.80482809  1
  O  O59  1  0.82202298  0.03761678  0.81066915  1
  O  O60  1  0.78417939  0.97108731  0.68981472  1
  O  O61  1  0.19271521  0.21292877  0.69468773  1
  O  O62  1  0.03401567  0.80975401  0.69565704  1
  O  O63  1  0.77573835  0.80975401  0.19565704  1
  O  O64  1  0.02021356  0.21292877  0.19468773  1
  O  O65  1  0.18690793  0.97108731  0.18981472  1
  O  O66  1  0.88957348  0.35890595  0.63811384  1
  O  O67  1  0.47338780  0.10989778  0.63794924  1
  O  O68  1  0.63697502  0.50657267  0.64387205  1
  O  O69  1  0.86959865  0.50657267  0.14387205  1
  O  O70  1  0.63651098  0.10989778  0.13794924  1
  O  O71  1  0.46933347  0.35890595  0.13811384  1
  O  O72  1  0.44347939  0.30393225  0.02885686  1
  O  O73  1  0.84023441  0.53653312  0.02252212  1
  O  O74  1  0.69302803  0.13639877  0.02866623  1
  O  O75  1  0.44337173  0.13639877  0.52866623  1
  O  O76  1  0.69629971  0.53653312  0.52252212  1
  O  O77  1  0.86045387  0.30393225  0.52885686  1
  O  O78  1  0.54106766  0.68338365  0.97212192  1
  O  O79  1  0.14654633  0.45030280  0.97101665  1
  O  O80  1  0.29498518  0.85703709  0.97690142  1
  O  O81  1  0.56205091  0.85703709  0.47690142  1
  O  O82  1  0.30375547  0.45030280  0.47101665  1
  O  O83  1  0.14231499  0.68338365  0.47212192  1
  O  O84  1  0.11721414  0.63675436  0.36226714  1
  O  O85  1  0.52429131  0.89606435  0.35704477  1
  O  O86  1  0.34949687  0.47601079  0.36110538  1
  O  O87  1  0.12651292  0.47601079  0.86110538  1
  O  O88  1  0.37177204  0.89606435  0.85704477  1
  O  O89  1  0.51953922  0.63675436  0.86226714  1
  O  O90  1  0.02553106  0.81938766  0.41323035  1
  O  O91  1  0.83058989  0.99031297  0.40996694  1
  O  O92  1  0.17956377  0.20102215  0.41340472  1
  O  O93  1  0.02145839  0.20102215  0.91340472  1
  O  O94  1  0.15972307  0.99031297  0.90996694  1
  O  O95  1  0.79385659  0.81938766  0.91323035  1
  O  O96  1  0.99655274  0.18911286  0.58752415  1
  O  O97  1  0.19788822  0.02584612  0.59034390  1
  O  O98  1  0.83915074  0.81234074  0.58461138  1
  O  O99  1  0.97318999  0.81234074  0.08461138  1
  O  O100  1  0.82795790  0.02584612  0.09034390  1
  O  O101  1  0.19256012  0.18911286  0.08752415  1
  O  O102  1  0.68243876  0.17441998  0.74462969  1
  O  O103  1  0.46676286  0.31695567  0.74710074  1
  O  O104  1  0.84517763  0.53461485  0.74550703  1
  O  O105  1  0.68943822  0.53461485  0.24550703  1
  O  O106  1  0.85019381  0.31695567  0.24710074  1
  O  O107  1  0.49198222  0.17441998  0.24462969  1
  O  O108  1  0.64589116  0.51341346  0.91989189  1
  O  O109  1  0.87292192  0.35866994  0.91950782  1
  O  O110  1  0.50686330  0.16346828  0.92376052  1
  O  O111  1  0.65660598  0.16346828  0.42376052  1
  O  O112  1  0.48574902  0.35866994  0.41950782  1
  O  O113  1  0.86752330  0.51341346  0.41989189  1
  O  O114  1  0.35913759  0.49457100  0.07667585  1
  O  O115  1  0.14611439  0.64067829  0.08195034  1
  O  O116  1  0.52229860  0.85977706  0.07882960  1
  O  O117  1  0.33747746  0.85977706  0.57882960  1
  O  O118  1  0.49456289  0.64067829  0.58195034  1
  O  O119  1  0.13543241  0.49457100  0.57667585  1
  O  O120  1  0.31314824  0.82851857  0.25271297  1
  O  O121  1  0.52652205  0.67608023  0.25500446  1
  O  O122  1  0.15778474  0.46385114  0.25475321  1
  O  O123  1  0.30606540  0.46385114  0.75475321  1
  O  O124  1  0.14955717  0.67608023  0.75500446  1
  O  O125  1  0.51536934  0.82851857  0.75271297  1
