# generated using pymatgen
data_Na2Ga4Si3Sn4(S3O16)3
_symmetry_space_group_name_H-M   'P 1'
_cell_length_a   17.32345870
_cell_length_b   8.68534557
_cell_length_c   22.65044856
_cell_angle_alpha   89.64313501
_cell_angle_beta   90.03218357
_cell_angle_gamma   120.11936054
_symmetry_Int_Tables_number   1
_chemical_formula_structural   Na2Ga4Si3Sn4(S3O16)3
_chemical_formula_sum   'Na6 Ga12 Si9 Sn12 S27 O144'
_cell_volume   2947.78094340
_cell_formula_units_Z   3
loop_
 _symmetry_equiv_pos_site_id
 _symmetry_equiv_pos_as_xyz
  1  'x, y, z'
loop_
 _atom_site_type_symbol
 _atom_site_label
 _atom_site_symmetry_multiplicity
 _atom_site_fract_x
 _atom_site_fract_y
 _atom_site_fract_z
 _atom_site_occupancy
  Na  Na0  1  0.99610508  0.00531035  0.49982574  1
  Na  Na1  1  0.49699960  0.98917718  0.00406668  1
  Na  Na2  1  0.33024376  0.32520259  0.84025353  1
  Na  Na3  1  0.82840972  0.33147657  0.83373976  1
  Na  Na4  1  0.33117266  0.32795762  0.33201698  1
  Na  Na5  1  0.82227660  0.32372362  0.33616406  1
  Ga  Ga6  1  0.00344977  -0.00010392  0.34775055  1
  Ga  Ga7  1  0.50486649  0.00786237  0.84954846  1
  Ga  Ga8  1  0.99613445  0.00911061  0.64423032  1
  Ga  Ga9  1  0.50225877  0.96930160  0.14856843  1
  Ga  Ga10  1  0.33126173  0.32936893  0.98303199  1
  Ga  Ga11  1  0.83648362  0.34093685  0.98658942  1
  Ga  Ga12  1  0.33929833  0.33345324  0.48106438  1
  Ga  Ga13  1  0.83143331  0.32800595  0.47857584  1
  Ga  Ga14  1  0.16613930  0.67418876  0.30859729  1
  Ga  Ga15  1  0.66692748  0.66060187  0.31180479  1
  Ga  Ga16  1  0.17002250  0.68749025  0.81877938  1
  Ga  Ga17  1  0.66402718  0.65321085  0.81025769  1
  Si  Si18  1  0.14714492  0.00099316  0.25381799  1
  Si  Si19  1  0.64680714  0.98767823  0.24966247  1
  Si  Si20  1  0.64746832  0.29448184  0.75339282  1
  Si  Si21  1  0.47809465  0.33440190  0.58086856  1
  Si  Si22  1  0.97328541  0.32739779  0.58120100  1
  Si  Si23  1  0.47173301  0.62082495  0.08021941  1
  Si  Si24  1  0.97548394  0.61958885  0.08233431  1
  Si  Si25  1  0.17451412  0.97051730  0.91610542  1
  Si  Si26  1  0.67261403  0.38292383  0.41446800  1
  Sn  Sn27  1  0.51147806  0.01719265  0.35374038  1
  Sn  Sn28  1  0.00392300  0.99760014  0.85571214  1
  Sn  Sn29  1  0.50467667  0.02010971  0.64507126  1
  Sn  Sn30  1  0.00396975  0.98804592  0.14598031  1
  Sn  Sn31  1  0.33646916  0.33501815  0.68363383  1
  Sn  Sn32  1  0.83156291  0.33312849  0.68424056  1
  Sn  Sn33  1  0.33354773  0.33141585  0.18595330  1
  Sn  Sn34  1  0.83270735  0.33194358  0.18723341  1
  Sn  Sn35  1  0.16215663  0.67432803  0.02221118  1
  Sn  Sn36  1  0.66060405  0.66355064  0.02173432  1
  Sn  Sn37  1  0.16153727  0.65964034  0.51974926  1
  Sn  Sn38  1  0.66265141  0.65339152  0.51862006  1
  S  S39  1  0.35385404  0.71317907  0.25228281  1
  S  S40  1  0.85411232  0.71289649  0.25213494  1
  S  S41  1  0.00222586  0.28958649  0.25238395  1
  S  S42  1  0.50088960  0.28749102  0.24793279  1
  S  S43  1  0.14658037  0.29945429  0.74881990  1
  S  S44  1  0.00316702  0.71425690  0.74834717  1
  S  S45  1  0.49968158  0.71130735  0.75234526  1
  S  S46  1  0.35085387  0.99151469  0.75232027  1
  S  S47  1  0.85486831  0.99514026  0.75186788  1
  S  S48  1  0.18601847  0.04385074  0.58196068  1
  S  S49  1  0.68777989  0.03789785  0.58083991  1
  S  S50  1  0.33384349  0.62509355  0.58210667  1
  S  S51  1  0.83640403  0.63155259  0.58274449  1
  S  S52  1  0.33781190  0.04259119  0.08334115  1
  S  S53  1  0.83460008  0.04288441  0.08166209  1
  S  S54  1  0.18766157  0.33569015  0.08102579  1
  S  S55  1  0.68569627  0.32837974  0.08073914  1
  S  S56  1  0.31462873  0.67151126  0.91375949  1
  S  S57  1  0.80822544  0.66090641  0.91650019  1
  S  S58  1  0.01865527  0.37635339  0.91447500  1
  S  S59  1  0.52106821  0.37237335  0.91447947  1
  S  S60  1  0.66784111  0.96074864  0.91434438  1
  S  S61  1  0.30979345  0.95560094  0.41599204  1
  S  S62  1  0.81653971  0.96035647  0.41494031  1
  S  S63  1  0.16780810  0.37368967  0.41511558  1
  S  S64  1  0.02121156  0.66986801  0.41419615  1
  S  S65  1  0.51655460  0.66165620  0.41571284  1
  O  O66  1  0.10491667  0.04469350  0.31085430  1
  O  O67  1  0.61096824  0.04234327  0.30799107  1
  O  O68  1  0.40945106  0.79185539  0.30608007  1
  O  O69  1  0.91036106  0.79341068  0.30474872  1
  O  O70  1  0.47771065  0.17377830  0.30297109  1
  O  O71  1  0.98260763  0.17337563  0.30515711  1
  O  O72  1  0.11021918  0.18454878  0.80277592  1
  O  O73  1  0.60460944  0.16454636  0.81049825  1
  O  O74  1  0.48083673  0.78899939  0.80455986  1
  O  O75  1  0.98261559  0.78746061  0.80257602  1
  O  O76  1  0.40808970  0.02703215  0.80463619  1
  O  O77  1  0.91291801  0.03218619  0.80571227  1
  O  O78  1  0.38951842  0.96470704  0.69759990  1
  O  O79  1  0.89534528  0.96454457  0.69909596  1
  O  O80  1  0.09236937  0.21372282  0.69607609  1
  O  O81  1  0.59010118  0.21285945  0.69336605  1
  O  O82  1  0.01559855  0.82651636  0.69600770  1
  O  O83  1  0.51098579  0.81098043  0.69652890  1
  O  O84  1  0.39114106  0.82164882  0.19828227  1
  O  O85  1  0.89173005  0.82147218  0.19724658  1
  O  O86  1  0.01378188  0.21204884  0.19693700  1
  O  O87  1  0.50978117  0.20084016  0.19530881  1
  O  O88  1  0.09084879  0.96786167  0.19318428  1
  O  O89  1  0.58887622  0.96642230  0.19117554  1
  O  O90  1  0.44102961  0.37465668  0.64299826  1
  O  O91  1  0.93660869  0.36739667  0.64289274  1
  O  O92  1  0.23876693  0.11657855  0.63752342  1
  O  O93  1  0.73905403  0.10917281  0.63697037  1
  O  O94  1  0.31086788  0.51223694  0.63721651  1
  O  O95  1  0.81582287  0.52188006  0.63789837  1
  O  O96  1  0.43498278  0.50443981  0.14104407  1
  O  O97  1  0.93398114  0.49822330  0.14205089  1
  O  O98  1  0.31517500  0.11276572  0.13640388  1
  O  O99  1  0.81335658  0.11253407  0.13465754  1
  O  O100  1  0.23968275  0.36626398  0.13604535  1
  O  O101  1  0.73991849  0.36198643  0.13441344  1
  O  O102  1  0.22551784  0.29693109  0.02930154  1
  O  O103  1  0.72472324  0.29241727  0.02720940  1
  O  O104  1  0.41257487  0.52717569  0.02180955  1
  O  O105  1  0.91614284  0.53552402  0.02330031  1
  O  O106  1  0.35019829  0.14978483  0.02949193  1
  O  O107  1  0.84688571  0.14919532  0.02721235  1
  O  O108  1  0.22519193  0.15962015  0.52962161  1
  O  O109  1  0.72678447  0.15644068  0.53008426  1
  O  O110  1  0.34617506  0.54128692  0.52974210  1
  O  O111  1  0.85087437  0.55035424  0.53076765  1
  O  O112  1  0.41279921  0.29615768  0.52546697  1
  O  O113  1  0.91175453  0.29850114  0.52408550  1
  O  O114  1  0.27619170  0.70131388  0.96831585  1
  O  O115  1  0.77015831  0.69264698  0.97099185  1
  O  O116  1  0.07419471  0.44739941  0.96780031  1
  O  O117  1  0.57811492  0.44520317  0.96846982  1
  O  O118  1  0.15114977  0.84267428  0.97313434  1
  O  O119  1  0.65344889  0.85276596  0.96931418  1
  O  O120  1  0.27208653  0.84847190  0.47223388  1
  O  O121  1  0.77913879  0.85615477  0.47131118  1
  O  O122  1  0.15317789  0.45139698  0.47053615  1
  O  O123  1  0.65314243  0.45818097  0.47491523  1
  O  O124  1  0.07736328  0.71160272  0.46954014  1
  O  O125  1  0.57105862  0.70022141  0.47031600  1
  O  O126  1  0.06479041  0.63877292  0.36366338  1
  O  O127  1  0.55706666  0.63036477  0.36413476  1
  O  O128  1  0.25230484  0.86924333  0.36496769  1
  O  O129  1  0.76012829  0.87782156  0.36344093  1
  O  O130  1  0.18275420  0.48789297  0.36316556  1
  O  O131  1  0.68651592  0.50667706  0.35687165  1
  O  O132  1  0.06062371  0.48646172  0.86065634  1
  O  O133  1  0.56362213  0.48996097  0.86268229  1
  O  O134  1  0.19005987  0.88672403  0.85629474  1
  O  O135  1  0.68229314  0.87714369  0.86198681  1
  O  O136  1  0.25701880  0.63892141  0.86072533  1
  O  O137  1  0.75378024  0.63757562  0.86383118  1
  O  O138  1  0.01068098  0.82885402  0.40868247  1
  O  O139  1  0.50198398  0.81473507  0.41007327  1
  O  O140  1  0.39818081  0.97259114  0.40960481  1
  O  O141  1  0.90709330  0.97667788  0.40872718  1
  O  O142  1  0.08598343  0.19694914  0.41116763  1
  O  O143  1  0.58065434  0.18993626  0.41301560  1
  O  O144  1  0.00686945  0.19539256  0.90757570  1
  O  O145  1  0.51098637  0.19233987  0.90875405  1
  O  O146  1  0.08377486  0.98359588  0.91025766  1
  O  O147  1  0.58503787  0.97196730  0.91041252  1
  O  O148  1  0.40454975  0.83724777  0.90614886  1
  O  O149  1  0.89762870  0.82351001  0.91041961  1
  O  O150  1  0.48023098  0.14936988  0.58548040  1
  O  O151  1  0.98629038  0.15307234  0.58910181  1
  O  O152  1  0.09588208  0.01868292  0.59035196  1
  O  O153  1  0.59634251  0.00872687  0.58827059  1
  O  O154  1  0.41629551  0.79565086  0.59179744  1
  O  O155  1  0.92020705  0.80541349  0.59121045  1
  O  O156  1  0.48137800  0.81741130  0.08541161  1
  O  O157  1  0.98098385  0.81163467  0.08596524  1
  O  O158  1  0.41978460  0.03505667  0.09175638  1
  O  O159  1  0.91705729  0.03626584  0.08991475  1
  O  O160  1  0.09608159  0.18321899  0.08801977  1
  O  O161  1  0.59539607  0.17636230  0.08708645  1
  O  O162  1  0.34050606  0.15442578  0.74728371  1
  O  O163  1  0.84844938  0.15878686  0.74663959  1
  O  O164  1  0.23821928  0.31532205  0.74310054  1
  O  O165  1  0.74723659  0.31079739  0.74655406  1
  O  O166  1  0.41668733  0.52819229  0.74849631  1
  O  O167  1  0.92177120  0.53491162  0.74476327  1
  O  O168  1  0.34673899  0.53534323  0.24697990  1
  O  O169  1  0.84845040  0.53619844  0.24722731  1
  O  O170  1  0.42005425  0.30985684  0.24555858  1
  O  O171  1  0.92235808  0.31113514  0.24816779  1
  O  O172  1  0.24638513  0.18353158  0.24669345  1
  O  O173  1  0.74665081  0.17332707  0.24464239  1
  O  O174  1  0.32445087  0.51375505  0.91897506  1
  O  O175  1  0.81633742  0.49932412  0.92182313  1
  O  O176  1  0.43405462  0.35899546  0.92129751  1
  O  O177  1  0.92882501  0.35721656  0.92070749  1
  O  O178  1  0.26162986  0.16735410  0.92543909  1
  O  O179  1  0.74867192  0.14006063  0.92204959  1
  O  O180  1  0.31591943  0.13247031  0.42193116  1
  O  O181  1  0.82634478  0.13908561  0.42084399  1
  O  O182  1  0.24925855  0.35748548  0.42334130  1
  O  O183  1  0.76113006  0.36095319  0.42368233  1
  O  O184  1  0.42578261  0.49789381  0.42232778  1
  O  O185  1  0.93428235  0.50819413  0.42192366  1
  O  O186  1  0.18382323  0.50065028  0.07287602  1
  O  O187  1  0.68381939  0.49684959  0.07319108  1
  O  O188  1  0.07148278  0.62873263  0.08040250  1
  O  O189  1  0.57163963  0.64355638  0.07599152  1
  O  O190  1  0.25995665  0.85974765  0.07745472  1
  O  O191  1  0.75713967  0.86092992  0.07431603  1
  O  O192  1  0.18181020  0.87038198  0.57510051  1
  O  O193  1  0.68341766  0.86572069  0.57326496  1
  O  O194  1  0.25657554  0.65231074  0.57536024  1
  O  O195  1  0.76051762  0.66239453  0.57725635  1
  O  O196  1  0.07357491  0.50289501  0.57613580  1
  O  O197  1  0.57405685  0.51500604  0.57890906  1
  O  O198  1  0.15689057  0.82777206  0.26099772  1
  O  O199  1  0.65692473  0.81677942  0.26285121  1
  O  O200  1  0.26401605  0.68745896  0.26057916  1
  O  O201  1  0.76553845  0.69240036  0.25710147  1
  O  O202  1  0.08358066  0.46264436  0.26044103  1
  O  O203  1  0.58055221  0.46153539  0.25579406  1
  O  O204  1  0.15634157  0.47424066  0.75856543  1
  O  O205  1  0.65801883  0.48780036  0.76090527  1
  O  O206  1  0.08235290  0.69604145  0.75687146  1
  O  O207  1  0.57960028  0.69645795  0.76030432  1
  O  O208  1  0.26283795  0.83013783  0.75794619  1
  O  O209  1  0.76656537  0.84035731  0.76099759  1
