# generated using pymatgen
data_Na5Y2SiGe2P5O24
_symmetry_space_group_name_H-M   'P 1'
_cell_length_a   8.96968631
_cell_length_b   8.98442446
_cell_length_c   22.50170176
_cell_angle_alpha   90.11259732
_cell_angle_beta   89.69701883
_cell_angle_gamma   120.42282594
_symmetry_Int_Tables_number   1
_chemical_formula_structural   Na5Y2SiGe2P5O24
_chemical_formula_sum   'Na15 Y6 Si3 Ge6 P15 O72'
_cell_volume   1563.65555422
_cell_formula_units_Z   3
loop_
 _symmetry_equiv_pos_site_id
 _symmetry_equiv_pos_as_xyz
  1  'x, y, z'
loop_
 _atom_site_type_symbol
 _atom_site_label
 _atom_site_symmetry_multiplicity
 _atom_site_fract_x
 _atom_site_fract_y
 _atom_site_fract_z
 _atom_site_occupancy
  Na  Na0  1  0.00130748  0.64784297  0.24867429  1
  Na  Na1  1  0.62725890  0.63389273  0.74809111  1
  Na  Na2  1  0.37617303  0.99888379  0.74950687  1
  Na  Na3  1  0.66550296  0.97046786  0.58613856  1
  Na  Na4  1  0.30387136  0.97429836  0.08026804  1
  Na  Na5  1  0.67730893  0.69851630  0.07843457  1
  Na  Na6  1  0.02819062  0.33114220  0.08185842  1
  Na  Na7  1  0.96365177  0.30041326  0.41860622  1
  Na  Na8  1  0.34016792  0.03799049  0.42106164  1
  Na  Na9  1  0.00724319  0.98987880  0.50611145  1
  Na  Na10  1  0.00101108  0.99213506  0.99330421  1
  Na  Na11  1  0.68275093  0.33465350  0.83304465  1
  Na  Na12  1  0.65220133  0.33412055  0.33047573  1
  Na  Na13  1  0.34499023  0.66680833  0.16661145  1
  Na  Na14  1  0.31461689  0.64891539  0.66302305  1
  Y  Y15  1  0.99361683  0.99421855  0.35028356  1
  Y  Y16  1  0.00088318  0.00226042  0.15283921  1
  Y  Y17  1  0.66673680  0.33643618  0.97503710  1
  Y  Y18  1  0.66139420  0.33941128  0.49194462  1
  Y  Y19  1  0.34437208  0.66765956  0.31319104  1
  Y  Y20  1  0.32639328  0.66175690  0.80853041  1
  Si  Si21  1  0.73349951  0.02044251  0.74699246  1
  Si  Si22  1  0.35544598  0.02660093  0.58595336  1
  Si  Si23  1  0.96838914  0.62468708  0.08229270  1
  Ge  Ge24  1  0.99317896  0.00364210  0.85229739  1
  Ge  Ge25  1  0.00464592  0.00062677  0.64952381  1
  Ge  Ge26  1  0.67276585  0.32325906  0.68246308  1
  Ge  Ge27  1  0.67146946  0.33252920  0.18185793  1
  Ge  Ge28  1  0.32197323  0.66498132  0.01078735  1
  Ge  Ge29  1  0.32899528  0.66812442  0.52321052  1
  P  P30  1  0.32244062  0.01750169  0.24685240  1
  P  P31  1  0.69352983  0.67529463  0.24232462  1
  P  P32  1  0.98252503  0.30427524  0.24700971  1
  P  P33  1  0.28550679  0.27133808  0.74717047  1
  P  P34  1  0.98435845  0.71412943  0.74714862  1
  P  P35  1  0.97101528  0.33338478  0.58589807  1
  P  P36  1  0.66781292  0.63561183  0.59031954  1
  P  P37  1  0.65511675  0.03593185  0.08305367  1
  P  P38  1  0.38267300  0.34618199  0.08386595  1
  P  P39  1  0.63210171  0.68705102  0.91443982  1
  P  P40  1  0.04850403  0.35864365  0.91593973  1
  P  P41  1  0.30931328  0.95065715  0.91277584  1
  P  P42  1  0.62416984  0.95450454  0.42517537  1
  P  P43  1  0.33120546  0.37985686  0.42382151  1
  P  P44  1  0.04926930  0.66894070  0.42094746  1
  O  O45  1  0.23855301  0.03889121  0.30434010  1
  O  O46  1  0.81294069  0.76686876  0.29625103  1
  O  O47  1  0.96532473  0.19960171  0.30368312  1
  O  O48  1  0.20516955  0.15857434  0.80413505  1
  O  O49  1  0.95015539  0.79267350  0.80422136  1
  O  O50  1  0.84658772  0.04377996  0.80730830  1
  O  O51  1  0.81963905  0.98422248  0.68896889  1
  O  O52  1  0.17434405  0.18694386  0.69227293  1
  O  O53  1  0.01816351  0.83129781  0.69305171  1
  O  O54  1  0.77273364  0.77617730  0.18525561  1
  O  O55  1  0.00835880  0.22642196  0.19067368  1
  O  O56  1  0.20750152  0.98538231  0.19263538  1
  O  O57  1  0.87706569  0.37103145  0.63827144  1
  O  O58  1  0.50471819  0.12778061  0.64000239  1
  O  O59  1  0.63668042  0.51209074  0.64458360  1
  O  O60  1  0.88086469  0.49773127  0.14256459  1
  O  O61  1  0.62172378  0.12196550  0.13900958  1
  O  O62  1  0.50253837  0.37496405  0.13883176  1
  O  O63  1  0.44856833  0.29686701  0.02975425  1
  O  O64  1  0.83750201  0.54560704  0.02890414  1
  O  O65  1  0.69274823  0.14895608  0.02911521  1
  O  O66  1  0.42107894  0.12726930  0.52419222  1
  O  O67  1  0.70658324  0.57061662  0.53380703  1
  O  O68  1  0.86355953  0.29108568  0.52920214  1
  O  O69  1  0.53664507  0.70552320  0.97297105  1
  O  O70  1  0.15681313  0.44836833  0.97524857  1
  O  O71  1  0.28821788  0.83691903  0.97125633  1
  O  O72  1  0.53380763  0.84572329  0.48273606  1
  O  O73  1  0.31111993  0.47674700  0.47909930  1
  O  O74  1  0.17078047  0.69178961  0.47474946  1
  O  O75  1  0.12245242  0.65012173  0.36170100  1
  O  O76  1  0.51771021  0.87479856  0.36972844  1
  O  O77  1  0.34568047  0.47349420  0.36637030  1
  O  O78  1  0.13461909  0.46958039  0.86249574  1
  O  O79  1  0.33416559  0.87167575  0.85680881  1
  O  O80  1  0.53310192  0.66724559  0.85790393  1
  O  O81  1  0.04045677  0.83625870  0.42026013  1
  O  O82  1  0.80552481  0.97598625  0.42161916  1
  O  O83  1  0.16262430  0.19954893  0.42251420  1
  O  O84  1  0.04403704  0.18262850  0.91164469  1
  O  O85  1  0.13867631  0.95771518  0.90883814  1
  O  O86  1  0.81330135  0.85638855  0.91196773  1
  O  O87  1  0.98582277  0.17070721  0.59634554  1
  O  O88  1  0.16514374  0.00508793  0.59768178  1
  O  O89  1  0.82485632  0.82285048  0.59754345  1
  O  O90  1  0.01012643  0.82191912  0.08850741  1
  O  O91  1  0.80969935  0.00827597  0.09019145  1
  O  O92  1  0.19522457  0.19805352  0.09184226  1
  O  O93  1  0.70543418  0.19150108  0.73990370  1
  O  O94  1  0.47036569  0.28938901  0.74173852  1
  O  O95  1  0.81711890  0.53137146  0.74032226  1
  O  O96  1  0.69257127  0.50159170  0.23913340  1
  O  O97  1  0.81245439  0.31061267  0.24261364  1
  O  O98  1  0.49791880  0.18547530  0.23864071  1
  O  O99  1  0.65404257  0.53071147  0.91969729  1
  O  O100  1  0.86683612  0.32982471  0.92044863  1
  O  O101  1  0.46545785  0.13013573  0.91938560  1
  O  O102  1  0.64623744  0.13672697  0.42780835  1
  O  O103  1  0.48609738  0.35152947  0.42548725  1
  O  O104  1  0.87243188  0.50459859  0.42680072  1
  O  O105  1  0.37793337  0.51767318  0.07707235  1
  O  O106  1  0.15926926  0.63198144  0.07177012  1
  O  O107  1  0.48620588  0.85474557  0.07676901  1
  O  O108  1  0.35027410  0.83666359  0.58010933  1
  O  O109  1  0.50340332  0.65397288  0.58435720  1
  O  O110  1  0.15275861  0.49884794  0.57925237  1
  O  O111  1  0.33933305  0.85631379  0.25024002  1
  O  O112  1  0.51291217  0.64727286  0.24754447  1
  O  O113  1  0.13435291  0.49101633  0.25038516  1
  O  O114  1  0.31663764  0.45548824  0.74941664  1
  O  O115  1  0.14627830  0.69803590  0.74970524  1
  O  O116  1  0.53844966  0.85117924  0.74784597  1
