# generated using pymatgen
data_Na3CaTaSi(PO6)2
_symmetry_space_group_name_H-M   'P 1'
_cell_length_a   9.20953683
_cell_length_b   9.26288976
_cell_length_c   22.37251850
_cell_angle_alpha   90.06376912
_cell_angle_beta   90.00000000
_cell_angle_gamma   119.80964769
_symmetry_Int_Tables_number   1
_chemical_formula_structural   Na3CaTaSi(PO6)2
_chemical_formula_sum   'Na18 Ca6 Ta6 Si6 P12 O72'
_cell_volume   1655.99594932
_cell_formula_units_Z   6
loop_
 _symmetry_equiv_pos_site_id
 _symmetry_equiv_pos_as_xyz
  1  'x, y, z'
loop_
 _atom_site_type_symbol
 _atom_site_label
 _atom_site_symmetry_multiplicity
 _atom_site_fract_x
 _atom_site_fract_y
 _atom_site_fract_z
 _atom_site_occupancy
  Na  Na0  1  0.99554360  0.01248511  0.49239461  1
  Na  Na1  1  0.01694150  0.01248511  0.99239461  1
  Na  Na2  1  0.67229022  0.31975383  0.82617860  1
  Na  Na3  1  0.64746461  0.31975383  0.32617860  1
  Na  Na4  1  0.34387902  0.65203743  0.15914314  1
  Na  Na5  1  0.30815741  0.65203743  0.65914314  1
  Na  Na6  1  0.67033990  0.02350658  0.24423430  1
  Na  Na7  1  0.98586621  0.63055950  0.23994393  1
  Na  Na8  1  0.64469329  0.63055950  0.73994393  1
  Na  Na9  1  0.35316669  0.02350658  0.74423430  1
  Na  Na10  1  0.33468115  0.35903225  0.58117253  1
  Na  Na11  1  0.64151581  0.95992387  0.57393546  1
  Na  Na12  1  0.31840907  0.95992387  0.07393546  1
  Na  Na13  1  0.02435210  0.35903225  0.08117253  1
  Na  Na14  1  0.99415383  0.69355976  0.91303913  1
  Na  Na15  1  0.68796099  0.00746517  0.90941173  1
  Na  Na16  1  0.31950318  0.00746517  0.40941173  1
  Na  Na17  1  0.69940493  0.69355976  0.41303913  1
  Ca  Ca18  1  0.00681991  0.01312187  0.35125970  1
  Ca  Ca19  1  0.00630196  0.01312187  0.85125970  1
  Ca  Ca20  1  0.67668376  0.33359085  0.68477541  1
  Ca  Ca21  1  0.65690809  0.33359085  0.18477541  1
  Ca  Ca22  1  0.33874491  0.66446890  0.01760514  1
  Ca  Ca23  1  0.32572298  0.66446890  0.51760514  1
  Ta  Ta24  1  0.99272863  0.99549279  0.64847774  1
  Ta  Ta25  1  0.00276415  0.99549279  0.14847774  1
  Ta  Ta26  1  0.66273183  0.33747534  0.98113776  1
  Ta  Ta27  1  0.67474451  0.33747534  0.48113776  1
  Ta  Ta28  1  0.33036616  0.66617732  0.31469561  1
  Ta  Ta29  1  0.33581015  0.66617732  0.81469561  1
  Si  Si30  1  0.29819440  0.98746009  0.25541789  1
  Si  Si31  1  0.68926568  0.98746009  0.75541789  1
  Si  Si32  1  0.67788134  0.63565288  0.58734160  1
  Si  Si33  1  0.95777254  0.63565288  0.08734160  1
  Si  Si34  1  0.34563562  0.97295296  0.92098597  1
  Si  Si35  1  0.62731635  0.97295296  0.42098597  1
  P  P36  1  0.69811224  0.71430225  0.25356357  1
  P  P37  1  0.01641412  0.30391133  0.24780215  1
  P  P38  1  0.28749721  0.30391133  0.74780215  1
  P  P39  1  0.01619001  0.71430225  0.75356357  1
  P  P40  1  0.95705149  0.31402312  0.58425643  1
  P  P41  1  0.36119714  0.04723861  0.58459265  1
  P  P42  1  0.68604246  0.04723861  0.08459265  1
  P  P43  1  0.35697263  0.31402312  0.08425643  1
  P  P44  1  0.62257270  0.64921985  0.91537406  1
  P  P45  1  0.02642298  0.37874302  0.92040923  1
  P  P46  1  0.35231904  0.37874302  0.42040923  1
  P  P47  1  0.02664614  0.64921985  0.41537406  1
  O  O48  1  0.21704942  0.99348464  0.31674356  1
  O  O49  1  0.78622395  0.78961563  0.31167952  1
  O  O50  1  0.97519992  0.18999337  0.30040281  1
  O  O51  1  0.21479345  0.18999337  0.80040281  1
  O  O52  1  0.00339167  0.78961563  0.81167952  1
  O  O53  1  0.77643522  0.99348464  0.81674356  1
  O  O54  1  0.81120172  0.97304685  0.69779342  1
  O  O55  1  0.17701431  0.21004448  0.68970883  1
  O  O56  1  0.04159751  0.84558550  0.70024273  1
  O  O57  1  0.80398799  0.84558550  0.20024273  1
  O  O58  1  0.03303016  0.21004448  0.18970883  1
  O  O59  1  0.16184512  0.97304685  0.19779342  1
  O  O60  1  0.88333276  0.33151424  0.64118948  1
  O  O61  1  0.45521163  0.11864812  0.64240957  1
  O  O62  1  0.65072396  0.53372975  0.64657807  1
  O  O63  1  0.88300678  0.53372975  0.14657807  1
  O  O64  1  0.66343748  0.11864812  0.14240957  1
  O  O65  1  0.44818248  0.33151424  0.14118948  1
  O  O66  1  0.46343659  0.29988638  0.02891838  1
  O  O67  1  0.82776264  0.52487749  0.02839686  1
  O  O68  1  0.70024199  0.17165670  0.03049026  1
  O  O69  1  0.47141571  0.17165670  0.53049026  1
  O  O70  1  0.69711585  0.52487749  0.52839686  1
  O  O71  1  0.83645078  0.29988638  0.52891838  1
  O  O72  1  0.55009305  0.68397870  0.96935612  1
  O  O73  1  0.10970114  0.44812098  0.97961636  1
  O  O74  1  0.33251328  0.87555477  0.98047631  1
  O  O75  1  0.54304049  0.87555477  0.48047631  1
  O  O76  1  0.33841885  0.44812098  0.47961636  1
  O  O77  1  0.13388465  0.68397870  0.46935612  1
  O  O78  1  0.12147335  0.62643554  0.35841447  1
  O  O79  1  0.48676554  0.85164888  0.36308026  1
  O  O80  1  0.36102529  0.49931504  0.36722849  1
  O  O81  1  0.13828875  0.49931504  0.86722849  1
  O  O82  1  0.36488234  0.85164888  0.86308026  1
  O  O83  1  0.50496119  0.62643554  0.85841447  1
  O  O84  1  0.98438717  0.78754252  0.40729918  1
  O  O85  1  0.80824963  0.99184503  0.41430821  1
  O  O86  1  0.21707765  0.19773557  0.41330558  1
  O  O87  1  0.98065792  0.19773557  0.91330558  1
  O  O88  1  0.18359540  0.99184503  0.91430821  1
  O  O89  1  0.80315534  0.78754252  0.90729918  1
  O  O90  1  0.94826320  0.13703193  0.58443520  1
  O  O91  1  0.19306151  0.05444236  0.58507247  1
  O  O92  1  0.85822430  0.82078780  0.59238633  1
  O  O93  1  0.96256349  0.82078780  0.09238633  1
  O  O94  1  0.86138085  0.05444236  0.08507247  1
  O  O95  1  0.18876874  0.13703193  0.08443520  1
  O  O96  1  0.63619955  0.12666370  0.74868060  1
  O  O97  1  0.46926347  0.34434630  0.74186365  1
  O  O98  1  0.86538689  0.54484130  0.74431540  1
  O  O99  1  0.67945541  0.54484130  0.24431540  1
  O  O100  1  0.87508383  0.34434630  0.24186365  1
  O  O101  1  0.49046515  0.12666370  0.24868060  1
  O  O102  1  0.62351804  0.47895366  0.92143819  1
  O  O103  1  0.85662718  0.38729485  0.91868839  1
  O  O104  1  0.53061914  0.15225003  0.92171453  1
  O  O105  1  0.62163189  0.15225003  0.42171453  1
  O  O106  1  0.53066866  0.38729485  0.41868839  1
  O  O107  1  0.85543663  0.47895366  0.42143819  1
  O  O108  1  0.31151432  0.44899830  0.07645745  1
  O  O109  1  0.14779229  0.67259736  0.08106159  1
  O  O110  1  0.54182854  0.87209697  0.07621188  1
  O  O111  1  0.33026743  0.87209697  0.57621188  1
  O  O112  1  0.52480407  0.67259736  0.58106159  1
  O  O113  1  0.13748298  0.44899830  0.57645745  1
  O  O114  1  0.28809973  0.79719398  0.25444255  1
  O  O115  1  0.52321220  0.70915518  0.25337789  1
  O  O116  1  0.18785759  0.47163147  0.25506711  1
  O  O117  1  0.28377288  0.47163147  0.75506711  1
  O  O118  1  0.18594198  0.70915518  0.75337789  1
  O  O119  1  0.50909324  0.79719398  0.75444255  1
