# generated using pymatgen
data_Na7Ca2Hf2SiP5O24
_symmetry_space_group_name_H-M   'P 1'
_cell_length_a   9.29441416
_cell_length_b   9.29969597
_cell_length_c   22.50514626
_cell_angle_alpha   89.92660073
_cell_angle_beta   90.07381465
_cell_angle_gamma   119.95229587
_symmetry_Int_Tables_number   1
_chemical_formula_structural   Na7Ca2Hf2SiP5O24
_chemical_formula_sum   'Na21 Ca6 Hf6 Si3 P15 O72'
_cell_volume   1685.43236270
_cell_formula_units_Z   3
loop_
 _symmetry_equiv_pos_site_id
 _symmetry_equiv_pos_as_xyz
  1  'x, y, z'
loop_
 _atom_site_type_symbol
 _atom_site_label
 _atom_site_symmetry_multiplicity
 _atom_site_fract_x
 _atom_site_fract_y
 _atom_site_fract_z
 _atom_site_occupancy
  Na  Na0  1  0.34941350  0.36094946  0.25633754  1
  Na  Na1  1  0.01542478  0.64405270  0.25539843  1
  Na  Na2  1  0.63279559  0.65362918  0.75253933  1
  Na  Na3  1  0.00716987  0.36344255  0.75736979  1
  Na  Na4  1  0.35374661  0.98359683  0.75499723  1
  Na  Na5  1  0.29768748  0.30819829  0.58436461  1
  Na  Na6  1  0.02090275  0.70187176  0.58772095  1
  Na  Na7  1  0.67803635  0.98077185  0.59240650  1
  Na  Na8  1  0.29762573  0.98105860  0.08880528  1
  Na  Na9  1  0.69149160  0.70189161  0.08552585  1
  Na  Na10  1  0.01787547  0.32411150  0.09014531  1
  Na  Na11  1  0.96780278  0.65406235  0.92699442  1
  Na  Na12  1  0.68884157  0.03528604  0.92126196  1
  Na  Na13  1  0.96634642  0.31284591  0.42194122  1
  Na  Na14  1  0.34790244  0.03067009  0.42571049  1
  Na  Na15  1  0.99618812  0.98536563  0.50447710  1
  Na  Na16  1  0.01533665  0.00271426  0.00378496  1
  Na  Na17  1  0.64985136  0.33362784  0.83891555  1
  Na  Na18  1  0.66302252  0.33440898  0.33795585  1
  Na  Na19  1  0.35085480  0.68650939  0.17281005  1
  Na  Na20  1  0.34415799  0.67972670  0.67149222  1
  Ca  Ca21  1  0.99936077  -0.00002998  0.65224877  1
  Ca  Ca22  1  0.99449526  0.99716863  0.15312995  1
  Ca  Ca23  1  0.66013396  0.33623248  0.98306961  1
  Ca  Ca24  1  0.66286358  0.33930511  0.48173501  1
  Ca  Ca25  1  0.34558008  0.67440676  0.31654800  1
  Ca  Ca26  1  0.33408289  0.66430386  0.81954594  1
  Hf  Hf27  1  0.99250671  0.99519213  0.35043670  1
  Hf  Hf28  1  0.00065610  0.00494431  0.85068835  1
  Hf  Hf29  1  0.66366010  0.32617501  0.68393934  1
  Hf  Hf30  1  0.67214599  0.33253474  0.18446757  1
  Hf  Hf31  1  0.33008439  0.66158577  0.01722516  1
  Hf  Hf32  1  0.34035951  0.67153133  0.51714167  1
  Si  Si33  1  0.70034314  0.00786659  0.74768864  1
  Si  Si34  1  0.36688270  0.02602846  0.57948906  1
  Si  Si35  1  0.97349138  0.63188466  0.08050959  1
  P  P36  1  0.30408811  0.01140145  0.24858331  1
  P  P37  1  0.70312660  0.68870432  0.24611719  1
  P  P38  1  0.98917097  0.29569041  0.24911383  1
  P  P39  1  0.30499130  0.29460225  0.74704741  1
  P  P40  1  0.98818032  0.69412943  0.74972070  1
  P  P41  1  0.97167341  0.34543071  0.58057406  1
  P  P42  1  0.65715522  0.62617660  0.58478365  1
  P  P43  1  0.65615749  0.03045881  0.07966399  1
  P  P44  1  0.37372035  0.34314214  0.08580582  1
  P  P45  1  0.64381996  0.67995614  0.91383860  1
  P  P46  1  0.03635840  0.35804407  0.91514023  1
  P  P47  1  0.32204655  0.95954639  0.91456733  1
  P  P48  1  0.64027287  0.96354641  0.41740134  1
  P  P49  1  0.31835993  0.35701036  0.41293151  1
  P  P50  1  0.04327663  0.67734907  0.41306179  1
  O  O51  1  0.19972198  0.02816456  0.30195222  1
  O  O52  1  0.82542870  0.80011682  0.29781911  1
  O  O53  1  0.97632237  0.18048092  0.30338122  1
  O  O54  1  0.20117048  0.17195701  0.79934626  1
  O  O55  1  0.97545710  0.79764179  0.80377493  1
  O  O56  1  0.82936001  0.02793044  0.80450473  1
  O  O57  1  0.77474695  0.98358325  0.68721120  1
  O  O58  1  0.21658518  0.22792952  0.68832633  1
  O  O59  1  0.01990152  0.79250089  0.69237710  1
  O  O60  1  0.77034540  0.77253199  0.18654241  1
  O  O61  1  0.01024655  0.22403192  0.19123901  1
  O  O62  1  0.21378077  0.99714093  0.19026222  1
  O  O63  1  0.87556855  0.36687779  0.63577429  1
  O  O64  1  0.49369192  0.13430892  0.63714394  1
  O  O65  1  0.63691100  0.51973347  0.64258300  1
  O  O66  1  0.86591174  0.50290135  0.13779027  1
  O  O67  1  0.63423822  0.13121524  0.13259057  1
  O  O68  1  0.48428782  0.36382439  0.14271015  1
  O  O69  1  0.44477090  0.30070749  0.03302363  1
  O  O70  1  0.87087499  0.55543095  0.02077598  1
  O  O71  1  0.67940065  0.12220637  0.02158212  1
  O  O72  1  0.44401274  0.12861535  0.51989186  1
  O  O73  1  0.69145285  0.54867164  0.53218614  1
  O  O74  1  0.87432411  0.32304892  0.52403024  1
  O  O75  1  0.54143884  0.69228419  0.96830411  1
  O  O76  1  0.15140745  0.46075938  0.96963719  1
  O  O77  1  0.30617812  0.83812030  0.96825391  1
  O  O78  1  0.55034317  0.85499856  0.47480328  1
  O  O79  1  0.30634122  0.45820742  0.46822639  1
  O  O80  1  0.16552659  0.69926935  0.46721557  1
  O  O81  1  0.11866392  0.66086074  0.35553748  1
  O  O82  1  0.53027550  0.88560844  0.36443339  1
  O  O83  1  0.32731206  0.44619993  0.35548576  1
  O  O84  1  0.10840494  0.45160662  0.85754548  1
  O  O85  1  0.33531358  0.88382982  0.85645865  1
  O  O86  1  0.55742554  0.67116691  0.85561613  1
  O  O87  1  0.03712852  0.84487159  0.41195109  1
  O  O88  1  0.81293977  0.97041701  0.41195814  1
  O  O89  1  0.14769608  0.18415784  0.41366753  1
  O  O90  1  0.02819860  0.18467891  0.91441592  1
  O  O91  1  0.15439377  0.96288010  0.91546004  1
  O  O92  1  0.81635554  0.84940008  0.91530222  1
  O  O93  1  0.00116420  0.19825661  0.58783272  1
  O  O94  1  0.17798594  0.99102041  0.58523871  1
  O  O95  1  0.79811137  0.80664656  0.58931411  1
  O  O96  1  0.00867544  0.82107659  0.08651682  1
  O  O97  1  0.80454853  0.00352510  0.08872613  1
  O  O98  1  0.19123638  0.20746999  0.09259946  1
  O  O99  1  0.70106746  0.18931870  0.74682891  1
  O  O100  1  0.47706614  0.29982860  0.74748039  1
  O  O101  1  0.81685543  0.52761739  0.74774638  1
  O  O102  1  0.70667339  0.52069008  0.24863109  1
  O  O103  1  0.82433395  0.30552114  0.24789539  1
  O  O104  1  0.47572768  0.17892323  0.24878973  1
  O  O105  1  0.67782464  0.53570445  0.91780140  1
  O  O106  1  0.85931623  0.32933177  0.92136853  1
  O  O107  1  0.47608836  0.13006879  0.92104976  1
  O  O108  1  0.67573308  0.14315771  0.42242002  1
  O  O109  1  0.46176978  0.32107731  0.41653105  1
  O  O110  1  0.87256807  0.52459012  0.42085152  1
  O  O111  1  0.38187355  0.51668898  0.07829804  1
  O  O112  1  0.15593032  0.63286427  0.07871157  1
  O  O113  1  0.49025801  0.85679504  0.07845981  1
  O  O114  1  0.36603823  0.84464542  0.57892594  1
  O  O115  1  0.48506179  0.62208029  0.57850580  1
  O  O116  1  0.14462521  0.51197893  0.57809029  1
  O  O117  1  0.32118674  0.85712883  0.25449470  1
  O  O118  1  0.52443348  0.65000188  0.25346326  1
  O  O119  1  0.13798695  0.47267028  0.25534210  1
  O  O120  1  0.33214724  0.46984055  0.75567732  1
  O  O121  1  0.12992856  0.65584970  0.75724900  1
  O  O122  1  0.51174306  0.85361825  0.75356603  1
