# generated using pymatgen
data_Na7MgZr3Si3(PO8)3
_symmetry_space_group_name_H-M   'P 1'
_cell_length_a   9.16176985
_cell_length_b   9.14783306
_cell_length_c   22.90514475
_cell_angle_alpha   89.96940971
_cell_angle_beta   90.14184112
_cell_angle_gamma   120.00762786
_symmetry_Int_Tables_number   1
_chemical_formula_structural   Na7MgZr3Si3(PO8)3
_chemical_formula_sum   'Na21 Mg3 Zr9 Si9 P9 O72'
_cell_volume   1662.36512758
_cell_formula_units_Z   3
loop_
 _symmetry_equiv_pos_site_id
 _symmetry_equiv_pos_as_xyz
  1  'x, y, z'
loop_
 _atom_site_type_symbol
 _atom_site_label
 _atom_site_symmetry_multiplicity
 _atom_site_fract_x
 _atom_site_fract_y
 _atom_site_fract_z
 _atom_site_occupancy
  Na  Na0  1  0.63684274  0.00862649  0.24779167  1
  Na  Na1  1  0.37204319  0.36319024  0.24804426  1
  Na  Na2  1  0.99252458  0.63068565  0.24980822  1
  Na  Na3  1  0.63897663  0.62719348  0.74865362  1
  Na  Na4  1  0.98916923  0.36765285  0.74646478  1
  Na  Na5  1  0.36861249  0.00500190  0.74714947  1
  Na  Na6  1  0.02912478  0.69148081  0.58435654  1
  Na  Na7  1  0.66690437  0.97229798  0.58169142  1
  Na  Na8  1  0.31066531  0.97519874  0.08410033  1
  Na  Na9  1  0.66238020  0.69334197  0.08401142  1
  Na  Na10  1  0.02894880  0.33281610  0.08201749  1
  Na  Na11  1  0.33428168  0.30376598  0.91800241  1
  Na  Na12  1  0.96904787  0.29157597  0.41579227  1
  Na  Na13  1  0.32293133  0.03117392  0.41507750  1
  Na  Na14  1  0.70783496  0.67677922  0.41496838  1
  Na  Na15  1  0.00477463  0.00787547  0.49402283  1
  Na  Na16  1  0.99238183  0.99809447  0.99746693  1
  Na  Na17  1  0.67871942  0.34111301  0.83331247  1
  Na  Na18  1  0.66574544  0.33318389  0.33280142  1
  Na  Na19  1  0.33722000  0.66799176  0.16551679  1
  Na  Na20  1  0.32725530  0.65814440  0.66428503  1
  Mg  Mg21  1  0.99960805  0.99960830  0.35344833  1
  Mg  Mg22  1  0.67429365  0.34042053  0.68190656  1
  Mg  Mg23  1  0.66141975  0.32991866  0.18087565  1
  Zr  Zr24  1  0.98894462  0.98957783  0.85389413  1
  Zr  Zr25  1  0.00773314  0.00595874  0.64701599  1
  Zr  Zr26  1  0.00041317  0.00413179  0.14877155  1
  Zr  Zr27  1  0.67233211  0.33195392  0.98067355  1
  Zr  Zr28  1  0.66912379  0.33123039  0.48160531  1
  Zr  Zr29  1  0.33909260  0.66465621  0.01669242  1
  Zr  Zr30  1  0.32884469  0.65678943  0.51678786  1
  Zr  Zr31  1  0.33381327  0.66706596  0.31872059  1
  Zr  Zr32  1  0.32711808  0.66334150  0.81761468  1
  Si  Si33  1  0.99632074  0.70187122  0.74888428  1
  Si  Si34  1  0.96003013  0.33467400  0.58624961  1
  Si  Si35  1  0.66465946  0.04238297  0.08646141  1
  Si  Si36  1  0.37814053  0.33385432  0.08505588  1
  Si  Si37  1  0.62865594  0.66547820  0.91620310  1
  Si  Si38  1  0.03537529  0.36983967  0.91684056  1
  Si  Si39  1  0.63078362  0.96071741  0.41736777  1
  Si  Si40  1  0.33069716  0.36677488  0.41542560  1
  Si  Si41  1  0.03857035  0.67039416  0.41666830  1
  P  P42  1  0.29388049  0.00270447  0.25141672  1
  P  P43  1  0.70925403  0.70552532  0.25121716  1
  P  P44  1  0.99695446  0.29248309  0.25151590  1
  P  P45  1  0.29462654  0.29176530  0.75083400  1
  P  P46  1  0.70762406  0.00155034  0.74917112  1
  P  P47  1  0.37749596  0.04403068  0.58545283  1
  P  P48  1  0.66437528  0.62335306  0.58578650  1
  P  P49  1  0.95656372  0.62276752  0.08558261  1
  P  P50  1  0.33344675  0.96026587  0.91689358  1
  O  O51  1  0.20823065  0.02726050  0.30421395  1
  O  O52  1  0.81897600  0.79106732  0.30437111  1
  O  O53  1  0.97118649  0.18108368  0.30414360  1
  O  O54  1  0.21039000  0.18213372  0.80516149  1
  O  O55  1  0.97253705  0.80297492  0.80351109  1
  O  O56  1  0.82419591  0.03052938  0.80201889  1
  O  O57  1  0.79031243  0.96922825  0.69510100  1
  O  O58  1  0.17503723  0.20751485  0.69785086  1
  O  O59  1  0.03381408  0.82770487  0.69247334  1
  O  O60  1  0.79146085  0.81894465  0.19559570  1
  O  O61  1  0.02831358  0.20933342  0.19586351  1
  O  O62  1  0.18025603  0.97074471  0.19564886  1
  O  O63  1  0.87681102  0.36673526  0.64237812  1
  O  O64  1  0.48494617  0.12393222  0.63953057  1
  O  O65  1  0.63893157  0.51798901  0.63982251  1
  O  O66  1  0.88211401  0.51578427  0.14003456  1
  O  O67  1  0.63219458  0.12097660  0.14366367  1
  O  O68  1  0.49202814  0.37270312  0.14211229  1
  O  O69  1  0.45726787  0.29825708  0.02629727  1
  O  O70  1  0.84332407  0.54346881  0.03153064  1
  O  O71  1  0.70419351  0.16420634  0.02946849  1
  O  O72  1  0.45581490  0.14962292  0.52952486  1
  O  O73  1  0.69625685  0.54526303  0.53024062  1
  O  O74  1  0.84235908  0.30032941  0.52716829  1
  O  O75  1  0.54056985  0.69491599  0.97380277  1
  O  O76  1  0.15698355  0.45951254  0.97364549  1
  O  O77  1  0.30593455  0.85106920  0.97129839  1
  O  O78  1  0.53916197  0.84182478  0.47419251  1
  O  O79  1  0.30103831  0.46335697  0.47018780  1
  O  O80  1  0.15956138  0.69898764  0.47335008  1
  O  O81  1  0.12367735  0.62920330  0.35963976  1
  O  O82  1  0.50571594  0.87539121  0.35982743  1
  O  O83  1  0.37057126  0.49321020  0.35850739  1
  O  O84  1  0.12758306  0.48805369  0.85910521  1
  O  O85  1  0.35896626  0.87602308  0.86210174  1
  O  O86  1  0.50848116  0.63610102  0.85894200  1
  O  O87  1  0.02155583  0.83523656  0.41022428  1
  O  O88  1  0.81276142  0.97902687  0.41024466  1
  O  O89  1  0.16474884  0.18585902  0.40974667  1
  O  O90  1  0.03602388  0.19276032  0.90931125  1
  O  O91  1  0.17884525  0.98450824  0.90951596  1
  O  O92  1  0.81255831  0.83418245  0.91135863  1
  O  O93  1  0.96950363  0.15900323  0.59025580  1
  O  O94  1  0.19476896  0.01626549  0.58982286  1
  O  O95  1  0.82809789  0.80324616  0.59077521  1
  O  O96  1  0.97694736  0.80320589  0.09111339  1
  O  O97  1  0.83231518  0.01671855  0.09080621  1
  O  O98  1  0.18653292  0.16347156  0.09073641  1
  O  O99  1  0.68497615  0.15577782  0.74388182  1
  O  O100  1  0.46815044  0.30836611  0.74313306  1
  O  O101  1  0.82918623  0.51855892  0.74579232  1
  O  O102  1  0.68954133  0.52906477  0.24405890  1
  O  O103  1  0.84292546  0.31546086  0.24350585  1
  O  O104  1  0.47056538  0.15830985  0.24479711  1
  O  O105  1  0.63264423  0.49075685  0.92283345  1
  O  O106  1  0.85265094  0.35431458  0.92182355  1
  O  O107  1  0.48945758  0.13828636  0.92215860  1
  O  O108  1  0.63858778  0.14415366  0.42257479  1
  O  O109  1  0.50392206  0.35854081  0.42327021  1
  O  O110  1  0.85428899  0.49762005  0.42334912  1
  O  O111  1  0.34816423  0.49784153  0.07749295  1
  O  O112  1  0.13630314  0.64764928  0.07666762  1
  O  O113  1  0.49681701  0.85345511  0.07741259  1
  O  O114  1  0.35774781  0.86477797  0.57845412  1
  O  O115  1  0.51521945  0.65648188  0.57839918  1
  O  O116  1  0.14459189  0.50658091  0.57826039  1
  O  O117  1  0.30832982  0.83759544  0.25430393  1
  O  O118  1  0.53010724  0.69099793  0.25416986  1
  O  O119  1  0.16219729  0.47092526  0.25403597  1
  O  O120  1  0.31106731  0.47041005  0.75543542  1
  O  O121  1  0.17236961  0.69246419  0.75493643  1
  O  O122  1  0.53172318  0.83845050  0.75597981  1
