# generated using pymatgen
data_Na15CaNb11(SiO4)18
_symmetry_space_group_name_H-M   'P 1'
_cell_length_a   9.08428026
_cell_length_b   9.08303942
_cell_length_c   22.76365962
_cell_angle_alpha   90.12716374
_cell_angle_beta   89.87115498
_cell_angle_gamma   120.16571552
_symmetry_Int_Tables_number   1
_chemical_formula_structural   Na15CaNb11(SiO4)18
_chemical_formula_sum   'Na15 Ca1 Nb11 Si18 O72'
_cell_volume   1623.92272650
_cell_formula_units_Z   1
loop_
 _symmetry_equiv_pos_site_id
 _symmetry_equiv_pos_as_xyz
  1  'x, y, z'
loop_
 _atom_site_type_symbol
 _atom_site_label
 _atom_site_symmetry_multiplicity
 _atom_site_fract_x
 _atom_site_fract_y
 _atom_site_fract_z
 _atom_site_occupancy
  Na  Na0  1  0.36622625  0.36595509  0.25089237  1
  Na  Na1  1  0.63244362  0.61851628  0.74555439  1
  Na  Na2  1  0.98545824  0.36796158  0.74564179  1
  Na  Na3  1  0.38294047  0.01421324  0.74541594  1
  Na  Na4  1  0.31125188  0.33762475  0.58335712  1
  Na  Na5  1  0.02601687  0.68823642  0.58337125  1
  Na  Na6  1  0.66209777  0.97371338  0.58334790  1
  Na  Na7  1  0.30021419  0.96757936  0.08445268  1
  Na  Na8  1  0.70053070  0.03499904  0.91760878  1
  Na  Na9  1  0.00044440  0.00025948  0.49434866  1
  Na  Na10  1  0.00029006  0.00050849  0.00214632  1
  Na  Na11  1  0.66586122  0.33892515  0.83081757  1
  Na  Na12  1  0.67328152  0.33239810  0.33427400  1
  Na  Na13  1  0.33386083  0.66708459  0.16845164  1
  Na  Na14  1  0.33346754  0.66692818  0.66499345  1
  Ca  Ca15  1  0.66678439  0.33338443  0.68300330  1
  Nb  Nb16  1  0.99918492  0.99986585  0.35452706  1
  Nb  Nb17  1  0.00473714  0.99966025  0.85700497  1
  Nb  Nb18  1  0.99980195  0.99984070  0.64630554  1
  Nb  Nb19  1  0.99449803  0.99925474  0.14634440  1
  Nb  Nb20  1  0.67119186  0.33387426  0.18823454  1
  Nb  Nb21  1  0.66728553  0.33808726  0.97946874  1
  Nb  Nb22  1  0.66592206  0.33339507  0.47741825  1
  Nb  Nb23  1  0.33266162  0.66166769  0.02216332  1
  Nb  Nb24  1  0.33298280  0.66637890  0.51411284  1
  Nb  Nb25  1  0.33299484  0.67180431  0.31248968  1
  Nb  Nb26  1  0.33327888  0.66580908  0.81487033  1
  Si  Si27  1  0.28647779  0.99703055  0.24919908  1
  Si  Si28  1  0.71148468  0.71161084  0.25065168  1
  Si  Si29  1  0.99796356  0.28776935  0.25065867  1
  Si  Si30  1  0.28604364  0.29124375  0.75189814  1
  Si  Si31  1  0.00507985  0.71401935  0.75200336  1
  Si  Si32  1  0.71008203  0.99523233  0.75303233  1
  Si  Si33  1  0.96369340  0.33611606  0.58312964  1
  Si  Si34  1  0.37233302  0.03574456  0.58330124  1
  Si  Si35  1  0.66300284  0.62749087  0.58323531  1
  Si  Si36  1  0.95477992  0.62248798  0.08345380  1
  Si  Si37  1  0.67019196  0.04674754  0.08239980  1
  Si  Si38  1  0.37883481  0.33460536  0.08440973  1
  Si  Si39  1  0.62116601  0.66267113  0.91726006  1
  Si  Si40  1  0.04301967  0.37833942  0.91727262  1
  Si  Si41  1  0.33247058  0.95563991  0.91850143  1
  Si  Si42  1  0.62607624  0.95920860  0.41560958  1
  Si  Si43  1  0.33366926  0.37536935  0.41445904  1
  Si  Si44  1  0.04123979  0.66692432  0.41540219  1
  O  O45  1  0.19485690  0.03277667  0.30531461  1
  O  O46  1  0.83356173  0.80556798  0.30713904  1
  O  O47  1  0.97170298  0.16657673  0.30729772  1
  O  O48  1  0.18032381  0.16759940  0.80728614  1
  O  O49  1  0.98515629  0.81880495  0.80729779  1
  O  O50  1  0.82870548  0.01396423  0.80976322  1
  O  O51  1  0.80205909  0.96686954  0.69322343  1
  O  O52  1  0.16634317  0.19985970  0.69215004  1
  O  O53  1  0.03377036  0.83419879  0.69233133  1
  O  O54  1  0.80692554  0.83304766  0.19307516  1
  O  O55  1  0.03152680  0.19483364  0.19357667  1
  O  O56  1  0.17146349  0.97219022  0.19017851  1
  O  O57  1  0.91168855  0.38779210  0.64351047  1
  O  O58  1  0.47601891  0.08839515  0.64347292  1
  O  O59  1  0.61184455  0.52340057  0.64340298  1
  O  O60  1  0.85969539  0.49975123  0.14022307  1
  O  O61  1  0.63430732  0.13956121  0.13860552  1
  O  O62  1  0.49529216  0.36168215  0.14272365  1
  O  O63  1  0.47340083  0.30245307  0.02773395  1
  O  O64  1  0.83400831  0.52656289  0.02627364  1
  O  O65  1  0.69455229  0.16146368  0.02364407  1
  O  O66  1  0.46982704  0.17037516  0.52869789  1
  O  O67  1  0.70063140  0.53018226  0.52863517  1
  O  O68  1  0.82911787  0.29936127  0.52867344  1
  O  O69  1  0.52632637  0.69831266  0.97250198  1
  O  O70  1  0.16819367  0.47596621  0.97314180  1
  O  O71  1  0.30647097  0.83679840  0.97584790  1
  O  O72  1  0.53472475  0.84288236  0.47392232  1
  O  O73  1  0.30845277  0.46736654  0.47284458  1
  O  O74  1  0.15790380  0.69216349  0.47367159  1
  O  O75  1  0.14011718  0.63931045  0.35962701  1
  O  O76  1  0.50022354  0.85946559  0.35980614  1
  O  O77  1  0.36070296  0.49554141  0.35723365  1
  O  O78  1  0.13531487  0.49609237  0.85841355  1
  O  O79  1  0.36388791  0.86372854  0.86004001  1
  O  O80  1  0.50331695  0.63815292  0.85830198  1
  O  O81  1  0.02520349  0.83699373  0.40890619  1
  O  O82  1  0.81267754  0.97599643  0.40949341  1
  O  O83  1  0.16364039  0.18714851  0.40931902  1
  O  O84  1  0.01762829  0.18687835  0.91116565  1
  O  O85  1  0.16471049  0.97569282  0.91094560  1
  O  O86  1  0.80563752  0.83847843  0.91089162  1
  O  O87  1  0.97849688  0.16072848  0.58824284  1
  O  O88  1  0.18220472  0.02118880  0.58823828  1
  O  O89  1  0.83905690  0.81785779  0.58827062  1
  O  O90  1  0.98196703  0.81429023  0.08936630  1
  O  O91  1  0.83727636  0.02561700  0.09031246  1
  O  O92  1  0.19303848  0.15992611  0.08955207  1
  O  O93  1  0.69089906  0.16074212  0.75292328  1
  O  O94  1  0.46953120  0.30903543  0.75267207  1
  O  O95  1  0.83887969  0.53007988  0.75260678  1
  O  O96  1  0.68550118  0.51932922  0.24294493  1
  O  O97  1  0.82951492  0.30710411  0.24221480  1
  O  O98  1  0.47357120  0.17242275  0.24239346  1
  O  O99  1  0.63973418  0.49498547  0.92391527  1
  O  O100  1  0.85248786  0.35271182  0.92324118  1
  O  O101  1  0.50750203  0.14002561  0.92338943  1
  O  O102  1  0.64064016  0.14542051  0.42413505  1
  O  O103  1  0.50458795  0.35934760  0.42447010  1
  O  O104  1  0.85460769  0.49516275  0.42425328  1
  O  O105  1  0.35935790  0.50338193  0.07542164  1
  O  O106  1  0.14680360  0.64747150  0.07641211  1
  O  O107  1  0.49398480  0.86005079  0.07599498  1
  O  O108  1  0.33965650  0.84296136  0.57119845  1
  O  O109  1  0.50301341  0.65995794  0.57116000  1
  O  O110  1  0.15700697  0.49660428  0.57109934  1
  O  O111  1  0.30817327  0.82959877  0.25675625  1
  O  O112  1  0.51923492  0.68478287  0.25637496  1
  O  O113  1  0.17321958  0.47316272  0.25654324  1
  O  O114  1  0.29430500  0.47644973  0.75608177  1
  O  O115  1  0.18230982  0.70654663  0.75667618  1
  O  O116  1  0.52350539  0.81793836  0.75633892  1
