# generated using pymatgen
data_Na3HfTa(GeO4)3
_symmetry_space_group_name_H-M   'P 1'
_cell_length_a   9.37712940
_cell_length_b   9.39366835
_cell_length_c   23.10846161
_cell_angle_alpha   89.99999948
_cell_angle_beta   90.25725629
_cell_angle_gamma   120.05836081
_symmetry_Int_Tables_number   1
_chemical_formula_structural   Na3HfTa(GeO4)3
_chemical_formula_sum   'Na18 Hf6 Ta6 Ge18 O72'
_cell_volume   1761.75394641
_cell_formula_units_Z   6
loop_
 _symmetry_equiv_pos_site_id
 _symmetry_equiv_pos_as_xyz
  1  'x, y, z'
loop_
 _atom_site_type_symbol
 _atom_site_label
 _atom_site_symmetry_multiplicity
 _atom_site_fract_x
 _atom_site_fract_y
 _atom_site_fract_z
 _atom_site_occupancy
  Na  Na0  1  0.99034818  0.97895022  0.49798073  1
  Na  Na1  1  0.99034818  0.01139797  0.99798073  1
  Na  Na2  1  0.66637061  0.33491731  0.83132548  1
  Na  Na3  1  0.66637061  0.33145229  0.33132548  1
  Na  Na4  1  0.33095589  0.66480148  0.16469339  1
  Na  Na5  1  0.33095589  0.66615542  0.66469339  1
  Na  Na6  1  0.37119610  0.36713461  0.24922258  1
  Na  Na7  1  0.99283734  0.62986733  0.24867321  1
  Na  Na8  1  0.99283734  0.36297001  0.74867321  1
  Na  Na9  1  0.37119610  0.00406149  0.74922258  1
  Na  Na10  1  0.30196868  0.33991868  0.58222989  1
  Na  Na11  1  0.66328412  0.96368394  0.58189195  1
  Na  Na12  1  0.30196868  0.96204900  0.08222989  1
  Na  Na13  1  0.66328412  0.69959918  0.08189195  1
  Na  Na14  1  0.96958375  0.67473976  0.91524903  1
  Na  Na15  1  0.32937366  0.29540723  0.91575033  1
  Na  Na16  1  0.96958375  0.29484499  0.41524903  1
  Na  Na17  1  0.32937366  0.03396643  0.41575033  1
  Hf  Hf18  1  0.99702394  0.99792520  0.35424778  1
  Hf  Hf19  1  0.99702394  0.99909874  0.85424778  1
  Hf  Hf20  1  0.66659383  0.33694246  0.68763283  1
  Hf  Hf21  1  0.66659383  0.32964938  0.18763283  1
  Hf  Hf22  1  0.33037414  0.66221273  0.02103096  1
  Hf  Hf23  1  0.33037414  0.66816341  0.52103096  1
  Ta  Ta24  1  0.99934887  0.99845173  0.64517488  1
  Ta  Ta25  1  0.99934887  0.00089715  0.14517488  1
  Ta  Ta26  1  0.66681143  0.33009806  0.97844069  1
  Ta  Ta27  1  0.66681143  0.33671237  0.47844069  1
  Ta  Ta28  1  0.33536693  0.66847741  0.31177806  1
  Ta  Ta29  1  0.33536693  0.66688952  0.81177806  1
  Ge  Ge30  1  0.29129144  0.99813033  0.25079396  1
  Ge  Ge31  1  0.70662688  0.71274346  0.24879810  1
  Ge  Ge32  1  0.99870981  0.29021710  0.25152165  1
  Ge  Ge33  1  0.29129144  0.29316111  0.75079396  1
  Ge  Ge34  1  0.99870981  0.70849272  0.75152165  1
  Ge  Ge35  1  0.70662688  0.99388342  0.74879810  1
  Ge  Ge36  1  0.95781454  0.33485937  0.58418843  1
  Ge  Ge37  1  0.37319372  0.04182041  0.58398194  1
  Ge  Ge38  1  0.67264521  0.62685698  0.58309885  1
  Ge  Ge39  1  0.95781454  0.62295416  0.08418843  1
  Ge  Ge40  1  0.67264521  0.04578623  0.08309885  1
  Ge  Ge41  1  0.37319372  0.33137131  0.08398194  1
  Ge  Ge42  1  0.62480937  0.66876649  0.91876649  1
  Ge  Ge43  1  0.03866999  0.37476750  0.91531895  1
  Ge  Ge44  1  0.33962505  0.95941766  0.91693927  1
  Ge  Ge45  1  0.62480937  0.95604388  0.41876649  1
  Ge  Ge46  1  0.33962505  0.38020939  0.41693927  1
  Ge  Ge47  1  0.03866999  0.66390349  0.41531895  1
  O  O48  1  0.20273588  0.03257850  0.31172345  1
  O  O49  1  0.84025764  0.80615166  0.30673657  1
  O  O50  1  0.97700476  0.17995955  0.31439563  1
  O  O51  1  0.20273588  0.17015838  0.81172345  1
  O  O52  1  0.97700476  0.79704521  0.81439563  1
  O  O53  1  0.84025764  0.03410598  0.80673657  1
  O  O54  1  0.80336510  0.97030755  0.68607016  1
  O  O55  1  0.15859312  0.19576562  0.68943141  1
  O  O56  1  0.03107040  0.84630653  0.69263812  1
  O  O57  1  0.80336510  0.83305854  0.18607016  1
  O  O58  1  0.03107040  0.18476487  0.19263812  1
  O  O59  1  0.15859312  0.96282851  0.18943141  1
  O  O60  1  0.86637671  0.35621135  0.64628968  1
  O  O61  1  0.49569410  0.13092357  0.64527016  1
  O  O62  1  0.63136454  0.49518585  0.64137066  1
  O  O63  1  0.86637671  0.51016435  0.14628968  1
  O  O64  1  0.63136454  0.13617769  0.14137066  1
  O  O65  1  0.49569410  0.36476953  0.14527016  1
  O  O66  1  0.47261573  0.29906206  0.02298248  1
  O  O67  1  0.82633570  0.52679726  0.02285752  1
  O  O68  1  0.69673142  0.17354084  0.02227953  1
  O  O69  1  0.47261573  0.17355167  0.52298248  1
  O  O70  1  0.69673142  0.52318958  0.52227953  1
  O  O71  1  0.82633570  0.29953744  0.52285752  1
  O  O72  1  0.53757229  0.69296760  0.98140450  1
  O  O73  1  0.17073857  0.47227153  0.97364043  1
  O  O74  1  0.30327188  0.83703320  0.97790056  1
  O  O75  1  0.53757229  0.84460568  0.48140450  1
  O  O76  1  0.30327188  0.46624068  0.47790056  1
  O  O77  1  0.17073857  0.69846804  0.47364043  1
  O  O78  1  0.13379563  0.62915602  0.35358121  1
  O  O79  1  0.48633203  0.85237118  0.35942289  1
  O  O80  1  0.36089279  0.50234363  0.35494892  1
  O  O81  1  0.13379563  0.50464160  0.85358121  1
  O  O82  1  0.36089279  0.85855016  0.85494892  1
  O  O83  1  0.48633203  0.63396185  0.85942289  1
  O  O84  1  0.02876592  0.84400020  0.41218614  1
  O  O85  1  0.82644777  0.99484089  0.41342838  1
  O  O86  1  0.16604752  0.18165758  0.41299234  1
  O  O87  1  0.02876592  0.18476572  0.91218614  1
  O  O88  1  0.16604752  0.98438994  0.91299234  1
  O  O89  1  0.82644777  0.83160688  0.91342838  1
  O  O90  1  0.96885539  0.15011636  0.58755038  1
  O  O91  1  0.18354308  0.03913851  0.58878127  1
  O  O92  1  0.84777873  0.82463679  0.58788187  1
  O  O93  1  0.96885539  0.81874004  0.08755038  1
  O  O94  1  0.84777873  0.02314194  0.08788187  1
  O  O95  1  0.18354308  0.14440457  0.08878127  1
  O  O96  1  0.68174021  0.16712543  0.74590105  1
  O  O97  1  0.48140080  0.30306634  0.74595707  1
  O  O98  1  0.83627347  0.50644816  0.74688728  1
  O  O99  1  0.68174021  0.51461377  0.24590105  1
  O  O100  1  0.83627347  0.32982431  0.24688728  1
  O  O101  1  0.48140080  0.17833247  0.24595707  1
  O  O102  1  0.63347389  0.48319585  0.92158999  1
  O  O103  1  0.85039815  0.37393860  0.92147119  1
  O  O104  1  0.51287523  0.16002300  0.92086737  1
  O  O105  1  0.63347389  0.15027704  0.42158999  1
  O  O106  1  0.51287523  0.35285124  0.42086737  1
  O  O107  1  0.85039815  0.47645856  0.42147119  1
  O  O108  1  0.36126594  0.51034278  0.07988374  1
  O  O109  1  0.16057973  0.66324261  0.08004683  1
  O  O110  1  0.49828447  0.84899596  0.07886324  1
  O  O111  1  0.36126594  0.85092317  0.57988374  1
  O  O112  1  0.49828447  0.64928951  0.57886324  1
  O  O113  1  0.16057973  0.49733812  0.58004683  1
  O  O114  1  0.29474940  0.81183163  0.25531024  1
  O  O115  1  0.50805954  0.68885536  0.25516587  1
  O  O116  1  0.18458895  0.48474941  0.25356243  1
  O  O117  1  0.29474940  0.48291877  0.75531024  1
  O  O118  1  0.18458895  0.69984054  0.75356243  1
  O  O119  1  0.50805954  0.81920517  0.75516587  1
