# generated using pymatgen
data_MgV5CuO12
_symmetry_space_group_name_H-M   'P 1'
_cell_length_a   6.98020507
_cell_length_b   7.00279572
_cell_length_c   5.70356866
_cell_angle_alpha   72.02840508
_cell_angle_beta   108.16287540
_cell_angle_gamma   101.11144349
_symmetry_Int_Tables_number   1
_chemical_formula_structural   MgV5CuO12
_chemical_formula_sum   'Mg1 V5 Cu1 O12'
_cell_volume   250.53831296
_cell_formula_units_Z   1
loop_
 _symmetry_equiv_pos_site_id
 _symmetry_equiv_pos_as_xyz
  1  'x, y, z'
loop_
 _atom_site_type_symbol
 _atom_site_label
 _atom_site_symmetry_multiplicity
 _atom_site_fract_x
 _atom_site_fract_y
 _atom_site_fract_z
 _atom_site_occupancy
  Mg  Mg0  1  0.74074793  0.73897022  0.75306623  1
  V  V1  1  0.92297934  0.92309369  0.25045959  1
  V  V2  1  0.19143824  0.60074714  0.77826592  1
  V  V3  1  0.38621565  0.80702820  0.28141225  1
  V  V4  1  0.59914200  0.18993368  0.72018341  1
  V  V5  1  0.80734259  0.38560331  0.21963341  1
  Cu  Cu6  1  0.10007431  0.10085446  0.75387003  1
  O  O7  1  0.99795542  0.78759955  0.62947623  1
  O  O8  1  0.06754714  0.38160788  0.71434943  1
  O  O9  1  0.20344375  0.97231931  0.18349948  1
  O  O10  1  0.40977805  0.68811543  0.61611792  1
  O  O11  1  0.37865620  0.06632680  0.78076766  1
  O  O12  1  0.31091362  0.62163794  0.11148015  1
  O  O13  1  0.68691624  0.40560246  0.88627824  1
  O  O14  1  0.64170222  0.89420086  0.31920164  1
  O  O15  1  0.62144944  0.31120349  0.38839573  1
  O  O16  1  0.79036490  -0.00005985  0.86934952  1
  O  O17  1  0.89083690  0.64256225  0.17688714  1
  O  O18  1  0.97249705  0.20265418  0.31730602  1
