# generated using pymatgen
data_NaHfScSi(SO6)2
_symmetry_space_group_name_H-M   'P 1'
_cell_length_a   8.88280485
_cell_length_b   8.90409816
_cell_length_c   23.32312917
_cell_angle_alpha   89.76926997
_cell_angle_beta   90.00000000
_cell_angle_gamma   119.92092447
_symmetry_Int_Tables_number   1
_chemical_formula_structural   NaHfScSi(SO6)2
_chemical_formula_sum   'Na6 Hf6 Sc6 Si6 S12 O72'
_cell_volume   1598.81540255
_cell_formula_units_Z   6
loop_
 _symmetry_equiv_pos_site_id
 _symmetry_equiv_pos_as_xyz
  1  'x, y, z'
loop_
 _atom_site_type_symbol
 _atom_site_label
 _atom_site_symmetry_multiplicity
 _atom_site_fract_x
 _atom_site_fract_y
 _atom_site_fract_z
 _atom_site_occupancy
  Na  Na0  1  0.01539186  0.00893766  0.50279429  1
  Na  Na1  1  0.99354580  0.00893766  0.00279429  1
  Na  Na2  1  0.67924684  0.33064336  0.83570930  1
  Na  Na3  1  0.65139752  0.33064336  0.33570930  1
  Na  Na4  1  0.33918049  0.68344659  0.16907542  1
  Na  Na5  1  0.34426509  0.68344659  0.66907542  1
  Hf  Hf6  1  0.01909845  0.01133234  0.35341478  1
  Hf  Hf7  1  0.99223389  0.01133234  0.85341478  1
  Hf  Hf8  1  0.65948459  0.31358620  0.68628324  1
  Hf  Hf9  1  0.65410261  0.31358620  0.18628324  1
  Hf  Hf10  1  0.33251415  0.66437450  0.01959625  1
  Hf  Hf11  1  0.33185935  0.66437450  0.51959625  1
  Sc  Sc12  1  0.99594988  0.99608558  0.64784716  1
  Sc  Sc13  1  0.00013570  0.99608558  0.14784716  1
  Sc  Sc14  1  0.68186896  0.32343068  0.98050290  1
  Sc  Sc15  1  0.64156271  0.32343068  0.48050290  1
  Sc  Sc16  1  0.33771602  0.66693977  0.31406012  1
  Sc  Sc17  1  0.32922275  0.66693977  0.81406012  1
  Si  Si18  1  0.28971437  0.99294786  0.24834038  1
  Si  Si19  1  0.70323349  0.99294786  0.74834038  1
  Si  Si20  1  0.36658162  0.03598272  0.58286778  1
  Si  Si21  1  0.66940210  0.03598272  0.08286778  1
  Si  Si22  1  0.04390231  0.37962334  0.91580213  1
  Si  Si23  1  0.33572003  0.37962334  0.41580213  1
  S  S24  1  0.71116994  0.70963788  0.25003118  1
  S  S25  1  0.00048788  0.29110781  0.24954859  1
  S  S26  1  0.29061994  0.29110781  0.74954859  1
  S  S27  1  0.99846794  0.70963788  0.75003118  1
  S  S28  1  0.95578759  0.33344714  0.58242302  1
  S  S29  1  0.66757864  0.62325336  0.58315508  1
  S  S30  1  0.95567572  0.62325336  0.08315508  1
  S  S31  1  0.37766055  0.33344714  0.08242302  1
  S  S32  1  0.62301816  0.66429521  0.91634312  1
  S  S33  1  0.33190860  0.95699054  0.91621474  1
  S  S34  1  0.62508095  0.95699054  0.41621474  1
  S  S35  1  0.04127605  0.66429521  0.41634312  1
  O  O36  1  0.19922418  0.02642835  0.30542486  1
  O  O37  1  0.81591780  0.79188785  0.30212300  1
  O  O38  1  0.96782545  0.18075250  0.30172542  1
  O  O39  1  0.21292705  0.18075250  0.80172542  1
  O  O40  1  0.97597005  0.79188785  0.80212300  1
  O  O41  1  0.82720417  0.02642835  0.80542486  1
  O  O42  1  0.80105979  0.97402287  0.69297083  1
  O  O43  1  0.18643526  0.20992935  0.69835689  1
  O  O44  1  0.02658166  0.81613854  0.69827043  1
  O  O45  1  0.78955688  0.81613854  0.19827043  1
  O  O46  1  0.02349409  0.20992935  0.19835689  1
  O  O47  1  0.17296307  0.97402287  0.19297083  1
  O  O48  1  0.87702019  0.36331406  0.63482872  1
  O  O49  1  0.49318937  0.13164629  0.63908461  1
  O  O50  1  0.64147031  0.51774471  0.63535033  1
  O  O51  1  0.87627540  0.51774471  0.13535033  1
  O  O52  1  0.63845792  0.13164629  0.13908461  1
  O  O53  1  0.48629487  0.36331406  0.13482872  1
  O  O54  1  0.45943579  0.31263824  0.03101165  1
  O  O55  1  0.85044964  0.54484729  0.03157549  1
  O  O56  1  0.69379160  0.15652820  0.02755721  1
  O  O57  1  0.46273760  0.15652820  0.52755721  1
  O  O58  1  0.69439865  0.54484729  0.53157549  1
  O  O59  1  0.85320345  0.31263824  0.53101165  1
  O  O60  1  0.54523255  0.69753741  0.96838630  1
  O  O61  1  0.16365439  0.47029666  0.97292776  1
  O  O62  1  0.30830544  0.84922984  0.96838117  1
  O  O63  1  0.54092340  0.84922984  0.46838117  1
  O  O64  1  0.30664126  0.47029666  0.47292776  1
  O  O65  1  0.15230385  0.69753741  0.46838630  1
  O  O66  1  0.12403131  0.64411242  0.36497010  1
  O  O67  1  0.51750681  0.87985181  0.36507931  1
  O  O68  1  0.35658635  0.49498661  0.35972888  1
  O  O69  1  0.13839925  0.49498661  0.85972888  1
  O  O70  1  0.36234400  0.87985181  0.86507931  1
  O  O71  1  0.52008011  0.64411242  0.86497010  1
  O  O72  1  0.02005180  0.82088027  0.41012665  1
  O  O73  1  0.79646979  0.96791708  0.40977383  1
  O  O74  1  0.15777533  0.18532630  0.41066854  1
  O  O75  1  0.02755097  0.18532630  0.91066854  1
  O  O76  1  0.17144729  0.96791708  0.90977383  1
  O  O77  1  0.80082847  0.82088027  0.91012665  1
  O  O78  1  0.97734106  0.18122046  0.59000392  1
  O  O79  1  0.17722901  0.01747066  0.59102995  1
  O  O80  1  0.81954245  0.79841006  0.58883180  1
  O  O81  1  0.97886760  0.79841006  0.08883180  1
  O  O82  1  0.84024165  0.01747066  0.09102995  1
  O  O83  1  0.20387940  0.18122046  0.09000392  1
  O  O84  1  0.69305780  0.17444004  0.74390437  1
  O  O85  1  0.46843537  0.31261596  0.74341386  1
  O  O86  1  0.83974759  0.53671775  0.74293327  1
  O  O87  1  0.69697116  0.53671775  0.24293327  1
  O  O88  1  0.84418158  0.31261596  0.24341386  1
  O  O89  1  0.48138324  0.17444004  0.24390437  1
  O  O90  1  0.63966685  0.51010077  0.92465923  1
  O  O91  1  0.85097489  0.35723171  0.92071183  1
  O  O92  1  0.48238971  0.13279223  0.92341263  1
  O  O93  1  0.65040352  0.13279223  0.42341263  1
  O  O94  1  0.50625782  0.35723171  0.42071183  1
  O  O95  1  0.87043492  0.51010077  0.42465923  1
  O  O96  1  0.36027118  0.49240999  0.07736407  1
  O  O97  1  0.13181755  0.63995213  0.07650779  1
  O  O98  1  0.49223372  0.84596037  0.07546560  1
  O  O99  1  0.35372565  0.84596037  0.57546560  1
  O  O100  1  0.50813358  0.63995213  0.57650779  1
  O  O101  1  0.13213781  0.49240999  0.57736407  1
  O  O102  1  0.31495875  0.82677139  0.25705526  1
  O  O103  1  0.53578138  0.68835883  0.25575425  1
  O  O104  1  0.15420666  0.46346845  0.25662075  1
  O  O105  1  0.30926078  0.46346845  0.75662075  1
  O  O106  1  0.15257645  0.68835883  0.75575425  1
  O  O107  1  0.51181165  0.82677139  0.75705526  1
