# generated using pymatgen
data_Na7Hf2Al2Si3(PO8)3
_symmetry_space_group_name_H-M   'P 1'
_cell_length_a   8.94902664
_cell_length_b   8.90201305
_cell_length_c   22.20393731
_cell_angle_alpha   89.73328142
_cell_angle_beta   90.24788519
_cell_angle_gamma   119.96060019
_symmetry_Int_Tables_number   1
_chemical_formula_structural   Na7Hf2Al2Si3(PO8)3
_chemical_formula_sum   'Na21 Hf6 Al6 Si9 P9 O72'
_cell_volume   1532.46679444
_cell_formula_units_Z   3
loop_
 _symmetry_equiv_pos_site_id
 _symmetry_equiv_pos_as_xyz
  1  'x, y, z'
loop_
 _atom_site_type_symbol
 _atom_site_label
 _atom_site_symmetry_multiplicity
 _atom_site_fract_x
 _atom_site_fract_y
 _atom_site_fract_z
 _atom_site_occupancy
  Na  Na0  1  0.63557525  0.00305966  0.25154117  1
  Na  Na1  1  0.36452736  0.36723721  0.24813303  1
  Na  Na2  1  0.99963501  0.62969377  0.24967383  1
  Na  Na3  1  0.63270237  0.63550034  0.75019007  1
  Na  Na4  1  0.99564617  0.36389495  0.74969031  1
  Na  Na5  1  0.37109851  0.00108580  0.74866997  1
  Na  Na6  1  0.03308759  0.69766544  0.58311838  1
  Na  Na7  1  0.66471909  0.97131105  0.58316245  1
  Na  Na8  1  0.66554275  0.69208270  0.08226899  1
  Na  Na9  1  0.03236915  0.33544230  0.08501987  1
  Na  Na10  1  0.96261091  0.66522486  0.91833226  1
  Na  Na11  1  0.70064249  0.03128463  0.91621132  1
  Na  Na12  1  0.33810152  0.30282583  0.91766847  1
  Na  Na13  1  0.96673763  0.30260070  0.41602628  1
  Na  Na14  1  0.33470777  0.02780758  0.41801057  1
  Na  Na15  1  0.00027315  0.99938322  0.50021489  1
  Na  Na16  1  0.00633498  0.99624849  0.99910082  1
  Na  Na17  1  0.66657357  0.33322197  0.83343040  1
  Na  Na18  1  0.67164823  0.33893872  0.33269260  1
  Na  Na19  1  0.32779563  0.66708013  0.16756120  1
  Na  Na20  1  0.33351658  0.66286442  0.66704230  1
  Hf  Hf21  1  0.99002099  0.99487913  0.35237100  1
  Hf  Hf22  1  0.00272304  0.00667949  0.64887390  1
  Hf  Hf23  1  0.00986391  0.00414967  0.14557276  1
  Hf  Hf24  1  0.66687782  0.33322906  0.47941924  1
  Hf  Hf25  1  0.33521513  0.66988730  0.02009607  1
  Hf  Hf26  1  0.33333594  0.66639615  0.52068230  1
  Al  Al27  1  0.99040908  0.99651159  0.84992320  1
  Al  Al28  1  0.66935591  0.32342145  0.68340869  1
  Al  Al29  1  0.67344502  0.33630491  0.18192838  1
  Al  Al30  1  0.66238627  0.34422980  0.98392375  1
  Al  Al31  1  0.32627284  0.66283773  0.31709457  1
  Al  Al32  1  0.34346984  0.67090216  0.81686844  1
  Si  Si33  1  0.99981466  0.30569117  0.24933967  1
  Si  Si34  1  0.70215854  -0.00021449  0.75300026  1
  Si  Si35  1  0.95566001  0.33463885  0.58656027  1
  Si  Si36  1  0.37740101  0.04799821  0.58590559  1
  Si  Si37  1  0.94853535  0.61491498  0.08292579  1
  Si  Si38  1  0.38773619  0.32963643  0.08333132  1
  Si  Si39  1  0.63090321  0.66690694  0.91388225  1
  Si  Si40  1  0.61860549  0.94933356  0.41355928  1
  Si  Si41  1  0.04461597  0.66679386  0.41368780  1
  P  P42  1  0.30101494  0.00069221  0.25063322  1
  P  P43  1  0.69886487  0.69954628  0.24878693  1
  P  P44  1  0.29300926  0.29449451  0.75442119  1
  P  P45  1  0.00067210  0.70594494  0.75342158  1
  P  P46  1  0.66466244  0.61502536  0.58803967  1
  P  P47  1  0.66402527  0.05477598  0.08298441  1
  P  P48  1  0.04175520  0.37348274  0.91344926  1
  P  P49  1  0.33262491  0.96000920  0.91310084  1
  P  P50  1  0.33612422  0.38263593  0.41298797  1
  O  O51  1  0.21803107  0.03583139  0.30608741  1
  O  O52  1  0.82335660  0.78671181  0.30286035  1
  O  O53  1  0.96254835  0.17677564  0.30727500  1
  O  O54  1  0.20525803  0.17117387  0.80853787  1
  O  O55  1  0.97137905  0.79816493  0.80727768  1
  O  O56  1  0.83561980  0.03720595  0.80903194  1
  O  O57  1  0.78477563  0.95763249  0.69351015  1
  O  O58  1  0.17589326  0.21106503  0.69809145  1
  O  O59  1  0.03827823  0.82069420  0.69597909  1
  O  O60  1  0.78298322  0.81886637  0.19329114  1
  O  O61  1  0.03686512  0.21248105  0.19197155  1
  O  O62  1  0.17569358  0.96366180  0.19672746  1
  O  O63  1  0.86624380  0.36946603  0.64424448  1
  O  O64  1  0.50043839  0.13765774  0.64396740  1
  O  O65  1  0.64222107  0.50525455  0.64413451  1
  O  O66  1  0.86589703  0.49801212  0.14315448  1
  O  O67  1  0.63976647  0.13436878  0.14065466  1
  O  O68  1  0.50494725  0.36389167  0.14355311  1
  O  O69  1  0.46917040  0.30289726  0.02232640  1
  O  O70  1  0.83327046  0.52933118  0.02270037  1
  O  O71  1  0.69613835  0.16564970  0.02587539  1
  O  O72  1  0.45631482  0.15653312  0.52365857  1
  O  O73  1  0.69865733  0.53939667  0.53074204  1
  O  O74  1  0.83957712  0.29933355  0.52529844  1
  O  O75  1  0.54748581  0.70840291  0.97359186  1
  O  O76  1  0.15574059  0.45500841  0.97093152  1
  O  O77  1  0.29440779  0.84095727  0.96912871  1
  O  O78  1  0.54169597  0.84238167  0.47604570  1
  O  O79  1  0.29994011  0.45822431  0.46955413  1
  O  O80  1  0.15999684  0.69994627  0.47502484  1
  O  O81  1  0.13455952  0.63282673  0.35613998  1
  O  O82  1  0.49573525  0.85788086  0.35555189  1
  O  O83  1  0.35983859  0.49251928  0.35680880  1
  O  O84  1  0.12994934  0.49669769  0.85925042  1
  O  O85  1  0.36277864  0.87051861  0.85846340  1
  O  O86  1  0.49810435  0.63005124  0.85776063  1
  O  O87  1  0.03577297  0.84535388  0.41003242  1
  O  O88  1  0.81759053  0.98585283  0.41133050  1
  O  O89  1  0.17329071  0.19776746  0.40816828  1
  O  O90  1  0.02886391  0.19246759  0.90744168  1
  O  O91  1  0.17089433  0.98162714  0.90588194  1
  O  O92  1  0.82451315  0.84102910  0.90634748  1
  O  O93  1  0.96654589  0.15669915  0.58978765  1
  O  O94  1  0.17843995  0.00878874  0.58996458  1
  O  O95  1  0.82897961  0.79961968  0.59182891  1
  O  O96  1  0.96158068  0.80566467  0.08837052  1
  O  O97  1  0.82616471  0.02980044  0.08882805  1
  O  O98  1  0.18627827  0.16805819  0.08700115  1
  O  O99  1  0.68704543  0.17651944  0.74440494  1
  O  O100  1  0.47387721  0.31514466  0.74553826  1
  O  O101  1  0.83403681  0.52744078  0.74583611  1
  O  O102  1  0.68311673  0.51941804  0.24327581  1
  O  O103  1  0.82191865  0.31503144  0.24165293  1
  O  O104  1  0.47886625  0.16520928  0.24188176  1
  O  O105  1  0.64707857  0.49075223  0.92203044  1
  O  O106  1  0.85959674  0.35109500  0.92146840  1
  O  O107  1  0.49923954  0.13841645  0.92137684  1
  O  O108  1  0.63680222  0.14337248  0.41786345  1
  O  O109  1  0.49288305  0.35643001  0.41852415  1
  O  O110  1  0.85508823  0.49450221  0.41909216  1
  O  O111  1  0.36356947  0.50417390  0.07820938  1
  O  O112  1  0.14120760  0.63505299  0.07763552  1
  O  O113  1  0.50705405  0.86684078  0.07836159  1
  O  O114  1  0.36294997  0.85543974  0.58166869  1
  O  O115  1  0.50844172  0.64306713  0.58187961  1
  O  O116  1  0.14534226  0.50608607  0.58123157  1
  O  O117  1  0.31637285  0.83607935  0.25646237  1
  O  O118  1  0.52180811  0.68693013  0.25744660  1
  O  O119  1  0.17771206  0.49320468  0.25749885  1
  O  O120  1  0.30540462  0.47503654  0.75988531  1
  O  O121  1  0.16244866  0.68455411  0.76082403  1
  O  O122  1  0.50889511  0.82577958  0.76049343  1
