# generated using pymatgen
data_Na2Nb2(SiO4)3
_symmetry_space_group_name_H-M   'P 1'
_cell_length_a   9.03263530
_cell_length_b   9.03263499
_cell_length_c   22.61171126
_cell_angle_alpha   90.18178745
_cell_angle_beta   89.81821249
_cell_angle_gamma   120.21928777
_symmetry_Int_Tables_number   1
_chemical_formula_structural   Na2Nb2(SiO4)3
_chemical_formula_sum   'Na12 Nb12 Si18 O72'
_cell_volume   1594.13900306
_cell_formula_units_Z   6
loop_
 _symmetry_equiv_pos_site_id
 _symmetry_equiv_pos_as_xyz
  1  'x, y, z'
loop_
 _atom_site_type_symbol
 _atom_site_label
 _atom_site_symmetry_multiplicity
 _atom_site_fract_x
 _atom_site_fract_y
 _atom_site_fract_z
 _atom_site_occupancy
  Na  Na0  1  0.36569555  0.36569555  0.25000000  1
  Na  Na1  1  0.63430445  0.63430445  0.75000000  1
  Na  Na2  1  0.03236255  0.69902855  0.58333300  1
  Na  Na3  1  0.30097145  0.96763745  0.08333300  1
  Na  Na4  1  0.69902855  0.03236255  0.91666700  1
  Na  Na5  1  0.96763745  0.30097145  0.41666700  1
  Na  Na6  1  0.00000000  0.00000000  0.50000000  1
  Na  Na7  1  0.00000000  0.00000000  0.00000000  1
  Na  Na8  1  0.66666700  0.33333300  0.83333300  1
  Na  Na9  1  0.66666700  0.33333300  0.33333300  1
  Na  Na10  1  0.33333300  0.66666700  0.16666700  1
  Na  Na11  1  0.33333300  0.66666700  0.66666700  1
  Nb  Nb12  1  -0.00121403  0.99408525  0.35542530  1
  Nb  Nb13  1  0.00591475  0.00121403  0.85542530  1
  Nb  Nb14  1  0.00121403  0.00591475  0.64457470  1
  Nb  Nb15  1  0.99408525  -0.00121403  0.14457470  1
  Nb  Nb16  1  0.66545297  0.32741825  0.68875830  1
  Nb  Nb17  1  0.67258175  0.33454703  0.18875830  1
  Nb  Nb18  1  0.66788103  0.33924775  0.97790770  1
  Nb  Nb19  1  0.66075225  0.33211897  0.47790770  1
  Nb  Nb20  1  0.33211897  0.66075225  0.02209230  1
  Nb  Nb21  1  0.33924775  0.66788103  0.52209230  1
  Nb  Nb22  1  0.33454703  0.67258175  0.31124170  1
  Nb  Nb23  1  0.32741825  0.66545297  0.81124170  1
  Si  Si24  1  0.28629656  0.99698676  0.24836480  1
  Si  Si25  1  0.71124030  0.71124030  0.25000000  1
  Si  Si26  1  0.99698676  0.28629656  0.25163520  1
  Si  Si27  1  0.28875970  0.28875970  0.75000000  1
  Si  Si28  1  0.00301324  0.71370344  0.74836480  1
  Si  Si29  1  0.71370344  0.00301324  0.75163520  1
  Si  Si30  1  0.95296356  0.33031976  0.58169780  1
  Si  Si31  1  0.37790730  0.04457330  0.58333300  1
  Si  Si32  1  0.66365376  0.61962956  0.58496820  1
  Si  Si33  1  0.95542670  0.62209270  0.08333300  1
  Si  Si34  1  0.66968024  0.04703644  0.08169780  1
  Si  Si35  1  0.38037044  0.33634624  0.08496820  1
  Si  Si36  1  0.61962956  0.66365376  0.91503180  1
  Si  Si37  1  0.04457330  0.37790730  0.91666700  1
  Si  Si38  1  0.33031976  0.95296356  0.91830220  1
  Si  Si39  1  0.62209270  0.95542670  0.41666700  1
  Si  Si40  1  0.33634624  0.38037044  0.41503180  1
  Si  Si41  1  0.04703644  0.66968024  0.41830220  1
  O  O42  1  0.19111706  0.02891364  0.30528417  1
  O  O43  1  0.82930398  0.80726679  0.30822211  1
  O  O44  1  0.97267257  0.17429600  0.31154443  1
  O  O45  1  0.19273321  0.17069602  0.80822211  1
  O  O46  1  0.97108636  0.80888294  0.80528417  1
  O  O47  1  0.82570400  0.02732743  0.81154443  1
  O  O48  1  0.80888294  0.97108636  0.69471583  1
  O  O49  1  0.17069602  0.19273321  0.69177789  1
  O  O50  1  0.02732743  0.82570400  0.68845557  1
  O  O51  1  0.80726679  0.82930398  0.19177789  1
  O  O52  1  0.02891364  0.19111706  0.19471583  1
  O  O53  1  0.17429600  0.97267257  0.18845557  1
  O  O54  1  0.85778406  0.36224664  0.63861717  1
  O  O55  1  0.49597098  0.14059979  0.64155511  1
  O  O56  1  0.63933957  0.50762900  0.64487743  1
  O  O57  1  0.85940021  0.50402902  0.14155511  1
  O  O58  1  0.63775336  0.14221594  0.13861717  1
  O  O59  1  0.49237100  0.36066043  0.14487743  1
  O  O60  1  0.47554994  0.30441936  0.02804883  1
  O  O61  1  0.83736302  0.52606621  0.02511089  1
  O  O62  1  0.69399443  0.15903700  0.02178857  1
  O  O63  1  0.47393379  0.16263698  0.52511089  1
  O  O64  1  0.69558064  0.52445006  0.52804883  1
  O  O65  1  0.84096300  0.30600557  0.52178857  1
  O  O66  1  0.52445006  0.69558064  0.97195117  1
  O  O67  1  0.16263698  0.47393379  0.97488911  1
  O  O68  1  0.30600557  0.84096300  0.97821143  1
  O  O69  1  0.52606621  0.83736302  0.47488911  1
  O  O70  1  0.30441936  0.47554994  0.47195117  1
  O  O71  1  0.15903700  0.69399443  0.47821143  1
  O  O72  1  0.14221594  0.63775336  0.36138283  1
  O  O73  1  0.50402902  0.85940021  0.35844489  1
  O  O74  1  0.36066043  0.49237100  0.35512257  1
  O  O75  1  0.14059979  0.49597098  0.85844489  1
  O  O76  1  0.36224664  0.85778406  0.86138283  1
  O  O77  1  0.50762900  0.63933957  0.85512257  1
  O  O78  1  0.02787744  0.83880362  0.41039380  1
  O  O79  1  0.81405895  0.97914637  0.41222008  1
  O  O80  1  0.16126370  0.19230415  0.41091764  1
  O  O81  1  0.02085363  0.18594105  0.91222008  1
  O  O82  1  0.16119638  0.97212256  0.91039380  1
  O  O83  1  0.80769585  0.83873630  0.91091764  1
  O  O84  1  0.97212256  0.16119638  0.58960620  1
  O  O85  1  0.18594105  0.02085363  0.58777992  1
  O  O86  1  0.83873630  0.80769585  0.58908236  1
  O  O87  1  0.97914637  0.81405895  0.08777992  1
  O  O88  1  0.83880362  0.02787744  0.08960620  1
  O  O89  1  0.19230415  0.16126370  0.08908236  1
  O  O90  1  0.69454444  0.17213662  0.74372680  1
  O  O91  1  0.48072595  0.31247937  0.74555308  1
  O  O92  1  0.82793070  0.52563715  0.74425064  1
  O  O93  1  0.68752063  0.51927405  0.24555308  1
  O  O94  1  0.82786338  0.30545556  0.24372680  1
  O  O95  1  0.47436285  0.17206930  0.24425064  1
  O  O96  1  0.63878956  0.49452938  0.92293920  1
  O  O97  1  0.85260805  0.35418663  0.92111292  1
  O  O98  1  0.50540330  0.14102885  0.92241536  1
  O  O99  1  0.64581337  0.14739195  0.42111292  1
  O  O100  1  0.50547062  0.36121044  0.42293920  1
  O  O101  1  0.85897115  0.49459670  0.42241536  1
  O  O102  1  0.36121044  0.50547062  0.07706080  1
  O  O103  1  0.14739195  0.64581337  0.07888708  1
  O  O104  1  0.49459670  0.85897115  0.07758464  1
  O  O105  1  0.35418663  0.85260805  0.57888708  1
  O  O106  1  0.49452938  0.63878956  0.57706080  1
  O  O107  1  0.14102885  0.50540330  0.57758464  1
  O  O108  1  0.30545556  0.82786338  0.25627320  1
  O  O109  1  0.51927405  0.68752063  0.25444692  1
  O  O110  1  0.17206930  0.47436285  0.25574936  1
  O  O111  1  0.31247937  0.48072595  0.75444692  1
  O  O112  1  0.17213662  0.69454444  0.75627320  1
  O  O113  1  0.52563715  0.82793070  0.75574936  1
