# generated using pymatgen
data_Na4CaZrSi2SO12
_symmetry_space_group_name_H-M   'P 1'
_cell_length_a   9.45235406
_cell_length_b   9.47286835
_cell_length_c   22.85922027
_cell_angle_alpha   90.99082669
_cell_angle_beta   90.00000000
_cell_angle_gamma   119.92838890
_symmetry_Int_Tables_number   1
_chemical_formula_structural   Na4CaZrSi2SO12
_chemical_formula_sum   'Na24 Ca6 Zr6 Si12 S6 O72'
_cell_volume   1773.53593611
_cell_formula_units_Z   6
loop_
 _symmetry_equiv_pos_site_id
 _symmetry_equiv_pos_as_xyz
  1  'x, y, z'
loop_
 _atom_site_type_symbol
 _atom_site_label
 _atom_site_symmetry_multiplicity
 _atom_site_fract_x
 _atom_site_fract_y
 _atom_site_fract_z
 _atom_site_occupancy
  Na  Na0  1  0.65360866  0.03245052  0.25602044  1
  Na  Na1  1  0.35920498  0.34377522  0.24118229  1
  Na  Na2  1  0.99208893  0.62022046  0.23773393  1
  Na  Na3  1  0.62813154  0.62022046  0.73773393  1
  Na  Na4  1  0.98457024  0.34377522  0.74118229  1
  Na  Na5  1  0.37884187  0.03245052  0.75602044  1
  Na  Na6  1  0.32027566  0.36578352  0.58935344  1
  Na  Na7  1  0.02587198  0.67710822  0.57451529  1
  Na  Na8  1  0.65875593  0.95355346  0.57106693  1
  Na  Na9  1  0.29479854  0.95355346  0.07106693  1
  Na  Na10  1  0.65123724  0.67710822  0.07451529  1
  Na  Na11  1  0.04550887  0.36578352  0.08935344  1
  Na  Na12  1  0.98694166  0.69911752  0.92268744  1
  Na  Na13  1  0.69253798  0.01044222  0.90784929  1
  Na  Na14  1  0.32542193  0.28688746  0.90440093  1
  Na  Na15  1  0.96146454  0.28688746  0.40440093  1
  Na  Na16  1  0.31790324  0.01044222  0.40784929  1
  Na  Na17  1  0.71217487  0.69911752  0.42268744  1
  Na  Na18  1  0.97263582  0.97915752  0.49391607  1
  Na  Na19  1  0.00652170  0.97915752  0.99391607  1
  Na  Na20  1  0.63930282  0.31249052  0.82724907  1
  Na  Na21  1  0.67318870  0.31249052  0.32724907  1
  Na  Na22  1  0.30596882  0.64582452  0.16058307  1
  Na  Na23  1  0.33985470  0.64582452  0.66058307  1
  Ca  Ca24  1  0.00135235  0.00169386  0.34796651  1
  Ca  Ca25  1  0.00034150  0.00169386  0.84796651  1
  Ca  Ca26  1  0.66801935  0.33502686  0.68129951  1
  Ca  Ca27  1  0.66700850  0.33502686  0.18129951  1
  Ca  Ca28  1  0.33468535  0.66836086  0.01463351  1
  Ca  Ca29  1  0.33367450  0.66836086  0.51463351  1
  Zr  Zr30  1  0.98559453  0.00800976  0.64920049  1
  Zr  Zr31  1  0.02241523  0.00800976  0.14920049  1
  Zr  Zr32  1  0.65226153  0.34134276  0.98253349  1
  Zr  Zr33  1  0.68908223  0.34134276  0.48253349  1
  Zr  Zr34  1  0.31892753  0.67467676  0.31586749  1
  Zr  Zr35  1  0.35574823  0.67467676  0.81586749  1
  Si  Si36  1  0.30541625  0.99758871  0.25411355  1
  Si  Si37  1  0.00722791  0.30429956  0.25301592  1
  Si  Si38  1  0.29707165  0.30429956  0.75301592  1
  Si  Si39  1  0.69217246  0.99758871  0.75411355  1
  Si  Si40  1  0.97208325  0.33092171  0.58744655  1
  Si  Si41  1  0.67389491  0.63763256  0.58634892  1
  Si  Si42  1  0.96373865  0.63763256  0.08634892  1
  Si  Si43  1  0.35883946  0.33092171  0.08744655  1
  Si  Si44  1  0.63874925  0.66425571  0.92078055  1
  Si  Si45  1  0.34056091  0.97096656  0.91968292  1
  Si  Si46  1  0.63040465  0.97096656  0.41968292  1
  Si  Si47  1  0.02550546  0.66425571  0.42078055  1
  S  S48  1  0.69525070  0.70621104  0.24977417  1
  S  S49  1  0.01096034  0.70621104  0.74977417  1
  S  S50  1  0.36191770  0.03954404  0.58310717  1
  S  S51  1  0.67762734  0.03954404  0.08310717  1
  S  S52  1  0.02858370  0.37287804  0.91644117  1
  S  S53  1  0.34429334  0.37287804  0.41644117  1
  O  O54  1  0.22564217  0.01783869  0.31289145  1
  O  O55  1  0.78831587  0.78116960  0.30384714  1
  O  O56  1  0.97731755  0.20177228  0.31115418  1
  O  O57  1  0.22445472  0.20177228  0.81115418  1
  O  O58  1  0.99285372  0.78116960  0.80384714  1
  O  O59  1  0.79219652  0.01783869  0.81289145  1
  O  O60  1  0.79403918  0.97716946  0.69611205  1
  O  O61  1  0.17453787  0.19705338  0.69539265  1
  O  O62  1  0.02582212  0.80824950  0.69795232  1
  O  O63  1  0.78242737  0.80824950  0.19795232  1
  O  O64  1  0.02251551  0.19705338  0.19539265  1
  O  O65  1  0.18313028  0.97716946  0.19611205  1
  O  O66  1  0.89230917  0.35117169  0.64622445  1
  O  O67  1  0.45498287  0.11450260  0.63718014  1
  O  O68  1  0.64398455  0.53510528  0.64448718  1
  O  O69  1  0.89112172  0.53510528  0.14448718  1
  O  O70  1  0.65952072  0.11450260  0.13718014  1
  O  O71  1  0.45886352  0.35117169  0.14622445  1
  O  O72  1  0.46070618  0.31050246  0.02944505  1
  O  O73  1  0.84120487  0.53038638  0.02872565  1
  O  O74  1  0.69248912  0.14158250  0.03128532  1
  O  O75  1  0.44909437  0.14158250  0.53128532  1
  O  O76  1  0.68918251  0.53038638  0.52872565  1
  O  O77  1  0.84979728  0.31050246  0.52944505  1
  O  O78  1  0.55897517  0.68450569  0.97955845  1
  O  O79  1  0.12164887  0.44783660  0.97051414  1
  O  O80  1  0.31065055  0.86843928  0.97782118  1
  O  O81  1  0.55778772  0.86843928  0.47782118  1
  O  O82  1  0.32618672  0.44783660  0.47051414  1
  O  O83  1  0.12552952  0.68450569  0.47955845  1
  O  O84  1  0.12737218  0.64383646  0.36277905  1
  O  O85  1  0.50787087  0.86372038  0.36205965  1
  O  O86  1  0.35915512  0.47491650  0.36461932  1
  O  O87  1  0.11576037  0.47491650  0.86461932  1
  O  O88  1  0.35584851  0.86372038  0.86205965  1
  O  O89  1  0.51646328  0.64383646  0.86277905  1
  O  O90  1  0.99329907  0.81654038  0.41492049  1
  O  O91  1  0.81714772  0.00647847  0.41383529  1
  O  O92  1  0.20033953  0.20664008  0.41141046  1
  O  O93  1  0.00630056  0.20664008  0.91141046  1
  O  O94  1  0.18933075  0.00647847  0.91383529  1
  O  O95  1  0.82324131  0.81654038  0.91492049  1
  O  O96  1  0.97334689  0.15326853  0.58627018  1
  O  O97  1  0.19766546  0.02790598  0.58539184  1
  O  O98  1  0.85447828  0.81250699  0.58789857  1
  O  O99  1  0.95802870  0.81250699  0.08789857  1
  O  O100  1  0.83024052  0.02790598  0.08539184  1
  O  O101  1  0.17992164  0.15326853  0.08627018  1
  O  O102  1  0.65996607  0.14987338  0.74825349  1
  O  O103  1  0.48381472  0.33981147  0.74716829  1
  O  O104  1  0.86700653  0.53997308  0.74474346  1
  O  O105  1  0.67296756  0.53997308  0.24474346  1
  O  O106  1  0.85599775  0.33981147  0.24716829  1
  O  O107  1  0.48990831  0.14987338  0.24825349  1
  O  O108  1  0.64001389  0.48660153  0.91960318  1
  O  O109  1  0.86433246  0.36123898  0.91872484  1
  O  O110  1  0.52114528  0.14583999  0.92123157  1
  O  O111  1  0.62469570  0.14583999  0.42123157  1
  O  O112  1  0.49690752  0.36123898  0.41872484  1
  O  O113  1  0.84658864  0.48660153  0.41960318  1
  O  O114  1  0.32663207  0.48320738  0.08158749  1
  O  O115  1  0.15048072  0.67314547  0.08050229  1
  O  O116  1  0.53367253  0.87330708  0.07807746  1
  O  O117  1  0.33963356  0.87330708  0.57807746  1
  O  O118  1  0.52266375  0.67314547  0.58050229  1
  O  O119  1  0.15657431  0.48320738  0.58158749  1
  O  O120  1  0.30667989  0.81993553  0.25293718  1
  O  O121  1  0.53099846  0.69457298  0.25205884  1
  O  O122  1  0.18781128  0.47917399  0.25456557  1
  O  O123  1  0.29136170  0.47917399  0.75456557  1
  O  O124  1  0.16357352  0.69457298  0.75205884  1
  O  O125  1  0.51325464  0.81993553  0.75293718  1
