# generated using pymatgen
data_Na6TaIn3Si2(PO6)4
_symmetry_space_group_name_H-M   'P 1'
_cell_length_a   15.79529900
_cell_length_b   9.11186419
_cell_length_c   9.11257982
_cell_angle_alpha   90.18916691
_cell_angle_beta   125.10810066
_cell_angle_gamma   89.83431159
_symmetry_Int_Tables_number   1
_chemical_formula_structural   Na6TaIn3Si2(PO6)4
_chemical_formula_sum   'Na12 Ta2 In6 Si4 P8 O48'
_cell_volume   1072.91019493
_cell_formula_units_Z   2
loop_
 _symmetry_equiv_pos_site_id
 _symmetry_equiv_pos_as_xyz
  1  'x, y, z'
loop_
 _atom_site_type_symbol
 _atom_site_label
 _atom_site_symmetry_multiplicity
 _atom_site_fract_x
 _atom_site_fract_y
 _atom_site_fract_z
 _atom_site_occupancy
  Na  Na0  1  0.25018072  0.75158258  0.99611009  1
  Na  Na1  1  0.74465933  0.75435412  0.48399772  1
  Na  Na2  1  0.75018072  0.25158258  0.99611009  1
  Na  Na3  1  0.24465933  0.25435412  0.48399772  1
  Na  Na4  1  0.49922898  0.08817582  0.73823711  1
  Na  Na5  1  0.50544909  0.88617993  0.25066714  1
  Na  Na6  1  0.99922898  0.58817582  0.73823711  1
  Na  Na7  1  0.00544909  0.38617993  0.25066714  1
  Na  Na8  1  0.19005354  0.92979197  0.29172092  1
  Na  Na9  1  0.80927920  0.08140938  0.70905470  1
  Na  Na10  1  0.69005354  0.42979197  0.29172092  1
  Na  Na11  1  0.30927920  0.58140938  0.70905470  1
  Ta  Ta12  1  0.89634965  0.74745884  0.94298969  1
  Ta  Ta13  1  0.39634965  0.24745884  0.94298969  1
  In  In14  1  0.10129595  0.75560167  0.55788289  1
  In  In15  1  0.89693938  0.24441966  0.43923557  1
  In  In16  1  0.10270737  0.25083063  0.05149152  1
  In  In17  1  0.60129595  0.25560167  0.55788289  1
  In  In18  1  0.39693938  0.74441966  0.43923557  1
  In  In19  1  0.60270737  0.75083063  0.05149152  1
  Si  Si20  1  0.35054974  0.90154749  0.75395298  1
  Si  Si21  1  0.65181441  0.10213586  0.25218367  1
  Si  Si22  1  0.85054974  0.40154749  0.75395298  1
  Si  Si23  1  0.15181441  0.60213586  0.25218367  1
  P  P24  1  0.00097541  0.94838871  0.76042144  1
  P  P25  1  0.99728220  0.04525767  0.24617697  1
  P  P26  1  0.50097541  0.44838871  0.76042144  1
  P  P27  1  0.49728220  0.54525767  0.24617697  1
  P  P28  1  0.64863364  0.89411481  0.74045279  1
  P  P29  1  0.35460164  0.10356768  0.25632164  1
  P  P30  1  0.14863364  0.39411481  0.74045279  1
  P  P31  1  0.85460164  0.60356768  0.25632164  1
  O  O32  1  0.15689642  0.56374875  0.74294184  1
  O  O33  1  0.84584077  0.58556081  0.77344728  1
  O  O34  1  0.85222100  0.43491516  0.23527819  1
  O  O35  1  0.15485608  0.42435550  0.24496966  1
  O  O36  1  0.65689642  0.06374875  0.74294184  1
  O  O37  1  0.34584077  0.08556081  0.77344728  1
  O  O38  1  0.35222100  0.93491516  0.23527819  1
  O  O39  1  0.65485608  0.92435550  0.24496966  1
  O  O40  1  0.43127438  0.54743648  0.59618594  1
  O  O41  1  0.57075406  0.53402417  0.93483715  1
  O  O42  1  0.55728364  0.45242176  0.41522624  1
  O  O43  1  0.43677277  0.44305479  0.07559815  1
  O  O44  1  0.93127438  0.04743648  0.59618594  1
  O  O45  1  0.07075406  0.03402417  0.93483715  1
  O  O46  1  0.05728364  0.95242176  0.41522624  1
  O  O47  1  0.93677277  0.94305479  0.07559815  1
  O  O48  1  0.25598273  0.82544075  0.74698820  1
  O  O49  1  0.74943610  0.83384218  0.76461275  1
  O  O50  1  0.73581091  0.19409399  0.23948817  1
  O  O51  1  0.25842954  0.15735791  0.24424367  1
  O  O52  1  0.75598273  0.32544075  0.74698820  1
  O  O53  1  0.24943610  0.33384218  0.76461275  1
  O  O54  1  0.23581091  0.69409399  0.23948817  1
  O  O55  1  0.75842954  0.65735791  0.24424367  1
  O  O56  1  0.35261799  0.88471968  0.57576948  1
  O  O57  1  0.64566580  0.85463100  0.89936473  1
  O  O58  1  0.65826819  0.14255016  0.43134150  1
  O  O59  1  0.35896155  0.16844231  0.09866688  1
  O  O60  1  0.85261799  0.38471968  0.57576948  1
  O  O61  1  0.14566580  0.35463100  0.89936473  1
  O  O62  1  0.15826819  0.64255016  0.43134150  1
  O  O63  1  0.85896155  0.66844231  0.09866688  1
  O  O64  1  0.45604209  0.84156107  0.93338419  1
  O  O65  1  0.55467124  0.83417259  0.56046364  1
  O  O66  1  0.53331405  0.16831735  0.08027183  1
  O  O67  1  0.45179970  0.15196149  0.43604453  1
  O  O68  1  0.95604209  0.34156107  0.93338419  1
  O  O69  1  0.05467124  0.33417259  0.56046364  1
  O  O70  1  0.03331405  0.66831735  0.08027183  1
  O  O71  1  0.95179970  0.65196149  0.43604453  1
  O  O72  1  0.06557136  0.83099546  0.74505711  1
  O  O73  1  0.91856204  0.85544267  0.77074671  1
  O  O74  1  0.91894749  0.15054243  0.23997444  1
  O  O75  1  0.08001986  0.13559473  0.24420087  1
  O  O76  1  0.56557136  0.33099546  0.74505711  1
  O  O77  1  0.41856204  0.35544267  0.77074671  1
  O  O78  1  0.41894749  0.65054243  0.23997444  1
  O  O79  1  0.58001986  0.63559473  0.24420087  1
