# generated using pymatgen
data_Rb2MgBi2O5
_symmetry_space_group_name_H-M   'P 1'
_cell_length_a   8.46967100
_cell_length_b   4.46493500
_cell_length_c   4.94100600
_cell_angle_alpha   90.00000000
_cell_angle_beta   90.00000000
_cell_angle_gamma   90.00000000
_symmetry_Int_Tables_number   1
_chemical_formula_structural   Rb2MgBi2O5
_chemical_formula_sum   'Rb2 Mg1 Bi2 O5'
_cell_volume   186.85170403
_cell_formula_units_Z   1
loop_
 _symmetry_equiv_pos_site_id
 _symmetry_equiv_pos_as_xyz
  1  'x, y, z'
loop_
 _atom_site_type_symbol
 _atom_site_label
 _atom_site_symmetry_multiplicity
 _atom_site_fract_x
 _atom_site_fract_y
 _atom_site_fract_z
 _atom_site_occupancy
  Rb  Rb0  1  0.00000000  0.00000000  0.00000000  1
  Rb  Rb1  1  0.50000100  0.00000000  0.00000000  1
  Mg  Mg2  1  0.50000000  0.00000000  0.50000000  1
  Bi  Bi3  1  0.22949600  0.49999900  0.49999900  1
  Bi  Bi4  1  0.77050400  0.49999900  0.49999900  1
  O  O5  1  0.23819100  0.49999900  0.00000000  1
  O  O6  1  0.76180900  0.49999900  0.00000000  1
  O  O7  1  0.50000100  0.49999900  0.49999900  1
  O  O8  1  0.27737400  0.00000000  0.49999900  1
  O  O9  1  0.72262600  0.00000000  0.49999900  1
