# generated using pymatgen
data_MgGe2(WO4)2
_symmetry_space_group_name_H-M   'P 1'
_cell_length_a   5.37348021
_cell_length_b   5.95781900
_cell_length_c   5.34156719
_cell_angle_alpha   90.00000000
_cell_angle_beta   85.98924811
_cell_angle_gamma   90.00000000
_symmetry_Int_Tables_number   1
_chemical_formula_structural   MgGe2(WO4)2
_chemical_formula_sum   'Mg1 Ge2 W2 O8'
_cell_volume   170.58731664
_cell_formula_units_Z   1
loop_
 _symmetry_equiv_pos_site_id
 _symmetry_equiv_pos_as_xyz
  1  'x, y, z'
loop_
 _atom_site_type_symbol
 _atom_site_label
 _atom_site_symmetry_multiplicity
 _atom_site_fract_x
 _atom_site_fract_y
 _atom_site_fract_z
 _atom_site_occupancy
  Mg  Mg0  1  0.50000000  0.04962400  0.25000000  1
  Ge  Ge1  1  0.50000000  0.34253200  0.75000000  1
  Ge  Ge2  1  0.50000000  0.60869300  0.25000000  1
  W  W3  1  0.00000000  0.84469200  0.75000000  1
  W  W4  1  0.00000000  0.17872000  0.25000000  1
  O  O5  1  0.22221000  0.09129200  0.53205700  1
  O  O6  1  0.20272300  0.93409600  0.02542200  1
  O  O7  1  0.22801700  0.63318100  0.61759800  1
  O  O8  1  0.29813000  0.38138400  0.12121400  1
  O  O9  1  0.77198300  0.63318100  0.88240200  1
  O  O10  1  0.70187000  0.38138400  0.37878600  1
  O  O11  1  0.77779000  0.09129200  0.96794300  1
  O  O12  1  0.79727700  0.93409600  0.47457800  1
