# generated using pymatgen
data_MgFe2W2(ClO4)2
_symmetry_space_group_name_H-M   'P 1'
_cell_length_a   5.19643721
_cell_length_b   7.13938718
_cell_length_c   7.13938718
_cell_angle_alpha   90.28044941
_cell_angle_beta   91.13714490
_cell_angle_gamma   88.86285510
_symmetry_Int_Tables_number   1
_chemical_formula_structural   MgFe2W2(ClO4)2
_chemical_formula_sum   'Mg1 Fe2 W2 Cl2 O8'
_cell_volume   264.75981652
_cell_formula_units_Z   1
loop_
 _symmetry_equiv_pos_site_id
 _symmetry_equiv_pos_as_xyz
  1  'x, y, z'
loop_
 _atom_site_type_symbol
 _atom_site_label
 _atom_site_symmetry_multiplicity
 _atom_site_fract_x
 _atom_site_fract_y
 _atom_site_fract_z
 _atom_site_occupancy
  Mg  Mg0  1  0.50000000  0.00000000  0.50000000  1
  Fe  Fe1  1  0.18988200  0.25126300  0.24873700  1
  Fe  Fe2  1  0.81011800  0.74873700  0.75126300  1
  W  W3  1  0.00000000  0.24136800  0.74136800  1
  W  W4  1  0.00000000  0.75863200  0.25863200  1
  Cl  Cl5  1  0.30792900  0.77311400  0.72688600  1
  Cl  Cl6  1  0.69207100  0.22688600  0.27311400  1
  O  O7  1  0.23667000  0.21624600  0.55380900  1
  O  O8  1  0.23667000  0.94619100  0.28375400  1
  O  O9  1  0.76333000  0.05380900  0.71624600  1
  O  O10  1  0.83747600  0.46470100  0.72365800  1
  O  O11  1  0.76333000  0.78375400  0.44619100  1
  O  O12  1  0.16252400  0.53529900  0.27634200  1
  O  O13  1  0.16252400  0.22365800  0.96470100  1
  O  O14  1  0.83747600  0.77634200  0.03529900  1
