# generated using pymatgen
data_Na3La2Ta2SiP5O24
_symmetry_space_group_name_H-M   'P 1'
_cell_length_a   9.28053577
_cell_length_b   9.25159634
_cell_length_c   23.15320252
_cell_angle_alpha   90.00215632
_cell_angle_beta   90.09589410
_cell_angle_gamma   120.06678002
_symmetry_Int_Tables_number   1
_chemical_formula_structural   Na3La2Ta2SiP5O24
_chemical_formula_sum   'Na9 La6 Ta6 Si3 P15 O72'
_cell_volume   1720.43376489
_cell_formula_units_Z   3
loop_
 _symmetry_equiv_pos_site_id
 _symmetry_equiv_pos_as_xyz
  1  'x, y, z'
loop_
 _atom_site_type_symbol
 _atom_site_label
 _atom_site_symmetry_multiplicity
 _atom_site_fract_x
 _atom_site_fract_y
 _atom_site_fract_z
 _atom_site_occupancy
  Na  Na0  1  0.34380673  0.98621621  0.75299007  1
  Na  Na1  1  0.67640172  0.98608705  0.58732619  1
  Na  Na2  1  0.68729865  0.69561122  0.08149102  1
  Na  Na3  1  0.02903404  0.99936114  0.49990119  1
  Na  Na4  1  0.02063693  0.00541538  -0.00106495  1
  Na  Na5  1  0.68073393  0.35464143  0.83291023  1
  Na  Na6  1  0.66248797  0.33099449  0.33138392  1
  Na  Na7  1  0.32384243  0.66685898  0.16653580  1
  Na  Na8  1  0.33083845  0.64284274  0.66707211  1
  La  La9  1  0.00167894  0.99640176  0.64722755  1
  La  La10  1  0.01121372  0.01018806  0.14847147  1
  La  La11  1  0.66683904  0.32844704  0.97796057  1
  La  La12  1  0.66209834  0.33542710  0.47595696  1
  La  La13  1  0.33639814  0.66719380  0.31090715  1
  La  La14  1  0.34010934  0.66196089  0.81469659  1
  Ta  Ta15  1  0.00033214  0.00039420  0.35200747  1
  Ta  Ta16  1  0.99177942  0.99824661  0.85200712  1
  Ta  Ta17  1  0.66923356  0.33251692  0.68447505  1
  Ta  Ta18  1  0.67107318  0.33411805  0.18620251  1
  Ta  Ta19  1  0.32564369  0.66785467  0.01809193  1
  Ta  Ta20  1  0.33039620  0.66586580  0.51825933  1
  Si  Si21  1  0.71129224  0.01972947  0.74649737  1
  Si  Si22  1  0.37498911  0.02587843  0.58211230  1
  Si  Si23  1  0.96671817  0.61834365  0.08335430  1
  P  P24  1  0.30913198  0.02729519  0.25183773  1
  P  P25  1  0.72050184  0.69374497  0.24831462  1
  P  P26  1  0.97175280  0.28191893  0.25155642  1
  P  P27  1  0.30768261  0.28352031  0.75109131  1
  P  P28  1  0.97816962  0.69527430  0.75316167  1
  P  P29  1  0.96828252  0.35659535  0.58309219  1
  P  P30  1  0.64082861  0.61481487  0.58360840  1
  P  P31  1  0.64140770  0.02551057  0.08524067  1
  P  P32  1  0.38592643  0.35855137  0.08366625  1
  P  P33  1  0.64438551  0.69149432  0.91919395  1
  P  P34  1  0.05253288  0.35750262  0.91675854  1
  P  P35  1  0.30471983  0.94722866  0.91426341  1
  P  P36  1  0.64202800  0.94653981  0.41761712  1
  P  P37  1  0.30457424  0.35983711  0.41602836  1
  P  P38  1  0.05584587  0.69466213  0.41599027  1
  O  O39  1  0.19812289  0.03812073  0.30385751  1
  O  O40  1  0.84194225  0.80356755  0.30039700  1
  O  O41  1  0.96075925  0.16114571  0.30363867  1
  O  O42  1  0.20388383  0.16270075  0.80367936  1
  O  O43  1  0.96365551  0.80207019  0.80564046  1
  O  O44  1  0.84319201  0.03051541  0.80255075  1
  O  O45  1  0.77291193  0.98927207  0.68644394  1
  O  O46  1  0.21485553  0.20974075  0.69571103  1
  O  O47  1  0.02131620  0.80111050  0.69950621  1
  O  O48  1  0.78569842  0.78118291  0.19119857  1
  O  O49  1  -0.00350134  0.21553684  0.19558121  1
  O  O50  1  0.21326453  0.99677015  0.19639469  1
  O  O51  1  0.86855229  0.37726158  0.63697538  1
  O  O52  1  0.50523716  0.13824204  0.64080834  1
  O  O53  1  0.63099118  0.50225402  0.63757170  1
  O  O54  1  0.85793901  0.48732039  0.14042963  1
  O  O55  1  0.62633299  0.12869241  0.13845900  1
  O  O56  1  0.50491828  0.37289647  0.13694121  1
  O  O57  1  0.45676131  0.33198683  0.02905713  1
  O  O58  1  0.85030990  0.54096276  0.02910668  1
  O  O59  1  0.67619163  0.12510662  0.03094230  1
  O  O60  1  0.47097900  0.13140618  0.52760963  1
  O  O61  1  0.67605741  0.54882571  0.52961712  1
  O  O62  1  0.86479947  0.32577130  0.52992017  1
  O  O63  1  0.54670007  0.70588061  0.97350392  1
  O  O64  1  0.17405017  0.46643190  0.96959973  1
  O  O65  1  0.29891743  0.82422261  0.96643622  1
  O  O66  1  0.53981219  0.83037682  0.47233962  1
  O  O67  1  0.29207366  0.46326061  0.46953957  1
  O  O68  1  0.17404799  0.70615587  0.46996379  1
  O  O69  1  0.12917063  0.66980832  0.36206521  1
  O  O70  1  0.53979055  0.87318756  0.36416705  1
  O  O71  1  0.32760910  0.45549344  0.36139276  1
  O  O72  1  0.12009205  0.45428877  0.86192594  1
  O  O73  1  0.32714851  0.88079405  0.85750711  1
  O  O74  1  0.54973422  0.67170016  0.86421567  1
  O  O75  1  0.05288902  0.86492732  0.41008111  1
  O  O76  1  0.81304322  0.94641016  0.40921371  1
  O  O77  1  0.13471476  0.18589184  0.40971458  1
  O  O78  1  0.05406163  0.18724474  0.91067442  1
  O  O79  1  0.13612522  0.94766250  0.91297014  1
  O  O80  1  0.81758948  0.86276490  0.91180704  1
  O  O81  1  0.99326678  0.20808531  0.59235678  1
  O  O82  1  0.18651344  0.98303102  0.58410015  1
  O  O83  1  0.77261754  0.79891618  0.59043487  1
  O  O84  1  0.99545065  0.80354375  0.08948305  1
  O  O85  1  0.77375039  0.97600629  0.09445845  1
  O  O86  1  0.20533893  0.22382481  0.08998340  1
  O  O87  1  0.71449530  0.20425502  0.74089849  1
  O  O88  1  0.47869341  0.28311267  0.74746946  1
  O  O89  1  0.80942839  0.52843474  0.74582594  1
  O  O90  1  0.71569902  0.51958001  0.24458382  1
  O  O91  1  0.79928651  0.27978218  0.24613358  1
  O  O92  1  0.47798988  0.19780809  0.24640791  1
  O  O93  1  0.68281857  0.55076988  0.92294020  1
  O  O94  1  0.87445907  0.31623179  0.92504330  1
  O  O95  1  0.44776157  0.12259488  0.92330141  1
  O  O96  1  0.68516990  0.12625722  0.42507236  1
  O  O97  1  0.44326309  0.31988220  0.42214411  1
  O  O98  1  0.87826448  0.55600387  0.42387075  1
  O  O99  1  0.39232913  0.53438659  0.07856104  1
  O  O100  1  0.15043298  0.62503811  0.07213946  1
  O  O101  1  0.47054769  0.85311468  0.07708940  1
  O  O102  1  0.37998006  0.84400569  0.57525733  1
  O  O103  1  0.46863967  0.61305426  0.57653677  1
  O  O104  1  0.14266409  0.52105756  0.57644152  1
  O  O105  1  0.34730329  0.88745864  0.25972303  1
  O  O106  1  0.54325761  0.65684901  0.25647445  1
  O  O107  1  0.10913452  0.46122742  0.25910616  1
  O  O108  1  0.34511177  0.46241881  0.75585444  1
  O  O109  1  0.12213611  0.66357339  0.76282303  1
  O  O110  1  0.51744308  0.88231430  0.75480188  1
