# generated using pymatgen
data_Na42Ta16Zn8Si33(SO48)3
_symmetry_space_group_name_H-M   'P 1'
_cell_length_a   18.28557398
_cell_length_b   9.16158729
_cell_length_c   22.28758337
_cell_angle_alpha   89.95113993
_cell_angle_beta   89.98514515
_cell_angle_gamma   120.15528052
_symmetry_Int_Tables_number   1
_chemical_formula_structural   Na42Ta16Zn8Si33(SO48)3
_chemical_formula_sum   'Na42 Ta16 Zn8 Si33 S3 O144'
_cell_volume   3228.42695562
_cell_formula_units_Z   1
loop_
 _symmetry_equiv_pos_site_id
 _symmetry_equiv_pos_as_xyz
  1  'x, y, z'
loop_
 _atom_site_type_symbol
 _atom_site_label
 _atom_site_symmetry_multiplicity
 _atom_site_fract_x
 _atom_site_fract_y
 _atom_site_fract_z
 _atom_site_occupancy
  Na  Na0  1  0.31301484  0.97643863  0.25543689  1
  Na  Na1  1  0.81494143  0.97843300  0.25617852  1
  Na  Na2  1  0.17844205  0.38813291  0.25422592  1
  Na  Na3  1  0.67945661  0.38937809  0.25438830  1
  Na  Na4  1  0.00841490  0.63703690  0.26183704  1
  Na  Na5  1  0.50769903  0.63478362  0.26055806  1
  Na  Na6  1  0.31509040  0.65323369  0.75681551  1
  Na  Na7  1  0.80726876  0.64047997  0.75534746  1
  Na  Na8  1  0.00688430  0.38461586  0.75870937  1
  Na  Na9  1  0.51456748  0.38156346  0.75843309  1
  Na  Na10  1  0.17897990  0.96976680  0.75475422  1
  Na  Na11  1  0.67891173  0.97304470  0.75523699  1
  Na  Na12  1  0.14036932  0.31549329  0.58528828  1
  Na  Na13  1  0.63917575  0.31070475  0.59339656  1
  Na  Na14  1  0.01668931  0.71913403  0.59096838  1
  Na  Na15  1  0.51934108  0.72814323  0.59211664  1
  Na  Na16  1  0.34483045  0.96122596  0.59161102  1
  Na  Na17  1  0.84383748  0.96701295  0.59209986  1
  Na  Na18  1  0.34180204  0.72315452  0.09145576  1
  Na  Na19  1  0.84226000  0.72370784  0.09194316  1
  Na  Na20  1  0.01831435  0.31460698  0.09135194  1
  Na  Na21  1  0.51713974  0.31234118  0.09060493  1
  Na  Na22  1  0.48690250  0.66208979  0.91318276  1
  Na  Na23  1  0.99075827  0.65887314  0.91340977  1
  Na  Na24  1  0.34443409  0.02474606  0.91488070  1
  Na  Na25  1  0.84138346  0.02458613  0.91296153  1
  Na  Na26  1  0.66624499  0.30948324  0.91254572  1
  Na  Na27  1  0.48950609  0.32025598  0.41363032  1
  Na  Na28  1  0.34020965  0.65828400  0.41291021  1
  Na  Na29  1  0.84359039  0.65742912  0.41393813  1
  Na  Na30  1  0.00452518  0.00738189  0.50651134  1
  Na  Na31  1  0.50612588  0.99994926  0.50948242  1
  Na  Na32  1  0.01257091  0.00960460  0.01162337  1
  Na  Na33  1  0.50541729  0.99802051  0.01068624  1
  Na  Na34  1  0.32997492  0.33307917  0.83683129  1
  Na  Na35  1  0.83215935  0.33212004  0.83235494  1
  Na  Na36  1  0.32709051  0.32358370  0.33494745  1
  Na  Na37  1  0.83655626  0.32548332  0.33787138  1
  Na  Na38  1  0.16620708  0.66364493  0.17382156  1
  Na  Na39  1  0.66711083  0.66353787  0.17410803  1
  Na  Na40  1  0.16749832  0.68077044  0.67446567  1
  Na  Na41  1  0.66642846  0.66531355  0.67917510  1
  Ta  Ta42  1  0.99379914  0.99959755  0.35731071  1
  Ta  Ta43  1  0.49461152  0.99719528  0.35618463  1
  Ta  Ta44  1  0.99588677  0.99347023  0.85604057  1
  Ta  Ta45  1  0.49797339  0.99837852  0.85188685  1
  Ta  Ta46  1  0.33828933  0.33459223  0.68595099  1
  Ta  Ta47  1  0.83287822  0.33352180  0.68895675  1
  Ta  Ta48  1  0.33678588  0.33855632  0.18578112  1
  Ta  Ta49  1  0.83776009  0.34026026  0.18607109  1
  Ta  Ta50  1  0.33068882  0.33540347  0.98051437  1
  Ta  Ta51  1  0.83349677  0.33397033  0.98096970  1
  Ta  Ta52  1  0.33101541  0.33038349  0.47891020  1
  Ta  Ta53  1  0.83540493  0.32935091  0.47850911  1
  Ta  Ta54  1  0.16660890  0.66761841  0.02024198  1
  Ta  Ta55  1  0.66622569  0.66786988  0.02164199  1
  Ta  Ta56  1  0.16460633  0.66467201  0.51841264  1
  Ta  Ta57  1  0.66642322  0.66670661  0.51922981  1
  Zn  Zn58  1  0.99349824  0.98146201  0.64543610  1
  Zn  Zn59  1  0.49968245  0.99913228  0.65168465  1
  Zn  Zn60  1  0.99712300  0.00386421  0.14501803  1
  Zn  Zn61  1  0.49675934  0.00332119  0.14419260  1
  Zn  Zn62  1  0.16495455  0.65315071  0.32298067  1
  Zn  Zn63  1  0.66739357  0.65544214  0.32246959  1
  Zn  Zn64  1  0.16782863  0.67970878  0.82350514  1
  Zn  Zn65  1  0.66639599  0.66726716  0.81782438  1
  Si  Si66  1  0.35291752  0.70628982  0.24601975  1
  Si  Si67  1  0.85365270  0.70776359  0.24656086  1
  Si  Si68  1  0.00020859  0.29242728  0.24631349  1
  Si  Si69  1  0.50004248  0.29322458  0.24642092  1
  Si  Si70  1  0.64570970  0.29094375  0.74625840  1
  Si  Si71  1  0.00157759  0.70924648  0.74628762  1
  Si  Si72  1  0.49831865  0.70565127  0.74640390  1
  Si  Si73  1  0.35171860  0.99848546  0.74610910  1
  Si  Si74  1  0.85507003  0.00225869  0.74601729  1
  Si  Si75  1  0.48161820  0.33771595  0.58047719  1
  Si  Si76  1  0.98061706  0.33863323  0.58470507  1
  Si  Si77  1  0.18855552  0.03911337  0.58412321  1
  Si  Si78  1  0.69055096  0.04141991  0.58278673  1
  Si  Si79  1  0.33030917  0.62116083  0.58270525  1
  Si  Si80  1  0.83046250  0.61884334  0.58128561  1
  Si  Si81  1  0.48199244  0.62839324  0.08203165  1
  Si  Si82  1  0.98326491  0.63000939  0.08227934  1
  Si  Si83  1  0.32878795  0.03980716  0.08246428  1
  Si  Si84  1  0.82873209  0.03840104  0.08363436  1
  Si  Si85  1  0.18710829  0.33441943  0.08450688  1
  Si  Si86  1  0.68724050  0.33300851  0.08339780  1
  Si  Si87  1  0.31050261  0.66292297  0.91278091  1
  Si  Si88  1  0.81076153  0.66277782  0.91528193  1
  Si  Si89  1  0.02219901  0.37339223  0.91505040  1
  Si  Si90  1  0.51987640  0.37379544  0.91551018  1
  Si  Si91  1  0.16731783  0.96367319  0.91487063  1
  Si  Si92  1  0.66658706  0.95906341  0.91434634  1
  Si  Si93  1  0.30861471  0.95846267  0.41280731  1
  Si  Si94  1  0.80858208  0.95827119  0.41244144  1
  Si  Si95  1  0.16478312  0.36931776  0.41466273  1
  Si  Si96  1  0.66726158  0.36912712  0.41518190  1
  Si  Si97  1  0.02123399  0.66924363  0.41316065  1
  Si  Si98  1  0.52144760  0.67032883  0.41451031  1
  S  S99  1  0.14484588  0.00724959  0.24839857  1
  S  S100  1  0.64433508  0.00680805  0.24853240  1
  S  S101  1  0.14584674  0.28500423  0.74805025  1
  O  O102  1  0.10342066  0.02826721  0.30385126  1
  O  O103  1  0.60160742  0.02724925  0.30406233  1
  O  O104  1  0.41575874  0.80439237  0.30689932  1
  O  O105  1  0.91582350  0.80266292  0.30704968  1
  O  O106  1  0.48787677  0.16672756  0.30652877  1
  O  O107  1  0.98748872  0.16061558  0.30409282  1
  O  O108  1  0.10110845  0.17594500  0.80194282  1
  O  O109  1  0.59591767  0.16553929  0.80642879  1
  O  O110  1  0.48384347  0.80344672  0.80604415  1
  O  O111  1  0.99039037  0.81255568  0.80617619  1
  O  O112  1  0.41490502  0.02777441  0.80607900  1
  O  O113  1  0.91718941  0.02589787  0.80668638  1
  O  O114  1  0.39345799  0.97657247  0.68629182  1
  O  O115  1  0.89812646  0.98057508  0.68687271  1
  O  O116  1  0.10024713  0.21029948  0.69269222  1
  O  O117  1  0.59098254  0.21127821  0.68687366  1
  O  O118  1  0.02071797  0.82355060  0.68732185  1
  O  O119  1  0.51065263  0.81130912  0.68654830  1
  O  O120  1  0.39798595  0.81446510  0.18736456  1
  O  O121  1  0.89753123  0.81457567  0.18721011  1
  O  O122  1  0.01613860  0.21553042  0.18663578  1
  O  O123  1  0.51643635  0.21328034  0.18776687  1
  O  O124  1  0.09649268  0.98850677  0.19475661  1
  O  O125  1  0.59602097  0.98822684  0.19509373  1
  O  O126  1  0.43239927  0.36360782  0.64095970  1
  O  O127  1  0.93415440  0.36849168  0.64419954  1
  O  O128  1  0.24919807  0.13437224  0.64421582  1
  O  O129  1  0.75106242  0.13436713  0.64308862  1
  O  O130  1  0.31647735  0.49558004  0.64192520  1
  O  O131  1  0.81740109  0.49847738  0.64137991  1
  O  O132  1  0.43237311  0.49983199  0.14165115  1
  O  O133  1  0.93270604  0.50091350  0.14162501  1
  O  O134  1  0.31904248  0.13745105  0.14283428  1
  O  O135  1  0.81938028  0.13723508  0.14329942  1
  O  O136  1  0.24938551  0.36225660  0.14395281  1
  O  O137  1  0.75010031  0.35974678  0.14217689  1
  O  O138  1  0.24294001  0.32758399  0.02773498  1
  O  O139  1  0.74129894  0.32788300  0.02466789  1
  O  O140  1  0.42304868  0.52254044  0.02424433  1
  O  O141  1  0.92322475  0.52047231  0.02471625  1
  O  O142  1  0.33688954  0.16096489  0.02562371  1
  O  O143  1  0.83470366  0.15697402  0.02580757  1
  O  O144  1  0.24376532  0.16229692  0.52811787  1
  O  O145  1  0.74477890  0.16543638  0.52742363  1
  O  O146  1  0.33730915  0.51619833  0.52518735  1
  O  O147  1  0.83978901  0.51852415  0.52404271  1
  O  O148  1  0.42238509  0.32739809  0.52384050  1
  O  O149  1  0.91968930  0.32029749  0.52795497  1
  O  O150  1  0.26295913  0.69507101  0.97116646  1
  O  O151  1  0.76619444  0.69796402  0.97385359  1
  O  O152  1  0.08147275  0.46977526  0.97431824  1
  O  O153  1  0.58407630  0.46836026  0.97386935  1
  O  O154  1  0.15009983  0.82679803  0.97011408  1
  O  O155  1  0.65227775  0.82793310  0.97127647  1
  O  O156  1  0.26331071  0.83254506  0.47174163  1
  O  O157  1  0.76208506  0.82945263  0.47082385  1
  O  O158  1  0.15336347  0.46963332  0.47373477  1
  O  O159  1  0.64966332  0.46752047  0.47235739  1
  O  O160  1  0.08242902  0.69068166  0.47258357  1
  O  O161  1  0.58141750  0.69124736  0.47379023  1
  O  O162  1  0.05875359  0.63997793  0.35305334  1
  O  O163  1  0.55576157  0.62272358  0.35606052  1
  O  O164  1  0.25930781  0.88386900  0.35180664  1
  O  O165  1  0.75873534  0.88394875  0.35143734  1
  O  O166  1  0.19347216  0.48574999  0.35585048  1
  O  O167  1  0.69041597  0.48077544  0.35537230  1
  O  O168  1  0.05552956  0.48967567  0.85623468  1
  O  O169  1  0.55421346  0.48940729  0.85685363  1
  O  O170  1  0.19206216  0.90419263  0.85440937  1
  O  O171  1  0.69254775  0.89586913  0.85551292  1
  O  O172  1  0.25915011  0.63304420  0.85192211  1
  O  O173  1  0.75446203  0.61785515  0.85632698  1
  O  O174  1  0.00905228  0.83775660  0.41052665  1
  O  O175  1  0.50923782  0.83726038  0.40980053  1
  O  O176  1  0.40499064  0.97240244  0.41029429  1
  O  O177  1  0.90313979  0.96730944  0.41043068  1
  O  O178  1  0.07996806  0.18227367  0.40888084  1
  O  O179  1  0.57827169  0.18481068  0.40960758  1
  O  O180  1  0.00993693  0.18207958  0.90911231  1
  O  O181  1  0.51231345  0.18537891  0.91061271  1
  O  O182  1  0.07924743  0.97251709  0.90949537  1
  O  O183  1  0.57939547  0.97151721  0.91049697  1
  O  O184  1  0.40578634  0.83959046  0.91021203  1
  O  O185  1  0.90613348  0.83799834  0.90998839  1
  O  O186  1  0.49001124  0.17342460  0.57999035  1
  O  O187  1  0.99352867  0.17822883  0.58576482  1
  O  O188  1  0.09788308  0.02517699  0.58375342  1
  O  O189  1  0.59865479  0.02077912  0.58272020  1
  O  O190  1  0.41296608  0.80395579  0.58177008  1
  O  O191  1  0.91270622  0.80439399  0.58074680  1
  O  O192  1  0.48658612  0.80515815  0.08457070  1
  O  O193  1  0.98670296  0.80573956  0.08377596  1
  O  O194  1  0.41200379  0.02333520  0.08090890  1
  O  O195  1  0.91243770  0.02443387  0.08065206  1
  O  O196  1  0.09463529  0.17656988  0.08500685  1
  O  O197  1  0.59424200  0.17552440  0.08295590  1
  O  O198  1  0.34685387  0.17903471  0.74577758  1
  O  O199  1  0.85342203  0.18458627  0.74677708  1
  O  O200  1  0.23156241  0.29361299  0.74852327  1
  O  O201  1  0.73861937  0.29383386  0.74599422  1
  O  O202  1  0.40553177  0.51734167  0.74578016  1
  O  O203  1  0.90874777  0.52680294  0.74583267  1
  O  O204  1  0.34792639  0.51550351  0.24631490  1
  O  O205  1  0.84734406  0.51511682  0.24546560  1
  O  O206  1  0.40680999  0.29274336  0.24628856  1
  O  O207  1  0.90694561  0.29286449  0.24598888  1
  O  O208  1  0.23143297  0.17094405  0.24738804  1
  O  O209  1  0.73047193  0.17013419  0.24804948  1
  O  O210  1  0.33232732  0.50955117  0.92308775  1
  O  O211  1  0.83117077  0.50739751  0.92436392  1
  O  O212  1  0.42280284  0.33972185  0.92568037  1
  O  O213  1  0.92375291  0.33995612  0.92492297  1
  O  O214  1  0.24873377  0.15260542  0.92684453  1
  O  O215  1  0.74661462  0.15475138  0.92520832  1
  O  O216  1  0.33204725  0.15544117  0.42327806  1
  O  O217  1  0.82758114  0.15029960  0.42408161  1
  O  O218  1  0.24783530  0.34497903  0.42663373  1
  O  O219  1  0.74926163  0.34637990  0.42695229  1
  O  O220  1  0.42360484  0.50719210  0.42449828  1
  O  O221  1  0.92393836  0.50835428  0.42408636  1
  O  O222  1  0.18654981  0.51535200  0.07763987  1
  O  O223  1  0.68663819  0.51439853  0.07789576  1
  O  O224  1  0.07200051  0.62617907  0.07831056  1
  O  O225  1  0.57119741  0.62445309  0.07796865  1
  O  O226  1  0.24353769  0.85145009  0.07682814  1
  O  O227  1  0.74329925  0.85022502  0.07861058  1
  O  O228  1  0.18490098  0.85574116  0.57761372  1
  O  O229  1  0.68702800  0.85700717  0.57639980  1
  O  O230  1  0.24193431  0.62918712  0.57818097  1
  O  O231  1  0.74227889  0.62806202  0.57652678  1
  O  O232  1  0.07286542  0.51706401  0.57856198  1
  O  O233  1  0.57272850  0.51626260  0.57843692  1
  O  O234  1  0.16001115  0.86540201  0.25362261  1
  O  O235  1  0.65808530  0.86380261  0.25490513  1
  O  O236  1  0.25911673  0.68118980  0.25131325  1
  O  O237  1  0.75941870  0.68169353  0.25142771  1
  O  O238  1  0.07760121  0.48418003  0.25360132  1
  O  O239  1  0.57738023  0.48532823  0.25322061  1
  O  O240  1  0.15866035  0.45473606  0.75451005  1
  O  O241  1  0.66165081  0.47912593  0.75408993  1
  O  O242  1  0.07873714  0.67219352  0.75375351  1
  O  O243  1  0.57653231  0.67387420  0.75377925  1
  O  O244  1  0.25812238  0.83603222  0.75257664  1
  O  O245  1  0.76092010  0.84312686  0.75239531  1
