# generated using pymatgen
data_Na12Ca4Nb2Si3(PO6)6
_symmetry_space_group_name_H-M   'P 1'
_cell_length_a   9.42503525
_cell_length_b   9.42503489
_cell_length_c   22.42275123
_cell_angle_alpha   90.00000000
_cell_angle_beta   90.00000000
_cell_angle_gamma   120.00000121
_symmetry_Int_Tables_number   1
_chemical_formula_structural   Na12Ca4Nb2Si3(PO6)6
_chemical_formula_sum   'Na24 Ca8 Nb4 Si6 P12 O72'
_cell_volume   1724.98560389
_cell_formula_units_Z   2
loop_
 _symmetry_equiv_pos_site_id
 _symmetry_equiv_pos_as_xyz
  1  'x, y, z'
loop_
 _atom_site_type_symbol
 _atom_site_label
 _atom_site_symmetry_multiplicity
 _atom_site_fract_x
 _atom_site_fract_y
 _atom_site_fract_z
 _atom_site_occupancy
  Na  Na0  1  0.65114416  0.00599556  0.24285159  1
  Na  Na1  1  0.35485140  0.34885584  0.24285159  1
  Na  Na2  1  0.99400444  0.64514860  0.24285159  1
  Na  Na3  1  0.65114416  0.64514860  0.74285159  1
  Na  Na4  1  0.99400444  0.34885584  0.74285159  1
  Na  Na5  1  0.35485140  0.00599556  0.74285159  1
  Na  Na6  1  0.29253362  0.33896839  0.57716956  1
  Na  Na7  1  0.04643576  0.70746638  0.57716956  1
  Na  Na8  1  0.66103161  0.95356424  0.57716956  1
  Na  Na9  1  0.29253362  0.95356424  0.07716956  1
  Na  Na10  1  0.66103161  0.70746638  0.07716956  1
  Na  Na11  1  0.04643576  0.33896839  0.07716956  1
  Na  Na12  1  0.98794423  0.69449303  0.91378944  1
  Na  Na13  1  0.70654779  0.01205577  0.91378944  1
  Na  Na14  1  0.30550697  0.29345221  0.91378944  1
  Na  Na15  1  0.98794423  0.29345221  0.41378944  1
  Na  Na16  1  0.30550697  0.01205577  0.41378944  1
  Na  Na17  1  0.70654779  0.69449303  0.41378944  1
  Na  Na18  1  0.00000000  0.00000000  0.49377122  1
  Na  Na19  1  0.00000000  0.00000000  0.99377122  1
  Na  Na20  1  0.66666700  0.33333300  0.82926943  1
  Na  Na21  1  0.66666700  0.33333300  0.32926943  1
  Na  Na22  1  0.33333300  0.66666700  0.16296113  1
  Na  Na23  1  0.33333300  0.66666700  0.66296113  1
  Ca  Ca24  1  0.00000000  0.00000000  0.34579037  1
  Ca  Ca25  1  0.00000000  0.00000000  0.84579037  1
  Ca  Ca26  1  0.00000000  0.00000000  0.64880179  1
  Ca  Ca27  1  0.00000000  0.00000000  0.14880179  1
  Ca  Ca28  1  0.66666700  0.33333300  0.68304437  1
  Ca  Ca29  1  0.66666700  0.33333300  0.18304437  1
  Ca  Ca30  1  0.33333300  0.66666700  0.01379341  1
  Ca  Ca31  1  0.33333300  0.66666700  0.51379341  1
  Nb  Nb32  1  0.66666700  0.33333300  0.97787736  1
  Nb  Nb33  1  0.66666700  0.33333300  0.47787736  1
  Nb  Nb34  1  0.33333300  0.66666700  0.32312838  1
  Nb  Nb35  1  0.33333300  0.66666700  0.82312838  1
  Si  Si36  1  0.63375753  0.66083526  0.92158624  1
  Si  Si37  1  0.02707674  0.36624247  0.92158624  1
  Si  Si38  1  0.33916474  0.97292326  0.92158624  1
  Si  Si39  1  0.63375753  0.97292326  0.42158624  1
  Si  Si40  1  0.33916474  0.36624247  0.42158624  1
  Si  Si41  1  0.02707674  0.66083526  0.42158624  1
  P  P42  1  0.30772553  0.98657016  0.25218134  1
  P  P43  1  0.67884463  0.69227447  0.25218134  1
  P  P44  1  0.01342984  0.32115538  0.25218134  1
  P  P45  1  0.30772553  0.32115538  0.75218134  1
  P  P46  1  0.01342984  0.69227447  0.75218134  1
  P  P47  1  0.67884463  0.98657016  0.75218134  1
  P  P48  1  0.95778175  0.32780676  0.58281920  1
  P  P49  1  0.37002601  0.04221825  0.58281920  1
  P  P50  1  0.67219324  0.62997399  0.58281920  1
  P  P51  1  0.95778175  0.62997399  0.08281920  1
  P  P52  1  0.67219324  0.04221825  0.08281920  1
  P  P53  1  0.37002601  0.32780676  0.08281920  1
  O  O54  1  0.22575263  0.00851304  0.30750381  1
  O  O55  1  0.78276041  0.77424737  0.30750381  1
  O  O56  1  0.99148696  0.21723959  0.30750381  1
  O  O57  1  0.22575263  0.21723959  0.80750381  1
  O  O58  1  0.99148696  0.77424737  0.80750381  1
  O  O59  1  0.78276041  0.00851304  0.80750381  1
  O  O60  1  0.75577608  0.95937731  0.69548089  1
  O  O61  1  0.20360123  0.24422392  0.69548089  1
  O  O62  1  0.04062269  0.79639877  0.69548089  1
  O  O63  1  0.75577608  0.79639877  0.19548089  1
  O  O64  1  0.04062269  0.24422392  0.19548089  1
  O  O65  1  0.20360123  0.95937731  0.19548089  1
  O  O66  1  0.87801824  0.33135026  0.64166494  1
  O  O67  1  0.45333302  0.12198176  0.64166494  1
  O  O68  1  0.66864974  0.54666698  0.64166494  1
  O  O69  1  0.87801824  0.54666698  0.14166494  1
  O  O70  1  0.66864974  0.12198176  0.14166494  1
  O  O71  1  0.45333302  0.33135026  0.14166494  1
  O  O72  1  0.48472430  0.32893314  0.02887910  1
  O  O73  1  0.84420984  0.51527570  0.02887910  1
  O  O74  1  0.67106686  0.15579016  0.02887910  1
  O  O75  1  0.48472430  0.15579016  0.52887910  1
  O  O76  1  0.67106686  0.51527570  0.52887910  1
  O  O77  1  0.84420984  0.32893314  0.52887910  1
  O  O78  1  0.56691347  0.69609055  0.98161553  1
  O  O79  1  0.12917608  0.43308653  0.98161553  1
  O  O80  1  0.30390945  0.87082392  0.98161553  1
  O  O81  1  0.56691347  0.87082392  0.48161553  1
  O  O82  1  0.30390945  0.43308653  0.48161553  1
  O  O83  1  0.12917608  0.69609055  0.48161553  1
  O  O84  1  0.14143467  0.63835573  0.36605995  1
  O  O85  1  0.49692006  0.85856533  0.36605995  1
  O  O86  1  0.36164427  0.50307994  0.36605995  1
  O  O87  1  0.14143467  0.50307994  0.86605995  1
  O  O88  1  0.36164427  0.85856533  0.86605995  1
  O  O89  1  0.49692006  0.63835573  0.86605995  1
  O  O90  1  0.98916437  0.80589892  0.40903758  1
  O  O91  1  0.81673455  0.01083563  0.40903758  1
  O  O92  1  0.19410108  0.18326545  0.40903758  1
  O  O93  1  0.98916437  0.18326545  0.90903758  1
  O  O94  1  0.19410108  0.01083563  0.90903758  1
  O  O95  1  0.81673455  0.80589892  0.90903758  1
  O  O96  1  0.96245178  0.16697307  0.57515092  1
  O  O97  1  0.20452129  0.03754822  0.57515092  1
  O  O98  1  0.83302693  0.79547871  0.57515092  1
  O  O99  1  0.96245178  0.79547871  0.07515092  1
  O  O100  1  0.83302693  0.03754822  0.07515092  1
  O  O101  1  0.20452129  0.16697307  0.07515092  1
  O  O102  1  0.64720626  0.13284862  0.74956467  1
  O  O103  1  0.48564337  0.35279374  0.74956467  1
  O  O104  1  0.86715138  0.51435663  0.74956467  1
  O  O105  1  0.64720626  0.51435663  0.24956467  1
  O  O106  1  0.86715138  0.35279374  0.24956467  1
  O  O107  1  0.48564337  0.13284862  0.24956467  1
  O  O108  1  0.62794768  0.47890888  0.92204649  1
  O  O109  1  0.85096220  0.37205232  0.92204649  1
  O  O110  1  0.52109112  0.14903780  0.92204649  1
  O  O111  1  0.62794768  0.14903780  0.42204649  1
  O  O112  1  0.52109112  0.37205232  0.42204649  1
  O  O113  1  0.85096220  0.47890888  0.42204649  1
  O  O114  1  0.35121321  0.48126428  0.08103700  1
  O  O115  1  0.13005006  0.64878679  0.08103700  1
  O  O116  1  0.51873572  0.86994994  0.08103700  1
  O  O117  1  0.35121321  0.86994994  0.58103700  1
  O  O118  1  0.51873572  0.64878679  0.58103700  1
  O  O119  1  0.13005006  0.48126428  0.58103700  1
  O  O120  1  0.31853540  0.82361827  0.25874925  1
  O  O121  1  0.50508187  0.68146460  0.25874925  1
  O  O122  1  0.17638173  0.49491813  0.25874925  1
  O  O123  1  0.31853540  0.49491813  0.75874925  1
  O  O124  1  0.17638173  0.68146460  0.75874925  1
  O  O125  1  0.50508187  0.82361827  0.75874925  1
