# generated using pymatgen
data_Na6Ti4Al4Si5S7O48
_symmetry_space_group_name_H-M   'P 1'
_cell_length_a   17.23897786
_cell_length_b   8.62805254
_cell_length_c   22.15971305
_cell_angle_alpha   90.10318820
_cell_angle_beta   90.01100791
_cell_angle_gamma   120.16987973
_symmetry_Int_Tables_number   1
_chemical_formula_structural   Na6Ti4Al4Si5S7O48
_chemical_formula_sum   'Na18 Ti12 Al12 Si15 S21 O144'
_cell_volume   2849.52204052
_cell_formula_units_Z   3
loop_
 _symmetry_equiv_pos_site_id
 _symmetry_equiv_pos_as_xyz
  1  'x, y, z'
loop_
 _atom_site_type_symbol
 _atom_site_label
 _atom_site_symmetry_multiplicity
 _atom_site_fract_x
 _atom_site_fract_y
 _atom_site_fract_z
 _atom_site_occupancy
  Na  Na0  1  0.00095353  0.63434854  0.25335175  1
  Na  Na1  1  0.49762792  0.63674852  0.25013983  1
  Na  Na2  1  0.99792884  0.36202890  0.74892220  1
  Na  Na3  1  0.50214137  0.36338913  0.75202504  1
  Na  Na4  1  0.66453359  0.29961138  0.91645173  1
  Na  Na5  1  0.16542448  0.02676800  0.42301513  1
  Na  Na6  1  0.99969211  0.99728516  0.50294020  1
  Na  Na7  1  0.50115378  0.99445818  0.50127384  1
  Na  Na8  1  0.00236491  0.00599645  0.99701054  1
  Na  Na9  1  0.50031749  0.00272250  0.99995639  1
  Na  Na10  1  0.33143352  0.32898979  0.83510608  1
  Na  Na11  1  0.83014070  0.32878351  0.82667965  1
  Na  Na12  1  0.33623517  0.34048209  0.33030399  1
  Na  Na13  1  0.82948411  0.33233340  0.33738498  1
  Na  Na14  1  0.17665283  0.66549104  0.16693318  1
  Na  Na15  1  0.67141775  0.66409064  0.16452433  1
  Na  Na16  1  0.17238042  0.67969132  0.66577234  1
  Na  Na17  1  0.67540417  0.67890922  0.67099787  1
  Ti  Ti18  1  0.49721574  0.00999332  0.35033266  1
  Ti  Ti19  1  0.99718012  0.98453762  0.84961357  1
  Ti  Ti20  1  0.99917262  0.98502898  0.64888223  1
  Ti  Ti21  1  0.50742011  0.00170699  0.64209104  1
  Ti  Ti22  1  -0.00014900  0.01291904  0.13849113  1
  Ti  Ti23  1  0.49880140  0.01364013  0.14832891  1
  Ti  Ti24  1  0.32658952  0.31991687  0.97433008  1
  Ti  Ti25  1  0.82711071  0.33480316  0.47576087  1
  Ti  Ti26  1  0.16627392  0.66625551  0.01904653  1
  Ti  Ti27  1  0.66454277  0.64890331  0.02502827  1
  Ti  Ti28  1  0.16408632  0.67861947  0.52766498  1
  Ti  Ti29  1  0.66495965  0.66196796  0.52176021  1
  Al  Al30  1  0.99677107  0.99045004  0.35468547  1
  Al  Al31  1  0.50335201  0.01478715  0.85181329  1
  Al  Al32  1  0.32369462  0.33222999  0.68001108  1
  Al  Al33  1  0.82440338  0.31272011  0.69580836  1
  Al  Al34  1  0.33349824  0.34831604  0.18973997  1
  Al  Al35  1  0.82171386  0.31585652  0.17915943  1
  Al  Al36  1  0.82880820  0.31555825  0.98472332  1
  Al  Al37  1  0.33244363  0.34384609  0.48907306  1
  Al  Al38  1  0.17046652  0.66520210  0.31745801  1
  Al  Al39  1  0.66514797  0.64912995  0.31500720  1
  Al  Al40  1  0.16842294  0.68636383  0.81310524  1
  Al  Al41  1  0.66647899  0.65697743  0.81032442  1
  Si  Si42  1  0.34866337  0.70816622  0.25101917  1
  Si  Si43  1  0.49957972  0.30090638  0.24888708  1
  Si  Si44  1  0.64504606  0.28872125  0.75161159  1
  Si  Si45  1  0.00120684  0.69963032  0.74850732  1
  Si  Si46  1  0.85004727  0.99056795  0.75103348  1
  Si  Si47  1  0.18995582  0.05745243  0.58318545  1
  Si  Si48  1  0.69591349  0.05133590  0.58509258  1
  Si  Si49  1  0.33338953  0.62016137  0.58329618  1
  Si  Si50  1  0.82883504  0.04859943  0.08224665  1
  Si  Si51  1  0.19627808  0.34182720  0.08521405  1
  Si  Si52  1  0.68982936  0.32493672  0.08268645  1
  Si  Si53  1  0.52224203  0.37910520  0.91295206  1
  Si  Si54  1  0.16140261  0.94868029  0.91506140  1
  Si  Si55  1  0.66279497  0.37549781  0.41507000  1
  Si  Si56  1  0.02330589  0.66486108  0.41252327  1
  S  S57  1  0.14469837  0.00213618  0.25081976  1
  S  S58  1  0.65024856  0.00512246  0.25114252  1
  S  S59  1  0.85474123  0.71188661  0.25047689  1
  S  S60  1  0.99854723  0.28542275  0.25173685  1
  S  S61  1  0.15021296  0.29555586  0.75127186  1
  S  S62  1  0.49730659  0.71040509  0.75174320  1
  S  S63  1  0.35387489  0.99729554  0.75050528  1
  S  S64  1  0.47444502  0.33318708  0.58378563  1
  S  S65  1  0.97455789  0.32966560  0.58380389  1
  S  S66  1  0.83283887  0.61854086  0.58376059  1
  S  S67  1  0.47552442  0.62045412  0.08389358  1
  S  S68  1  0.97494180  0.61534375  0.08451276  1
  S  S69  1  0.33223165  0.04842221  0.08461322  1
  S  S70  1  0.31141021  0.67197740  0.91287441  1
  S  S71  1  0.81195215  0.66476171  0.91761937  1
  S  S72  1  0.01937763  0.37906789  0.91615788  1
  S  S73  1  0.66660517  0.95229548  0.91547472  1
  S  S74  1  0.31189957  0.95829348  0.41741817  1
  S  S75  1  0.81058448  0.95018588  0.41316517  1
  S  S76  1  0.16650922  0.37695283  0.41494750  1
  S  S77  1  0.51986511  0.66059424  0.41640320  1
  O  O78  1  0.10278757  0.03131802  0.30584437  1
  O  O79  1  0.60930437  0.03585912  0.30530293  1
  O  O80  1  0.41937125  0.80211031  0.30853845  1
  O  O81  1  0.91411909  0.79734434  0.30434214  1
  O  O82  1  0.48426584  0.17045599  0.30726568  1
  O  O83  1  0.98519987  0.17134787  0.30522202  1
  O  O84  1  0.10912296  0.18273722  0.80555520  1
  O  O85  1  0.59934851  0.16493808  0.81100303  1
  O  O86  1  0.48058310  0.79133523  0.80569658  1
  O  O87  1  0.98563821  0.79927004  0.80727603  1
  O  O88  1  0.41097608  0.02879147  0.80514599  1
  O  O89  1  0.92093209  0.03623719  0.80873733  1
  O  O90  1  0.39175198  0.96791550  0.69558655  1
  O  O91  1  0.90343921  0.96646032  0.69263908  1
  O  O92  1  0.09266823  0.22049274  0.69693256  1
  O  O93  1  0.57486270  0.19045611  0.69393818  1
  O  O94  1  0.02262849  0.83788521  0.69177532  1
  O  O95  1  0.51024635  0.81705235  0.69658108  1
  O  O96  1  0.40203654  0.83659667  0.19249212  1
  O  O97  1  0.89669569  0.81931266  0.19591506  1
  O  O98  1  0.01208152  0.20281159  0.19673524  1
  O  O99  1  0.52100972  0.20712641  0.19173294  1
  O  O100  1  0.08470468  0.96425859  0.19778091  1
  O  O101  1  0.59264583  0.96509441  0.19680059  1
  O  O102  1  0.43640307  0.36202969  0.63989455  1
  O  O103  1  0.93870678  0.36552125  0.63914774  1
  O  O104  1  0.25189766  0.13322464  0.64240618  1
  O  O105  1  0.75691268  0.14181757  0.64251150  1
  O  O106  1  0.31750251  0.50315918  0.64337303  1
  O  O107  1  0.81961126  0.51125641  0.63803065  1
  O  O108  1  0.43832927  0.51195472  0.13979806  1
  O  O109  1  0.93631148  0.51099796  0.14118946  1
  O  O110  1  0.31945601  0.12955224  0.13876628  1
  O  O111  1  0.81924961  0.13338858  0.14448211  1
  O  O112  1  0.25352410  0.36354289  0.14401120  1
  O  O113  1  0.75068107  0.37207681  0.14270387  1
  O  O114  1  0.23672650  0.30412025  0.02431035  1
  O  O115  1  0.73344055  0.30491164  0.02030216  1
  O  O116  1  0.42083755  0.53640787  0.02990544  1
  O  O117  1  0.92075520  0.53597826  0.02989950  1
  O  O118  1  0.34754737  0.15404350  0.02890976  1
  O  O119  1  0.85629026  0.17338868  0.02345676  1
  O  O120  1  0.23310473  0.16042570  0.51945894  1
  O  O121  1  0.73792705  0.16971211  0.52353796  1
  O  O122  1  0.35568993  0.54299141  0.52316950  1
  O  O123  1  0.84773929  0.54286833  0.52786599  1
  O  O124  1  0.42068808  0.30876760  0.52860814  1
  O  O125  1  0.92132936  0.30624455  0.52899098  1
  O  O126  1  0.27159744  0.70022519  0.96918074  1
  O  O127  1  0.77290365  0.69564563  0.97255084  1
  O  O128  1  0.07727984  0.46458394  0.97119151  1
  O  O129  1  0.58831061  0.47165053  0.97216635  1
  O  O130  1  0.15159677  0.82835893  0.97599487  1
  O  O131  1  0.65466355  0.84970112  0.97086254  1
  O  O132  1  0.27228445  0.84873010  0.47157152  1
  O  O133  1  0.77296465  0.84301321  0.46857906  1
  O  O134  1  0.15145448  0.45217411  0.46918384  1
  O  O135  1  0.65105925  0.47381718  0.47534461  1
  O  O136  1  0.09012205  0.70798800  0.47073306  1
  O  O137  1  0.57716554  0.69026098  0.47054633  1
  O  O138  1  0.07064332  0.64000057  0.35208465  1
  O  O139  1  0.56253784  0.63954532  0.36046689  1
  O  O140  1  0.25414568  0.87675562  0.36288605  1
  O  O141  1  0.75326163  0.86703230  0.35930370  1
  O  O142  1  0.18220804  0.48981972  0.36046452  1
  O  O143  1  0.68430092  0.50402916  0.35809459  1
  O  O144  1  0.06265535  0.48600614  0.86116415  1
  O  O145  1  0.56901815  0.50407736  0.85476223  1
  O  O146  1  0.18399761  0.86250781  0.85917804  1
  O  O147  1  0.68214043  0.87265449  0.86135776  1
  O  O148  1  0.25265797  0.63762523  0.85996940  1
  O  O149  1  0.75486205  0.63051811  0.86371809  1
  O  O150  1  0.01457735  0.84704359  0.40513452  1
  O  O151  1  0.51125449  0.82140099  0.41173307  1
  O  O152  1  0.40084416  0.97312995  0.41099680  1
  O  O153  1  0.90203750  0.97234352  0.40526669  1
  O  O154  1  0.08470504  0.19342441  0.40538480  1
  O  O155  1  0.57660234  0.17279808  0.41004309  1
  O  O156  1  0.01107711  0.20121444  0.91268654  1
  O  O157  1  0.51115451  0.17821277  0.90864640  1
  O  O158  1  0.07639901  0.98046507  0.91144567  1
  O  O159  1  0.58460846  0.97134865  0.90975799  1
  O  O160  1  0.40163238  0.83167819  0.90610055  1
  O  O161  1  0.90141209  0.82867161  0.91204305  1
  O  O162  1  0.48381197  0.17292857  0.58707117  1
  O  O163  1  0.98582236  0.17135318  0.58866589  1
  O  O164  1  0.08947506  0.03220170  0.58916940  1
  O  O165  1  0.59419871  0.02440747  0.58964581  1
  O  O166  1  0.41845287  0.82409908  0.59363982  1
  O  O167  1  0.91281313  0.80184857  0.58726899  1
  O  O168  1  0.48573272  0.80028121  0.08986229  1
  O  O169  1  0.98593006  0.79754687  0.09076171  1
  O  O170  1  0.41239654  0.02512396  0.08838494  1
  O  O171  1  0.91737509  0.01783570  0.09267588  1
  O  O172  1  0.09386020  0.16162158  0.09275803  1
  O  O173  1  0.58929677  0.14722682  0.09013590  1
  O  O174  1  0.34752931  0.16482689  0.74560660  1
  O  O175  1  0.85116872  0.17686322  0.74425913  1
  O  O176  1  0.23958369  0.31104002  0.74464560  1
  O  O177  1  0.74236990  0.31340174  0.74374118  1
  O  O178  1  0.41840722  0.52250584  0.74484117  1
  O  O179  1  0.91414535  0.50886928  0.73787648  1
  O  O180  1  0.34582328  0.51800334  0.24434460  1
  O  O181  1  0.84862026  0.53224819  0.24563828  1
  O  O182  1  0.41037780  0.31329751  0.23857826  1
  O  O183  1  0.91941709  0.31128570  0.24583715  1
  O  O184  1  0.23411458  0.15979084  0.24438616  1
  O  O185  1  0.74011630  0.16933908  0.24434270  1
  O  O186  1  0.32021242  0.51085970  0.92036219  1
  O  O187  1  0.82263182  0.50344828  0.92372088  1
  O  O188  1  0.42507109  0.36262276  0.92561323  1
  O  O189  1  0.93146749  0.37000469  0.92348253  1
  O  O190  1  0.25196435  0.14728658  0.92276104  1
  O  O191  1  0.74740432  0.14154264  0.92068155  1
  O  O192  1  0.32232531  0.14047695  0.42218643  1
  O  O193  1  0.82148111  0.13045407  0.41954834  1
  O  O194  1  0.24636058  0.35112727  0.41897828  1
  O  O195  1  0.75230805  0.35587043  0.42264301  1
  O  O196  1  0.43120009  0.49302518  0.42261074  1
  O  O197  1  0.92568243  0.48846627  0.42310539  1
  O  O198  1  0.17827207  0.51005049  0.07464333  1
  O  O199  1  0.67679202  0.50219407  0.07720105  1
  O  O200  1  0.06591073  0.63547339  0.07921578  1
  O  O201  1  0.56643928  0.64118031  0.07827076  1
  O  O202  1  0.25144508  0.86466411  0.07849081  1
  O  O203  1  0.74325150  0.84850182  0.07378220  1
  O  O204  1  0.17721522  0.85343429  0.57767370  1
  O  O205  1  0.67915282  0.84752749  0.57249981  1
  O  O206  1  0.24348374  0.63753583  0.57206091  1
  O  O207  1  0.75204394  0.63987459  0.57727429  1
  O  O208  1  0.06669610  0.49161935  0.57711373  1
  O  O209  1  0.56535125  0.49732803  0.57821582  1
  O  O210  1  0.15213269  0.83773188  0.25719048  1
  O  O211  1  0.65888081  0.84304326  0.25981410  1
  O  O212  1  0.25175299  0.69123081  0.26154138  1
  O  O213  1  0.76627176  0.69667349  0.25782949  1
  O  O214  1  0.07992771  0.46635449  0.25665527  1
  O  O215  1  0.58609653  0.50141422  0.25806912  1
  O  O216  1  0.15851432  0.47477944  0.76020593  1
  O  O217  1  0.64870331  0.48132068  0.75634114  1
  O  O218  1  0.08812969  0.67483158  0.75801341  1
  O  O219  1  0.57879475  0.69512247  0.75723712  1
  O  O220  1  0.26411859  0.83468046  0.75840170  1
  O  O221  1  0.75323699  0.81972078  0.76205629  1
