# generated using pymatgen
data_CaSiSn3S5O24
_symmetry_space_group_name_H-M   'P 1'
_cell_length_a   8.95932609
_cell_length_b   8.91833185
_cell_length_c   23.04523706
_cell_angle_alpha   90.19847331
_cell_angle_beta   89.98643894
_cell_angle_gamma   120.19316897
_symmetry_Int_Tables_number   1
_chemical_formula_structural   CaSiSn3S5O24
_chemical_formula_sum   'Ca3 Si3 Sn9 S15 O72'
_cell_volume   1591.54481014
_cell_formula_units_Z   3
loop_
 _symmetry_equiv_pos_site_id
 _symmetry_equiv_pos_as_xyz
  1  'x, y, z'
loop_
 _atom_site_type_symbol
 _atom_site_label
 _atom_site_symmetry_multiplicity
 _atom_site_fract_x
 _atom_site_fract_y
 _atom_site_fract_z
 _atom_site_occupancy
  Ca  Ca0  1  0.99652226  0.99491787  0.36099434  1
  Ca  Ca1  1  0.66511108  0.33660226  0.69270047  1
  Ca  Ca2  1  0.66489781  0.32927088  0.18617378  1
  Si  Si3  1  0.67304943  0.63351474  0.58455452  1
  Si  Si4  1  0.04207894  0.37725150  0.91660439  1
  Si  Si5  1  0.33600996  0.95798101  0.91668602  1
  Sn  Sn6  1  0.00741878  0.00609479  0.86082156  1
  Sn  Sn7  1  0.99234615  0.99327213  0.64766315  1
  Sn  Sn8  1  0.00295577  0.00200299  0.14643546  1
  Sn  Sn9  1  0.66908449  0.32628306  0.97588273  1
  Sn  Sn10  1  0.67107295  0.34366506  0.48721303  1
  Sn  Sn11  1  0.32391062  0.66254723  0.01349944  1
  Sn  Sn12  1  0.34006380  0.66749358  0.52445063  1
  Sn  Sn13  1  0.33603482  0.66872155  0.31287321  1
  Sn  Sn14  1  0.32887937  0.67093317  0.81740422  1
  S  S15  1  0.28256757  0.98391881  0.25065114  1
  S  S16  1  0.70000829  0.71617785  0.24994281  1
  S  S17  1  0.01588175  0.29875842  0.25057078  1
  S  S18  1  0.27377343  0.29233794  0.75020582  1
  S  S19  1  0.01716093  0.72612877  0.75222082  1
  S  S20  1  0.70475115  0.97919840  0.75402328  1
  S  S21  1  0.96133207  0.32817945  0.58206278  1
  S  S22  1  0.36640013  0.03888412  0.58213882  1
  S  S23  1  0.96520929  0.63505212  0.08270278  1
  S  S24  1  0.66628694  0.02441475  0.08225512  1
  S  S25  1  0.36727299  0.33707158  0.08198262  1
  S  S26  1  0.62194791  0.66357124  0.91676014  1
  S  S27  1  0.60952449  0.96886275  0.41904391  1
  S  S28  1  0.35203219  0.39011364  0.41740890  1
  S  S29  1  0.04362522  0.64530751  0.41964574  1
  O  O30  1  0.20010013  0.00421390  0.30189812  1
  O  O31  1  0.80046347  0.79671591  0.30199403  1
  O  O32  1  0.99539871  0.19542831  0.30167044  1
  O  O33  1  0.18320128  0.18341517  0.80107364  1
  O  O34  1  0.98951360  0.81094139  0.80305889  1
  O  O35  1  0.81370227  0.00104915  0.80525596  1
  O  O36  1  0.78409959  0.95510341  0.69925056  1
  O  O37  1  0.16462718  0.21480563  0.69549696  1
  O  O38  1  0.04674571  0.83400861  0.69822556  1
  O  O39  1  0.78046845  0.82814887  0.19656172  1
  O  O40  1  0.04865352  0.22147602  0.19609040  1
  O  O41  1  0.17278749  0.95086355  0.19627838  1
  O  O42  1  0.88295692  0.35661172  0.63219587  1
  O  O43  1  0.48179399  0.10840670  0.63099510  1
  O  O44  1  0.63636526  0.50907542  0.63714547  1
  O  O45  1  0.89010137  0.53595027  0.13536221  1
  O  O46  1  0.63484048  0.09487163  0.13489199  1
  O  O47  1  0.46442726  0.35957168  0.13508122  1
  O  O48  1  0.44859832  0.30625700  0.03042473  1
  O  O49  1  0.85205337  0.55490486  0.03112104  1
  O  O50  1  0.69882164  0.13891620  0.03122285  1
  O  O51  1  0.44358470  0.14284427  0.52695491  1
  O  O52  1  0.71482359  0.55857327  0.52284198  1
  O  O53  1  0.84766010  0.28349508  0.52812301  1
  O  O54  1  0.55084353  0.70436539  0.96890793  1
  O  O55  1  0.16935598  0.44860558  0.97322864  1
  O  O56  1  0.30819963  0.84724830  0.97576042  1
  O  O57  1  0.52308855  0.85777602  0.46969254  1
  O  O58  1  0.32367141  0.47434805  0.46829898  1
  O  O59  1  0.15433269  0.67290914  0.47098362  1
  O  O60  1  0.12329604  0.61787714  0.36542269  1
  O  O61  1  0.50098791  0.89203608  0.36469853  1
  O  O62  1  0.38628725  0.50115481  0.36356419  1
  O  O63  1  0.12786388  0.49319246  0.85868323  1
  O  O64  1  0.39186010  0.88328268  0.86108651  1
  O  O65  1  0.51045657  0.62345901  0.86475271  1
  O  O66  1  0.02091611  0.79396545  0.41408579  1
  O  O67  1  0.77908849  0.98830317  0.41333995  1
  O  O68  1  0.20017895  0.22044790  0.41101956  1
  O  O69  1  -0.00105401  0.17873170  0.90945623  1
  O  O70  1  0.15517287  0.95512596  0.90792658  1
  O  O71  1  0.79355153  0.81612963  0.90769446  1
  O  O72  1  0.99448430  0.18227883  0.58844153  1
  O  O73  1  0.20054861  0.03527357  0.59006022  1
  O  O74  1  0.84496203  0.82936004  0.58885901  1
  O  O75  1  0.98495135  0.81480406  0.08770187  1
  O  O76  1  0.82915994  0.01223209  0.08820909  1
  O  O77  1  0.18696002  0.17744116  0.08680690  1
  O  O78  1  0.68228870  0.12795949  0.74861156  1
  O  O79  1  0.43863440  0.30183916  0.74515447  1
  O  O80  1  0.86951435  0.55425957  0.74651589  1
  O  O81  1  0.67156509  0.54330764  0.24163508  1
  O  O82  1  0.87068895  0.32476177  0.24225514  1
  O  O83  1  0.45451795  0.12978812  0.24288875  1
  O  O84  1  0.63852936  0.50962315  0.92682253  1
  O  O85  1  0.86622954  0.38509951  0.92701291  1
  O  O86  1  0.49412255  0.15653940  0.92519654  1
  O  O87  1  0.61849388  0.14004645  0.42603860  1
  O  O88  1  0.51077105  0.37859768  0.42379128  1
  O  O89  1  0.87634713  0.47953604  0.42481983  1
  O  O90  1  0.34865131  0.49258163  0.07439693  1
  O  O91  1  0.13973916  0.65767072  0.07505200  1
  O  O92  1  0.52054632  0.84546887  0.07228537  1
  O  O93  1  0.32347923  0.85557468  0.57150105  1
  O  O94  1  0.50664230  0.66261127  0.57426583  1
  O  O95  1  0.13043598  0.48876530  0.57111599  1
  O  O96  1  0.28892690  0.81674540  0.25464980  1
  O  O97  1  0.52742299  0.71118248  0.25397412  1
  O  O98  1  0.18231530  0.47299342  0.25484062  1
  O  O99  1  0.29119974  0.46681052  0.75532722  1
  O  O100  1  0.18115157  0.72177651  0.75651698  1
  O  O101  1  0.53562353  0.81193576  0.75786287  1
