# generated using pymatgen
data_MgFe8(OF)8
_symmetry_space_group_name_H-M   'P 1'
_cell_length_a   9.73487299
_cell_length_b   9.81720241
_cell_length_c   3.10380294
_cell_angle_alpha   90.25711384
_cell_angle_beta   89.91041911
_cell_angle_gamma   92.62079376
_symmetry_Int_Tables_number   1
_chemical_formula_structural   MgFe8(OF)8
_chemical_formula_sum   'Mg1 Fe8 O8 F8'
_cell_volume   296.31450326
_cell_formula_units_Z   1
loop_
 _symmetry_equiv_pos_site_id
 _symmetry_equiv_pos_as_xyz
  1  'x, y, z'
loop_
 _atom_site_type_symbol
 _atom_site_label
 _atom_site_symmetry_multiplicity
 _atom_site_fract_x
 _atom_site_fract_y
 _atom_site_fract_z
 _atom_site_occupancy
  Mg  Mg0  1  0.25839600  0.99442500  0.02806800  1
  Fe  Fe1  1  0.98809200  0.01166700  0.98466900  1
  Fe  Fe2  1  0.98652200  0.50724300  0.01026700  1
  Fe  Fe3  1  0.20421800  0.28139800  0.51466000  1
  Fe  Fe4  1  0.22154000  0.72694000  0.51908000  1
  Fe  Fe5  1  0.51774500  0.49890600  0.00906900  1
  Fe  Fe6  1  0.54497400  0.98167300  0.01048000  1
  Fe  Fe7  1  0.74917500  0.28728800  0.50304800  1
  Fe  Fe8  1  0.75432600  0.71565700  0.50884200  1
  O  O9  1  0.08359100  0.41545900  0.51035200  1
  O  O10  1  0.14780100  0.91137100  0.52454900  1
  O  O11  1  0.15266700  0.16094800  0.01277800  1
  O  O12  1  0.14635100  0.64789800  0.01768100  1
  O  O13  1  0.58630300  0.40189800  0.50700200  1
  O  O14  1  0.64707300  0.65208600  0.00889200  1
  O  O15  1  0.84117500  0.35639500  0.00393400  1
  O  O16  1  0.90024300  0.60097100  0.51026600  1
  F  F17  1  0.33853700  0.35519100  0.01233600  1
  F  F18  1  0.37658600  0.83448400  0.02030000  1
  F  F19  1  0.40154900  0.05965700  0.51710400  1
  F  F20  1  0.39691200  0.59361000  0.51512300  1
  F  F21  1  0.63771900  0.89247500  0.50846300  1
  F  F22  1  0.64735200  0.16041200  0.00052000  1
  F  F23  1  0.85633500  0.84416100  0.00156900  1
  F  F24  1  0.87871000  0.10778500  0.49094800  1
