# generated using pymatgen
data_Na4LaNb(SiO4)3
_symmetry_space_group_name_H-M   'P 1'
_cell_length_a   9.55629247
_cell_length_b   9.55629211
_cell_length_c   22.17610941
_cell_angle_alpha   90.00000000
_cell_angle_beta   90.00000000
_cell_angle_gamma   120.00000127
_symmetry_Int_Tables_number   1
_chemical_formula_structural   Na4LaNb(SiO4)3
_chemical_formula_sum   'Na24 La6 Nb6 Si18 O72'
_cell_volume   1753.85962808
_cell_formula_units_Z   6
loop_
 _symmetry_equiv_pos_site_id
 _symmetry_equiv_pos_as_xyz
  1  'x, y, z'
loop_
 _atom_site_type_symbol
 _atom_site_label
 _atom_site_symmetry_multiplicity
 _atom_site_fract_x
 _atom_site_fract_y
 _atom_site_fract_z
 _atom_site_occupancy
  Na  Na0  1  0.64416865  0.00983631  0.24482668  1
  Na  Na1  1  0.36566766  0.35583135  0.24482668  1
  Na  Na2  1  0.99016369  0.63433234  0.24482668  1
  Na  Na3  1  0.64416865  0.63433234  0.74482668  1
  Na  Na4  1  0.99016369  0.35583135  0.74482668  1
  Na  Na5  1  0.36566766  0.00983631  0.74482668  1
  Na  Na6  1  0.31083565  0.34316931  0.57815968  1
  Na  Na7  1  0.03233466  0.68916435  0.57815968  1
  Na  Na8  1  0.65683069  0.96766534  0.57815968  1
  Na  Na9  1  0.31083565  0.96766534  0.07815968  1
  Na  Na10  1  0.65683069  0.68916435  0.07815968  1
  Na  Na11  1  0.03233466  0.34316931  0.07815968  1
  Na  Na12  1  0.97750165  0.67650331  0.91149368  1
  Na  Na13  1  0.69900066  0.02249835  0.91149368  1
  Na  Na14  1  0.32349669  0.30099934  0.91149368  1
  Na  Na15  1  0.97750165  0.30099934  0.41149368  1
  Na  Na16  1  0.32349669  0.02249835  0.41149368  1
  Na  Na17  1  0.69900066  0.67650331  0.41149368  1
  Na  Na18  1  -0.00000000  -0.00000000  0.49715506  1
  Na  Na19  1  -0.00000000  -0.00000000  0.99715506  1
  Na  Na20  1  0.66666700  0.33333300  0.83048806  1
  Na  Na21  1  0.66666700  0.33333300  0.33048806  1
  Na  Na22  1  0.33333300  0.66666700  0.16382206  1
  Na  Na23  1  0.33333300  0.66666700  0.66382206  1
  La  La24  1  -0.00000000  -0.00000000  0.34182498  1
  La  La25  1  -0.00000000  -0.00000000  0.84182498  1
  La  La26  1  0.66666700  0.33333300  0.67515798  1
  La  La27  1  0.66666700  0.33333300  0.17515798  1
  La  La28  1  0.33333300  0.66666700  0.00849198  1
  La  La29  1  0.33333300  0.66666700  0.50849198  1
  Nb  Nb30  1  -0.00000000  -0.00000000  0.64847596  1
  Nb  Nb31  1  -0.00000000  -0.00000000  0.14847596  1
  Nb  Nb32  1  0.66666700  0.33333300  0.98180896  1
  Nb  Nb33  1  0.66666700  0.33333300  0.48180896  1
  Nb  Nb34  1  0.33333300  0.66666700  0.31514296  1
  Nb  Nb35  1  0.33333300  0.66666700  0.81514296  1
  Si  Si36  1  0.29731199  0.98294966  0.25130662  1
  Si  Si37  1  0.68563767  0.70268801  0.25130662  1
  Si  Si38  1  0.01705034  0.31436233  0.25130662  1
  Si  Si39  1  0.29731199  0.31436233  0.75130662  1
  Si  Si40  1  0.01705034  0.70268801  0.75130662  1
  Si  Si41  1  0.68563767  0.98294966  0.75130662  1
  Si  Si42  1  0.96397899  0.31628266  0.58463962  1
  Si  Si43  1  0.35230467  0.03602101  0.58463962  1
  Si  Si44  1  0.68371734  0.64769533  0.58463962  1
  Si  Si45  1  0.96397899  0.64769533  0.08463962  1
  Si  Si46  1  0.68371734  0.03602101  0.08463962  1
  Si  Si47  1  0.35230467  0.31628266  0.08463962  1
  Si  Si48  1  0.63064499  0.64961666  0.91797362  1
  Si  Si49  1  0.01897067  0.36935501  0.91797362  1
  Si  Si50  1  0.35038334  0.98102933  0.91797362  1
  Si  Si51  1  0.63064499  0.98102933  0.41797362  1
  Si  Si52  1  0.35038334  0.36935501  0.41797362  1
  Si  Si53  1  0.01897067  0.64961666  0.41797362  1
  O  O54  1  0.23360596  0.00934067  0.31467584  1
  O  O55  1  0.77573472  0.76639404  0.31467584  1
  O  O56  1  0.99065933  0.22426528  0.31467584  1
  O  O57  1  0.23360596  0.22426528  0.81467584  1
  O  O58  1  0.99065933  0.76639404  0.81467584  1
  O  O59  1  0.77573471  0.00934067  0.81467584  1
  O  O60  1  0.80861893  0.97068321  0.69655586  1
  O  O61  1  0.16206428  0.19138107  0.69655586  1
  O  O62  1  0.02931679  0.83793572  0.69655586  1
  O  O63  1  0.80861893  0.83793572  0.19655586  1
  O  O64  1  0.02931679  0.19138107  0.19655586  1
  O  O65  1  0.16206428  0.97068321  0.19655586  1
  O  O66  1  0.90027296  0.34267367  0.64800884  1
  O  O67  1  0.44240172  0.09972704  0.64800884  1
  O  O68  1  0.65732633  0.55759828  0.64800884  1
  O  O69  1  0.90027296  0.55759828  0.14800884  1
  O  O70  1  0.65732633  0.09972704  0.14800884  1
  O  O71  1  0.44240171  0.34267367  0.14800884  1
  O  O72  1  0.47528593  0.30401621  0.02988886  1
  O  O73  1  0.82873128  0.52471407  0.02988886  1
  O  O74  1  0.69598379  0.17126872  0.02988886  1
  O  O75  1  0.47528593  0.17126872  0.52988886  1
  O  O76  1  0.69598379  0.52471407  0.52988886  1
  O  O77  1  0.82873128  0.30401621  0.52988886  1
  O  O78  1  0.56693896  0.67600767  0.98134284  1
  O  O79  1  0.10906772  0.43306104  0.98134284  1
  O  O80  1  0.32399233  0.89093228  0.98134284  1
  O  O81  1  0.56693896  0.89093228  0.48134284  1
  O  O82  1  0.32399233  0.43306104  0.48134284  1
  O  O83  1  0.10906771  0.67600767  0.48134284  1
  O  O84  1  0.14195193  0.63735021  0.36322286  1
  O  O85  1  0.49539728  0.85804807  0.36322286  1
  O  O86  1  0.36264979  0.50460272  0.36322286  1
  O  O87  1  0.14195193  0.50460272  0.86322286  1
  O  O88  1  0.36264979  0.85804807  0.86322286  1
  O  O89  1  0.49539728  0.63735021  0.86322286  1
  O  O90  1  0.98263135  0.79649586  0.41076278  1
  O  O91  1  0.81386451  0.01736865  0.41076278  1
  O  O92  1  0.20350414  0.18613549  0.41076278  1
  O  O93  1  0.98263135  0.18613549  0.91076278  1
  O  O94  1  0.20350414  0.01736865  0.91076278  1
  O  O95  1  0.81386451  0.79649586  0.91076278  1
  O  O96  1  0.95328654  0.13607289  0.58605355  1
  O  O97  1  0.18278635  0.04671346  0.58605355  1
  O  O98  1  0.86392711  0.81721365  0.58605355  1
  O  O99  1  0.95328654  0.81721365  0.08605355  1
  O  O100  1  0.86392711  0.04671346  0.08605355  1
  O  O101  1  0.18278635  0.13607289  0.08605355  1
  O  O102  1  0.64929835  0.12982886  0.74409578  1
  O  O103  1  0.48053151  0.35070165  0.74409578  1
  O  O104  1  0.87017114  0.51946849  0.74409578  1
  O  O105  1  0.64929835  0.51946849  0.24409578  1
  O  O106  1  0.87017114  0.35070165  0.24409578  1
  O  O107  1  0.48053151  0.12982886  0.24409578  1
  O  O108  1  0.61995354  0.46940589  0.91938655  1
  O  O109  1  0.84945335  0.38004646  0.91938655  1
  O  O110  1  0.53059411  0.15054665  0.91938655  1
  O  O111  1  0.61995354  0.15054665  0.41938655  1
  O  O112  1  0.53059411  0.38004646  0.41938655  1
  O  O113  1  0.84945335  0.46940589  0.41938655  1
  O  O114  1  0.31596435  0.46316286  0.07742978  1
  O  O115  1  0.14719751  0.68403565  0.07742978  1
  O  O116  1  0.53683714  0.85280249  0.07742978  1
  O  O117  1  0.31596435  0.85280249  0.57742978  1
  O  O118  1  0.53683714  0.68403565  0.57742978  1
  O  O119  1  0.14719751  0.46316286  0.57742978  1
  O  O120  1  0.28661954  0.80273989  0.25272055  1
  O  O121  1  0.51611935  0.71338046  0.25272055  1
  O  O122  1  0.19726011  0.48388065  0.25272055  1
  O  O123  1  0.28661954  0.48388065  0.75272055  1
  O  O124  1  0.19726011  0.71338046  0.75272055  1
  O  O125  1  0.51611935  0.80273989  0.75272055  1
