# generated using pymatgen
data_MgFe6(OF)6
_symmetry_space_group_name_H-M   'P 1'
_cell_length_a   5.15718324
_cell_length_b   7.79178655
_cell_length_c   5.78894606
_cell_angle_alpha   96.46468550
_cell_angle_beta   95.97753678
_cell_angle_gamma   84.62056447
_symmetry_Int_Tables_number   1
_chemical_formula_structural   MgFe6(OF)6
_chemical_formula_sum   'Mg1 Fe6 O6 F6'
_cell_volume   229.09195473
_cell_formula_units_Z   1
loop_
 _symmetry_equiv_pos_site_id
 _symmetry_equiv_pos_as_xyz
  1  'x, y, z'
loop_
 _atom_site_type_symbol
 _atom_site_label
 _atom_site_symmetry_multiplicity
 _atom_site_fract_x
 _atom_site_fract_y
 _atom_site_fract_z
 _atom_site_occupancy
  Mg  Mg0  1  0.02498300  0.81746300  0.34383800  1
  Fe  Fe1  1  0.53984200  0.67414000  0.10842900  1
  Fe  Fe2  1  0.48510400  0.02778800  0.48947300  1
  Fe  Fe3  1  0.49067900  0.32494400  0.84084100  1
  Fe  Fe4  1  0.96785000  0.62394300  0.75424000  1
  Fe  Fe5  1  0.98800100  0.33411700  0.32664100  1
  Fe  Fe6  1  0.00578200  0.00279600  0.95485500  1
  O  O7  1  0.83468200  0.77236600  0.02070300  1
  O  O8  1  0.67611400  0.09806700  0.78257000  1
  O  O9  1  0.69864600  0.42658400  0.13010200  1
  O  O10  1  0.33393600  0.56401500  0.85654000  1
  O  O11  1  0.28769400  0.24646400  0.52605600  1
  O  O12  1  0.32284400  0.89323300  0.20185100  1
  F  F13  1  0.79001200  0.40854000  0.61422400  1
  F  F14  1  0.82921700  0.08231000  0.31416800  1
  F  F15  1  0.71012600  0.77021400  0.48843800  1
  F  F16  1  0.19281000  0.24307400  0.03474800  1
  F  F17  1  0.13334800  0.57026000  0.38490300  1
  F  F18  1  0.20221900  0.91134700  0.64881400  1
