# generated using pymatgen
data_Na8CaSi4Ge3(PO12)2
_symmetry_space_group_name_H-M   'P 1'
_cell_length_a   8.94837020
_cell_length_b   9.00012747
_cell_length_c   21.82498877
_cell_angle_alpha   89.86674493
_cell_angle_beta   89.84434476
_cell_angle_gamma   120.10316209
_symmetry_Int_Tables_number   1
_chemical_formula_structural   Na8CaSi4Ge3(PO12)2
_chemical_formula_sum   'Na24 Ca3 Si12 Ge9 P6 O72'
_cell_volume   1520.61514939
_cell_formula_units_Z   3
loop_
 _symmetry_equiv_pos_site_id
 _symmetry_equiv_pos_as_xyz
  1  'x, y, z'
loop_
 _atom_site_type_symbol
 _atom_site_label
 _atom_site_symmetry_multiplicity
 _atom_site_fract_x
 _atom_site_fract_y
 _atom_site_fract_z
 _atom_site_occupancy
  Na  Na0  1  0.64274714  0.00982356  0.24200123  1
  Na  Na1  1  0.36755124  0.35653937  0.24296501  1
  Na  Na2  1  0.99036377  0.63182754  0.24297121  1
  Na  Na3  1  0.62590775  0.61372032  0.74773085  1
  Na  Na4  1  0.98584001  0.37329037  0.75237500  1
  Na  Na5  1  0.38701824  0.00672145  0.74604755  1
  Na  Na6  1  0.31033632  0.33718222  0.58675509  1
  Na  Na7  1  0.02697062  0.69260298  0.58350448  1
  Na  Na8  1  0.66355223  0.97640890  0.59101589  1
  Na  Na9  1  0.31400224  0.97225393  0.08226777  1
  Na  Na10  1  0.65763535  0.68632056  0.08215861  1
  Na  Na11  1  0.02722938  0.34170758  0.08216353  1
  Na  Na12  1  0.96308832  0.66653001  0.91656163  1
  Na  Na13  1  0.70368697  0.03842499  0.91628318  1
  Na  Na14  1  0.33429160  0.29840753  0.91772134  1
  Na  Na15  1  0.96436655  0.28592195  0.41585743  1
  Na  Na16  1  0.31983446  0.03800526  0.41818105  1
  Na  Na17  1  0.71343025  0.67554336  0.41444798  1
  Na  Na18  1  0.00438486  0.00100621  0.50075629  1
  Na  Na19  1  0.99993964  0.00060668  0.99876846  1
  Na  Na20  1  0.67018601  0.33210232  0.83252601  1
  Na  Na21  1  0.66688784  0.33353828  0.33024706  1
  Na  Na22  1  0.33316952  0.66663287  0.16010439  1
  Na  Na23  1  0.34033103  0.67274039  0.66806633  1
  Ca  Ca24  1  0.00242119  0.00003771  0.35585351  1
  Ca  Ca25  1  0.66505685  0.33328635  0.68473483  1
  Ca  Ca26  1  0.66646175  0.33301774  0.17371161  1
  Si  Si27  1  0.01330239  0.72102712  0.75547693  1
  Si  Si28  1  0.71431074  0.98809973  0.75406872  1
  Si  Si29  1  0.36866086  0.03310272  0.58276813  1
  Si  Si30  1  0.66319634  0.63675941  0.58337781  1
  Si  Si31  1  0.97117504  0.63384597  0.08124766  1
  Si  Si32  1  0.66203645  0.02847762  0.08106001  1
  Si  Si33  1  0.36618036  0.33817511  0.08152340  1
  Si  Si34  1  0.61917490  0.66295372  0.91472198  1
  Si  Si35  1  0.04498965  0.38078494  0.91450788  1
  Si  Si36  1  0.33752564  0.96102470  0.91550172  1
  Si  Si37  1  0.34741253  0.39167219  0.41981862  1
  Si  Si38  1  0.03972750  0.64886339  0.41946958  1
  Ge  Ge39  1  0.99642314  0.99710500  0.85697606  1
  Ge  Ge40  1  0.99836197  0.98315877  0.64937610  1
  Ge  Ge41  1  0.99901101  0.99861712  0.14238897  1
  Ge  Ge42  1  0.66730845  0.33396046  0.98120188  1
  Ge  Ge43  1  0.66448067  0.34684206  0.48265290  1
  Ge  Ge44  1  0.33246101  0.66681653  0.01387532  1
  Ge  Ge45  1  0.33367174  0.66993523  0.51904623  1
  Ge  Ge46  1  0.32809630  0.65861521  0.31572227  1
  Ge  Ge47  1  0.33767361  0.67770316  0.81550619  1
  P  P48  1  0.29395404  0.98722961  0.25163202  1
  P  P49  1  0.69529386  0.70809705  0.25158348  1
  P  P50  1  0.01122900  0.30326084  0.25124974  1
  P  P51  1  0.26982446  0.28142827  0.75238832  1
  P  P52  1  0.96689247  0.33457698  0.58090680  1
  P  P53  1  0.60565297  0.95641830  0.41762927  1
  O  O54  1  0.21956833  0.00774610  0.31124310  1
  O  O55  1  0.79062201  0.78338456  0.31072512  1
  O  O56  1  0.99185006  0.20898290  0.31085028  1
  O  O57  1  0.18549790  0.17408033  0.81133291  1
  O  O58  1  0.98939709  0.81763846  0.81482164  1
  O  O59  1  0.83306340  0.01878276  0.81486895  1
  O  O60  1  0.80618615  0.96354240  0.69053128  1
  O  O61  1  0.16313871  0.19317785  0.69240972  1
  O  O62  1  0.04230326  0.83172317  0.69058113  1
  O  O63  1  0.79169332  0.82555749  0.19307878  1
  O  O64  1  0.03228043  0.20795065  0.19314469  1
  O  O65  1  0.17640341  0.96501075  0.19350351  1
  O  O66  1  0.90464879  0.37726481  0.63948386  1
  O  O67  1  0.48179642  0.08575637  0.64356268  1
  O  O68  1  0.60568621  0.52205722  0.64401980  1
  O  O69  1  0.92210203  0.53146056  0.14469105  1
  O  O70  1  0.60759689  0.07812168  0.14406600  1
  O  O71  1  0.46958333  0.39175301  0.14456310  1
  O  O72  1  0.46442262  0.29206009  0.02570492  1
  O  O73  1  0.82751243  0.53602729  0.02540422  1
  O  O74  1  0.70950909  0.17341445  0.02537908  1
  O  O75  1  0.46890714  0.17452391  0.52473247  1
  O  O76  1  0.71078201  0.54390729  0.52558154  1
  O  O77  1  0.83930411  0.30049624  0.52562961  1
  O  O78  1  0.53160917  0.70302752  0.97287147  1
  O  O79  1  0.16989622  0.46785054  0.97313023  1
  O  O80  1  0.29488323  0.83055131  0.97291859  1
  O  O81  1  0.51938503  0.84736981  0.47513503  1
  O  O82  1  0.32787003  0.49115108  0.47822390  1
  O  O83  1  0.16286971  0.67785968  0.47757431  1
  O  O84  1  0.12805443  0.61995958  0.35571806  1
  O  O85  1  0.49671911  0.86930216  0.35788957  1
  O  O86  1  0.37943260  0.50771338  0.35561556  1
  O  O87  1  0.13158068  0.50880953  0.85416733  1
  O  O88  1  0.38369528  0.88017493  0.85508470  1
  O  O89  1  0.49090508  0.61974597  0.85452715  1
  O  O90  1  0.01001174  0.81066355  0.42151416  1
  O  O91  1  0.78671957  0.97932401  0.41749122  1
  O  O92  1  0.18123262  0.20197817  0.42262100  1
  O  O93  1  0.02302421  0.18546679  0.91158747  1
  O  O94  1  0.16601762  0.98704087  0.91176773  1
  O  O95  1  0.81640079  0.83641324  0.91290203  1
  O  O96  1  0.98123872  0.16909825  0.58444599  1
  O  O97  1  0.17895027  0.02744004  0.58885394  1
  O  O98  1  0.84576761  0.82633080  0.58827807  1
  O  O99  1  0.98173756  0.82479863  0.08827433  1
  O  O100  1  0.84318350  0.01787603  0.08841853  1
  O  O101  1  0.17500603  0.15601628  0.08876284  1
  O  O102  1  0.68910195  0.15282042  0.75397701  1
  O  O103  1  0.45009488  0.30174109  0.75168575  1
  O  O104  1  0.84396022  0.53339487  0.75512641  1
  O  O105  1  0.67027102  0.52758496  0.24660565  1
  O  O106  1  0.85526328  0.32910117  0.24663288  1
  O  O107  1  0.47537440  0.14397092  0.24656731  1
  O  O108  1  0.63954810  0.49029282  0.92234433  1
  O  O109  1  0.85113447  0.36161348  0.92217945  1
  O  O110  1  0.51220696  0.15310328  0.92333867  1
  O  O111  1  0.61764704  0.13529900  0.42020313  1
  O  O112  1  0.52656439  0.37693378  0.42236711  1
  O  O113  1  0.84858849  0.46605199  0.42363525  1
  O  O114  1  0.33839383  0.50245677  0.06865198  1
  O  O115  1  0.16388793  0.66045546  0.06861270  1
  O  O116  1  0.49711467  0.83620743  0.06830519  1
  O  O117  1  0.33158387  0.83506475  0.57183201  1
  O  O118  1  0.50048743  0.67249924  0.57245467  1
  O  O119  1  0.15386721  0.49358414  0.57330960  1
  O  O120  1  0.29975921  0.81296048  0.25312153  1
  O  O121  1  0.51541482  0.70472869  0.25244759  1
  O  O122  1  0.18749979  0.48338021  0.25164247  1
  O  O123  1  0.28051089  0.45991016  0.75295731  1
  O  O124  1  0.19416006  0.70881554  0.75670688  1
  O  O125  1  0.52280088  0.80489520  0.75615716  1
