# generated using pymatgen
data_Na6Si7Sn4Ge4S5O48
_symmetry_space_group_name_H-M   'P 1'
_cell_length_a   17.46964382
_cell_length_b   8.75565026
_cell_length_c   22.39535485
_cell_angle_alpha   89.84978121
_cell_angle_beta   89.25594709
_cell_angle_gamma   119.97038522
_symmetry_Int_Tables_number   1
_chemical_formula_structural   Na6Si7Sn4Ge4S5O48
_chemical_formula_sum   'Na18 Si21 Sn12 Ge12 S15 O144'
_cell_volume   2967.08456796
_cell_formula_units_Z   3
loop_
 _symmetry_equiv_pos_site_id
 _symmetry_equiv_pos_as_xyz
  1  'x, y, z'
loop_
 _atom_site_type_symbol
 _atom_site_label
 _atom_site_symmetry_multiplicity
 _atom_site_fract_x
 _atom_site_fract_y
 _atom_site_fract_z
 _atom_site_occupancy
  Na  Na0  1  0.99930318  0.63032162  0.25184713  1
  Na  Na1  1  0.49870234  0.63750132  0.24530791  1
  Na  Na2  1  0.99887988  0.35856163  0.75341188  1
  Na  Na3  1  0.49866426  0.36873525  0.75480758  1
  Na  Na4  1  0.66668950  0.31424914  0.91687646  1
  Na  Na5  1  0.16779345  0.02300428  0.41249146  1
  Na  Na6  1  0.99794583  0.98929071  0.50516185  1
  Na  Na7  1  0.49714443  0.99371322  0.49704451  1
  Na  Na8  1  0.99825728  0.00076439  0.99859749  1
  Na  Na9  1  0.49753425  0.00153632  0.00701631  1
  Na  Na10  1  0.33049838  0.33285668  0.83465011  1
  Na  Na11  1  0.83218048  0.33435957  0.83445901  1
  Na  Na12  1  0.33367981  0.33435841  0.32991643  1
  Na  Na13  1  0.83087887  0.32716164  0.33030304  1
  Na  Na14  1  0.17684825  0.67500256  0.16768785  1
  Na  Na15  1  0.66991461  0.66724817  0.16168831  1
  Na  Na16  1  0.17525538  0.67770080  0.66521961  1
  Na  Na17  1  0.67447682  0.67669427  0.66936482  1
  Si  Si18  1  0.14775684  0.01033851  0.24840839  1
  Si  Si19  1  0.63428133  0.00240723  0.25099802  1
  Si  Si20  1  0.35866099  0.71687395  0.24611945  1
  Si  Si21  1  0.85359018  0.71133976  0.24848544  1
  Si  Si22  1  0.99953275  0.28543840  0.24906072  1
  Si  Si23  1  0.13380880  0.26725382  0.75148966  1
  Si  Si24  1  0.64613637  0.28667313  0.74990418  1
  Si  Si25  1  0.49952115  0.71314361  0.74909689  1
  Si  Si26  1  0.35229053  0.99456764  0.74917088  1
  Si  Si27  1  0.85891450  0.99919274  0.74650668  1
  Si  Si28  1  0.18283169  0.03801548  0.58388187  1
  Si  Si29  1  0.83166969  0.63430656  0.58222570  1
  Si  Si30  1  0.48531450  0.62655390  0.08056344  1
  Si  Si31  1  0.33056598  0.02883017  0.08270700  1
  Si  Si32  1  0.68343522  0.32534045  0.08449548  1
  Si  Si33  1  0.81359277  0.68059215  0.91704843  1
  Si  Si34  1  0.02558432  0.38551887  0.92050374  1
  Si  Si35  1  0.51688618  0.37257638  0.91640118  1
  Si  Si36  1  0.31827893  0.95601419  0.41376654  1
  Si  Si37  1  0.01754934  0.65942928  0.41749970  1
  Si  Si38  1  0.52608528  0.66931339  0.42022934  1
  Sn  Sn39  1  0.99782717  0.99335336  0.35036038  1
  Sn  Sn40  1  0.49705482  0.99921516  0.85233969  1
  Sn  Sn41  1  0.32302911  0.32461937  0.69012726  1
  Sn  Sn42  1  0.82803864  0.33274014  0.68444819  1
  Sn  Sn43  1  0.33394080  0.32902325  0.18254089  1
  Sn  Sn44  1  0.82341935  0.32077348  0.19016242  1
  Sn  Sn45  1  0.83430721  0.34032150  0.98230795  1
  Sn  Sn46  1  0.33445627  0.32895041  0.48134811  1
  Sn  Sn47  1  0.16760059  0.67333497  0.30834392  1
  Sn  Sn48  1  0.66672600  0.67300661  0.31101396  1
  Sn  Sn49  1  0.16862583  0.66250875  0.81351493  1
  Sn  Sn50  1  0.66738073  0.66350156  0.80995923  1
  Ge  Ge51  1  0.49199008  0.95507725  0.35406800  1
  Ge  Ge52  1  0.99183465  0.03105260  0.85764998  1
  Ge  Ge53  1  0.99813861  0.99155933  0.64691869  1
  Ge  Ge54  1  0.49806697  0.99695202  0.66210169  1
  Ge  Ge55  1  0.99921401  0.00396992  0.15838155  1
  Ge  Ge56  1  0.49642747  0.97755306  0.13905174  1
  Ge  Ge57  1  0.35256806  0.33544359  0.98794626  1
  Ge  Ge58  1  0.83964226  0.36274560  0.48323714  1
  Ge  Ge59  1  0.16821883  0.66959164  0.01860350  1
  Ge  Ge60  1  0.66185509  0.62827770  0.01992227  1
  Ge  Ge61  1  0.17389351  0.70989092  0.51440057  1
  Ge  Ge62  1  0.66804182  0.66544201  0.51788882  1
  S  S63  1  0.49988151  0.27837956  0.25125821  1
  S  S64  1  0.00020349  0.71777459  0.75031437  1
  S  S65  1  0.48468748  0.33132312  0.58403132  1
  S  S66  1  0.98124733  0.33808322  0.57982400  1
  S  S67  1  0.68618109  0.03975151  0.57922415  1
  S  S68  1  0.33363288  0.63490678  0.58243705  1
  S  S69  1  0.98468927  0.63821298  0.08421989  1
  S  S70  1  0.83665123  0.03652032  0.08360914  1
  S  S71  1  0.18460369  0.33032190  0.07967113  1
  S  S72  1  0.31175232  0.65807252  0.92059187  1
  S  S73  1  0.16762149  0.96047761  0.91847163  1
  S  S74  1  0.66560917  0.95259547  0.91818775  1
  S  S75  1  0.81222390  0.96492236  0.42125527  1
  S  S76  1  0.16486798  0.38194391  0.42021386  1
  S  S77  1  0.66880307  0.37702534  0.41969967  1
  O  O78  1  0.11173550  0.04170827  0.31306164  1
  O  O79  1  0.59350227  0.03644910  0.31335776  1
  O  O80  1  0.41631001  0.78489564  0.30827734  1
  O  O81  1  0.91142051  0.78077895  0.30894235  1
  O  O82  1  0.48757617  0.17839012  0.30683878  1
  O  O83  1  0.97750395  0.17059600  0.31062503  1
  O  O84  1  0.09046404  0.14636035  0.81225581  1
  O  O85  1  0.60857860  0.17868830  0.81230197  1
  O  O86  1  0.47743201  0.78630738  0.80915999  1
  O  O87  1  0.98505758  0.79132742  0.80389748  1
  O  O88  1  0.41231403  0.04021323  0.80772756  1
  O  O89  1  0.91856413  0.04997949  0.80718181  1
  O  O90  1  0.39474160  0.95687872  0.68832108  1
  O  O91  1  0.90281028  0.96308122  0.68760664  1
  O  O92  1  0.07479527  0.18628594  0.69127010  1
  O  O93  1  0.58090692  0.19709727  0.69118701  1
  O  O94  1  0.01413675  0.81754117  0.69370332  1
  O  O95  1  0.51948558  0.83407591  0.68738953  1
  O  O96  1  0.40355197  0.84365386  0.18867628  1
  O  O97  1  0.89743896  0.83623624  0.18889767  1
  O  O98  1  0.01913237  0.20420861  0.18866672  1
  O  O99  1  0.51257347  0.20639281  0.19628565  1
  O  O100  1  0.07936218  0.96494924  0.19186999  1
  O  O101  1  0.57533615  0.96326155  0.19187808  1
  O  O102  1  0.44604095  0.36513024  0.63799930  1
  O  O103  1  0.94389679  0.37083642  0.63606687  1
  O  O104  1  0.25048611  0.12344942  0.63832722  1
  O  O105  1  0.73954567  0.11031044  0.63410073  1
  O  O106  1  0.31942910  0.52541341  0.63674718  1
  O  O107  1  0.80919649  0.50455756  0.63969426  1
  O  O108  1  0.44780636  0.50813432  0.14192343  1
  O  O109  1  0.94636691  0.52807273  0.13851387  1
  O  O110  1  0.30406138  0.10729377  0.13971974  1
  O  O111  1  0.82330069  0.11925993  0.13754013  1
  O  O112  1  0.23647257  0.36513159  0.13512811  1
  O  O113  1  0.75236962  0.37657362  0.13840324  1
  O  O114  1  0.22835818  0.30457030  0.02650827  1
  O  O115  1  0.72151420  0.28425111  0.02211675  1
  O  O116  1  0.41533781  0.53447976  0.02517638  1
  O  O117  1  0.92962358  0.55779354  0.03055752  1
  O  O118  1  0.34804698  0.15325193  0.02269374  1
  O  O119  1  0.85381358  0.15054263  0.02922105  1
  O  O120  1  0.22160646  0.15338286  0.52162320  1
  O  O121  1  0.73212745  0.15691000  0.52568761  1
  O  O122  1  0.35015244  0.55423376  0.52856215  1
  O  O123  1  0.85077386  0.54288491  0.52384416  1
  O  O124  1  0.42955339  0.30200159  0.53038252  1
  O  O125  1  0.92026259  0.30635468  0.52830702  1
  O  O126  1  0.26983289  0.69397810  0.97294271  1
  O  O127  1  0.76581823  0.71071836  0.97646960  1
  O  O128  1  0.09070070  0.48601115  0.97643634  1
  O  O129  1  0.58421234  0.46114735  0.97206127  1
  O  O130  1  0.15358205  0.84323914  0.97176779  1
  O  O131  1  0.65513343  0.84758182  0.97206846  1
  O  O132  1  0.27654376  0.83446430  0.47584943  1
  O  O133  1  0.77080305  0.84694882  0.47438956  1
  O  O134  1  0.15408161  0.46674810  0.47423956  1
  O  O135  1  0.65601413  0.46422120  0.47357845  1
  O  O136  1  0.08482494  0.70243346  0.47455675  1
  O  O137  1  0.59037911  0.69760089  0.47753635  1
  O  O138  1  0.05610159  0.62581693  0.35616181  1
  O  O139  1  0.56230992  0.62297661  0.35957044  1
  O  O140  1  0.24790808  0.87239147  0.36075993  1
  O  O141  1  0.76168942  0.88963766  0.36603409  1
  O  O142  1  0.17823522  0.48043234  0.36430501  1
  O  O143  1  0.68963306  0.48902624  0.36525007  1
  O  O144  1  0.05995645  0.49663443  0.85751013  1
  O  O145  1  0.55449437  0.48286175  0.85419478  1
  O  O146  1  0.18682912  0.88612787  0.86314867  1
  O  O147  1  0.67886460  0.88098255  0.86213289  1
  O  O148  1  0.26212561  0.63674353  0.86430561  1
  O  O149  1  0.74985252  0.62546114  0.85954647  1
  O  O150  1  0.01155285  0.84247700  0.41678062  1
  O  O151  1  0.52002687  0.84956159  0.41482750  1
  O  O152  1  0.41777634  0.98413350  0.40582079  1
  O  O153  1  0.90125822  0.98437287  0.41777017  1
  O  O154  1  0.08573956  0.20067828  0.41843568  1
  O  O155  1  0.58910765  0.20598586  0.41568481  1
  O  O156  1  0.02043571  0.19339694  0.91573930  1
  O  O157  1  0.51089596  0.17792037  0.91578348  1
  O  O158  1  0.08555040  0.96592717  0.91350025  1
  O  O159  1  0.58588461  0.97448155  0.91599757  1
  O  O160  1  0.40045311  0.81774281  0.91696016  1
  O  O161  1  0.91445543  0.85203191  0.90710743  1
  O  O162  1  0.49382591  0.17214952  0.58895847  1
  O  O163  1  0.98648477  0.17599960  0.58431232  1
  O  O164  1  0.08564401  0.01875663  0.59365203  1
  O  O165  1  0.59875030  0.02595755  0.58443983  1
  O  O166  1  0.41354993  0.81186012  0.58715256  1
  O  O167  1  0.91978972  0.82604414  0.59011351  1
  O  O168  1  0.49043046  0.81549099  0.08523068  1
  O  O169  1  0.99358065  0.81531255  0.08888184  1
  O  O170  1  0.41892758  0.01626683  0.08955840  1
  O  O171  1  0.91837340  0.02199405  0.08812683  1
  O  O172  1  0.09539209  0.16901802  0.08570752  1
  O  O173  1  0.58621432  0.15690919  0.09418981  1
  O  O174  1  0.35061567  0.17655618  0.74324354  1
  O  O175  1  0.85686140  0.18531736  0.73843334  1
  O  O176  1  0.23348655  0.30073558  0.75001302  1
  O  O177  1  0.74273390  0.30446325  0.74703738  1
  O  O178  1  0.41474963  0.51657034  0.73983334  1
  O  O179  1  0.92313705  0.53283109  0.74420211  1
  O  O180  1  0.35385316  0.52501450  0.24111986  1
  O  O181  1  0.85097198  0.52483147  0.24349599  1
  O  O182  1  0.42187403  0.30816675  0.24878047  1
  O  O183  1  0.91483649  0.31353537  0.24093638  1
  O  O184  1  0.24399270  0.18361932  0.24476316  1
  O  O185  1  0.73446328  0.16687981  0.25098162  1
  O  O186  1  0.31583147  0.49541525  0.92672584  1
  O  O187  1  0.82088109  0.50044876  0.92359896  1
  O  O188  1  0.41882512  0.35662842  0.92347043  1
  O  O189  1  0.92552367  0.35216996  0.92631553  1
  O  O190  1  0.24568699  0.13799392  0.92519411  1
  O  O191  1  0.74515502  0.13543811  0.92047268  1
  O  O192  1  0.32095356  0.14515196  0.42226852  1
  O  O193  1  0.81761492  0.13888357  0.42923245  1
  O  O194  1  0.24465222  0.35853614  0.42292155  1
  O  O195  1  0.74918343  0.35520897  0.42692720  1
  O  O196  1  0.42630076  0.50161293  0.42699110  1
  O  O197  1  0.92012037  0.47703776  0.42562727  1
  O  O198  1  0.17462698  0.49153911  0.07393805  1
  O  O199  1  0.68021153  0.50896094  0.07737907  1
  O  O200  1  0.07302258  0.65143206  0.07583590  1
  O  O201  1  0.58457101  0.65410088  0.06847245  1
  O  O202  1  0.24101641  0.83133655  0.07004144  1
  O  O203  1  0.75609050  0.86493317  0.07782730  1
  O  O204  1  0.17504753  0.84034410  0.57659121  1
  O  O205  1  0.67773188  0.86191479  0.57347741  1
  O  O206  1  0.25038944  0.64190657  0.57648064  1
  O  O207  1  0.74181936  0.65051567  0.57017289  1
  O  O208  1  0.06996447  0.49521505  0.57242329  1
  O  O209  1  0.57330215  0.49472743  0.57577386  1
  O  O210  1  0.14837453  0.82557503  0.24904683  1
  O  O211  1  0.64231813  0.82134050  0.25471544  1
  O  O212  1  0.26142294  0.69240050  0.25250822  1
  O  O213  1  0.75580909  0.68988113  0.25325680  1
  O  O214  1  0.08583999  0.48040864  0.25253913  1
  O  O215  1  0.58032366  0.46321056  0.25477586  1
  O  O216  1  0.14246046  0.46477643  0.75463601  1
  O  O217  1  0.64906991  0.47418806  0.74885570  1
  O  O218  1  0.08043972  0.69685825  0.75294869  1
  O  O219  1  0.58635927  0.69234520  0.75196201  1
  O  O220  1  0.25460936  0.82089785  0.75287746  1
  O  O221  1  0.76142103  0.83265219  0.75237971  1
