# generated using pymatgen
data_Na4CaZnP2SO12
_symmetry_space_group_name_H-M   'P 1'
_cell_length_a   9.31713286
_cell_length_b   9.27125647
_cell_length_c   22.52333215
_cell_angle_alpha   89.84763351
_cell_angle_beta   90.10417442
_cell_angle_gamma   120.03871982
_symmetry_Int_Tables_number   1
_chemical_formula_structural   Na4CaZnP2SO12
_chemical_formula_sum   'Na24 Ca6 Zn6 P12 S6 O72'
_cell_volume   1684.27488579
_cell_formula_units_Z   6
loop_
 _symmetry_equiv_pos_site_id
 _symmetry_equiv_pos_as_xyz
  1  'x, y, z'
loop_
 _atom_site_type_symbol
 _atom_site_label
 _atom_site_symmetry_multiplicity
 _atom_site_fract_x
 _atom_site_fract_y
 _atom_site_fract_z
 _atom_site_occupancy
  Na  Na0  1  0.63203860  0.00662620  0.25522397  1
  Na  Na1  1  0.35971359  0.35937553  0.24674884  1
  Na  Na2  1  0.00523026  0.62787263  0.24806684  1
  Na  Na3  1  0.62666242  0.62895056  0.74478949  1
  Na  Na4  1  0.99284697  0.35143315  0.74221763  1
  Na  Na5  1  0.37696386  0.01366386  0.75280474  1
  Na  Na6  1  0.29675620  0.33526068  0.59245619  1
  Na  Na7  1  0.01883297  0.68988365  0.58174870  1
  Na  Na8  1  0.68076654  0.96734132  0.58430716  1
  Na  Na9  1  0.28659498  0.96668613  0.08458572  1
  Na  Na10  1  0.67094424  0.69024532  0.08259213  1
  Na  Na11  1  0.03870781  0.33497496  0.09411237  1
  Na  Na12  1  0.96884245  0.67745126  0.92331555  1
  Na  Na13  1  0.68301215  0.01508860  0.91136795  1
  Na  Na14  1  0.34486049  0.30111090  0.91467279  1
  Na  Na15  1  0.95918680  0.29457258  0.41087460  1
  Na  Na16  1  0.32693175  0.01944786  0.40914553  1
  Na  Na17  1  0.71151462  0.68084363  0.41853614  1
  Na  Na18  1  0.98326481  0.99027711  0.49956732  1
  Na  Na19  1  0.00701339  0.98906335  0.00250070  1
  Na  Na20  1  0.64906287  0.32472151  0.83097141  1
  Na  Na21  1  0.67479577  0.32639368  0.32986735  1
  Na  Na22  1  0.31810671  0.65725443  0.17070832  1
  Na  Na23  1  0.34139966  0.65930674  0.66603983  1
  Ca  Ca24  1  0.00024885  0.00310468  0.84408571  1
  Ca  Ca25  1  0.66218293  0.33678618  0.98930424  1
  Ca  Ca26  1  0.67438496  0.33660040  0.48478475  1
  Ca  Ca27  1  0.33480384  0.66759174  0.01742063  1
  Ca  Ca28  1  0.33395590  0.66899693  0.51408340  1
  Ca  Ca29  1  0.33980709  0.66853521  0.81658586  1
  Zn  Zn30  1  0.00119038  0.00087526  0.34201333  1
  Zn  Zn31  1  0.98885876  0.00934670  0.65484309  1
  Zn  Zn32  1  0.02254364  0.01004939  0.15830059  1
  Zn  Zn33  1  0.66860142  0.33429559  0.67746797  1
  Zn  Zn34  1  0.66560819  0.33506843  0.17967320  1
  Zn  Zn35  1  0.32262122  0.68129408  0.32053660  1
  P  P36  1  0.30214348  0.00124019  0.25078122  1
  P  P37  1  0.99979212  0.29695584  0.25006525  1
  P  P38  1  0.30756449  0.29915327  0.74506470  1
  P  P39  1  0.69550374  0.00840159  0.74628823  1
  P  P40  1  0.96793550  0.32852156  0.58669291  1
  P  P41  1  0.67433591  0.63988985  0.58722935  1
  P  P42  1  0.96580966  0.64020601  0.08915768  1
  P  P43  1  0.35956098  0.32649756  0.08876642  1
  P  P44  1  0.64320239  0.66729456  0.91698570  1
  P  P45  1  0.33272663  0.97421038  0.91655128  1
  P  P46  1  0.63904156  0.96442177  0.41179233  1
  P  P47  1  0.03120438  0.67469652  0.41267903  1
  S  S48  1  0.70188935  0.70219225  0.24961542  1
  S  S49  1  0.99529924  0.69477544  0.74650610  1
  S  S50  1  0.36156251  0.03336929  0.58556722  1
  S  S51  1  0.67326131  0.03431584  0.08739711  1
  S  S52  1  0.02662921  0.36087199  0.91679218  1
  S  S53  1  0.32856905  0.36380654  0.41302781  1
  O  O54  1  0.21909512  0.02785737  0.30624436  1
  O  O55  1  0.80300378  0.78202826  0.30365896  1
  O  O56  1  0.97367464  0.18748084  0.30594562  1
  O  O57  1  0.23409018  0.20291514  0.80354155  1
  O  O58  1  0.97815196  0.77131976  0.80168649  1
  O  O59  1  0.79382736  0.03241425  0.80436525  1
  O  O60  1  0.78424489  0.98087876  0.69296807  1
  O  O61  1  0.19617909  0.20333624  0.69108464  1
  O  O62  1  0.01560196  0.80170479  0.69429405  1
  O  O63  1  0.78364425  0.80629844  0.19601339  1
  O  O64  1  0.02181370  0.21278322  0.19362410  1
  O  O65  1  0.19290128  0.96914330  0.19476005  1
  O  O66  1  0.87811121  0.34863611  0.64135757  1
  O  O67  1  0.46566683  0.11877182  0.63813022  1
  O  O68  1  0.65117288  0.52582932  0.64130772  1
  O  O69  1  0.87322609  0.52335944  0.14244648  1
  O  O70  1  0.65398967  0.12141635  0.13928485  1
  O  O71  1  0.47168935  0.34629049  0.14288340  1
  O  O72  1  0.43274453  0.30217195  0.03080065  1
  O  O73  1  0.87242572  0.56643006  0.03013620  1
  O  O74  1  0.69350881  0.12868204  0.03187477  1
  O  O75  1  0.43793104  0.13032759  0.53067862  1
  O  O76  1  0.69403904  0.56327429  0.52902258  1
  O  O77  1  0.86744858  0.30395776  0.52933965  1
  O  O78  1  0.55713139  0.68152677  0.97365054  1
  O  O79  1  0.12543180  0.44468188  0.97039311  1
  O  O80  1  0.31510962  0.87076444  0.97295439  1
  O  O81  1  0.56432021  0.86563673  0.46991371  1
  O  O82  1  0.31049965  0.43991746  0.46838413  1
  O  O83  1  0.13103389  0.69870264  0.47044770  1
  O  O84  1  0.11708545  0.64525602  0.35867401  1
  O  O85  1  0.52851203  0.87131564  0.35721815  1
  O  O86  1  0.34909280  0.47024243  0.36073152  1
  O  O87  1  0.10747983  0.45925464  0.86274897  1
  O  O88  1  0.34300456  0.88562414  0.85997742  1
  O  O89  1  0.53881276  0.64867867  0.86109425  1
  O  O90  1  0.01687401  0.83539204  0.40633477  1
  O  O91  1  0.81662774  0.98629449  0.40705416  1
  O  O92  1  0.17680626  0.19539723  0.40886364  1
  O  O93  1  0.01162472  0.19332530  0.91449670  1
  O  O94  1  0.17830363  0.99750478  0.91577782  1
  O  O95  1  0.81679091  0.82820710  0.91504954  1
  O  O96  1  0.98992042  0.17166119  0.59051593  1
  O  O97  1  0.19260490  0.01295910  0.59005270  1
  O  O98  1  0.83583222  0.81549368  0.59216259  1
  O  O99  1  0.97896242  0.81528303  0.09433384  1
  O  O100  1  0.82209835  0.01449357  0.09265143  1
  O  O101  1  0.18161794  0.16956216  0.09292610  1
  O  O102  1  0.68002205  0.16827871  0.74054419  1
  O  O103  1  0.48507305  0.32160407  0.74059291  1
  O  O104  1  0.84372886  0.52677516  0.74270438  1
  O  O105  1  0.68535629  0.53294729  0.24611027  1
  O  O106  1  0.84257881  0.31743598  0.24583448  1
  O  O107  1  0.47859141  0.16030493  0.24596246  1
  O  O108  1  0.66492499  0.51150691  0.91775925  1
  O  O109  1  0.85845651  0.34161127  0.92001577  1
  O  O110  1  0.49538587  0.14704780  0.91755487  1
  O  O111  1  0.65114714  0.13903547  0.41308422  1
  O  O112  1  0.47831423  0.34369140  0.41615548  1
  O  O113  1  0.85413401  0.51848517  0.41478834  1
  O  O114  1  0.34391928  0.48648800  0.08763171  1
  O  O115  1  0.14278395  0.66058355  0.08836162  1
  O  O116  1  0.52067772  0.86540516  0.08538582  1
  O  O117  1  0.34606813  0.86475907  0.58327423  1
  O  O118  1  0.51818502  0.66104998  0.58588844  1
  O  O119  1  0.14294086  0.48854506  0.58492676  1
  O  O120  1  0.32297428  0.84339762  0.25521358  1
  O  O121  1  0.53278777  0.68226674  0.25341455  1
  O  O122  1  0.16076534  0.47346195  0.25413996  1
  O  O123  1  0.31934093  0.47344696  0.74542745  1
  O  O124  1  0.14457863  0.67404625  0.74864780  1
  O  O125  1  0.51861683  0.85213207  0.74744458  1
