# generated using pymatgen
data_BaV3O8
_symmetry_space_group_name_H-M   'P 1'
_cell_length_a   5.54297361
_cell_length_b   7.44341636
_cell_length_c   8.24541104
_cell_angle_alpha   72.87935616
_cell_angle_beta   90.00001258
_cell_angle_gamma   90.00000443
_symmetry_Int_Tables_number   1
_chemical_formula_structural   BaV3O8
_chemical_formula_sum   'Ba2 V6 O16'
_cell_volume   325.11957352
_cell_formula_units_Z   2
loop_
 _symmetry_equiv_pos_site_id
 _symmetry_equiv_pos_as_xyz
  1  'x, y, z'
loop_
 _atom_site_type_symbol
 _atom_site_label
 _atom_site_symmetry_multiplicity
 _atom_site_fract_x
 _atom_site_fract_y
 _atom_site_fract_z
 _atom_site_occupancy
  Ba  Ba0  1  0.24999994  0.78483714  0.90319387  1
  Ba  Ba1  1  0.75000001  0.21516268  0.09680632  1
  V  V2  1  0.74999900  0.07157435  0.63595681  1
  V  V3  1  0.25000065  0.41575377  0.31884962  1
  V  V4  1  0.25000143  0.29418457  0.78080625  1
  V  V5  1  0.75000059  0.58424623  0.68115091  1
  V  V6  1  0.75000139  0.70581572  0.21919308  1
  V  V7  1  0.24999916  0.92842545  0.36404379  1
  O  O8  1  0.50214424  0.47548488  0.79966604  1
  O  O9  1  0.99785741  0.47548689  0.79966558  1
  O  O10  1  0.99667292  0.86605510  0.27321662  1
  O  O11  1  0.25000060  0.43225190  0.51425585  1
  O  O12  1  0.74999961  0.17075900  0.43003194  1
  O  O13  1  0.00214487  0.52451472  0.20033370  1
  O  O14  1  0.25000030  0.17317258  0.98538011  1
  O  O15  1  0.75000016  0.81901153  0.68658692  1
  O  O16  1  0.50332326  0.86605352  0.27321611  1
  O  O17  1  0.49785732  0.52451274  0.20033403  1
  O  O18  1  0.75000038  0.82682787  0.01461962  1
  O  O19  1  0.75000049  0.56774801  0.48574418  1
  O  O20  1  0.49667277  0.13394514  0.72678357  1
  O  O21  1  0.24999981  0.82924100  0.56996787  1
  O  O22  1  0.00332353  0.13394677  0.72678407  1
  O  O23  1  0.25000016  0.18098847  0.31341312  1
