# generated using pymatgen
data_Na7Zn4P3(SO8)3
_symmetry_space_group_name_H-M   'P 1'
_cell_length_a   9.04284016
_cell_length_b   9.04224151
_cell_length_c   21.97294337
_cell_angle_alpha   89.20768691
_cell_angle_beta   90.45509973
_cell_angle_gamma   120.01555208
_symmetry_Int_Tables_number   1
_chemical_formula_structural   Na7Zn4P3(SO8)3
_chemical_formula_sum   'Na21 Zn12 P9 S9 O72'
_cell_volume   1555.57127124
_cell_formula_units_Z   3
loop_
 _symmetry_equiv_pos_site_id
 _symmetry_equiv_pos_as_xyz
  1  'x, y, z'
loop_
 _atom_site_type_symbol
 _atom_site_label
 _atom_site_symmetry_multiplicity
 _atom_site_fract_x
 _atom_site_fract_y
 _atom_site_fract_z
 _atom_site_occupancy
  Na  Na0  1  0.63385923  0.00532364  0.25424136  1
  Na  Na1  1  0.35873953  0.35949584  0.24601208  1
  Na  Na2  1  0.00790749  0.63322219  0.25064120  1
  Na  Na3  1  0.63420972  0.63923696  0.74429752  1
  Na  Na4  1  0.99618054  0.35969691  0.75468564  1
  Na  Na5  1  0.02653113  0.69863747  0.57920810  1
  Na  Na6  1  0.66524746  0.95805950  0.58347277  1
  Na  Na7  1  0.29910921  0.97244723  0.08148999  1
  Na  Na8  1  0.04129319  0.33412302  0.08291405  1
  Na  Na9  1  0.97646660  0.66618501  0.91740824  1
  Na  Na10  1  0.69870774  0.03847694  0.91187775  1
  Na  Na11  1  0.32643347  0.29247700  0.92114793  1
  Na  Na12  1  0.96050127  0.29933531  0.41209506  1
  Na  Na13  1  0.33217408  0.02439035  0.41450455  1
  Na  Na14  1  0.70805677  0.67524730  0.42171547  1
  Na  Na15  1  0.99903377  0.99816347  0.50034990  1
  Na  Na16  1  0.00209592  0.00076844  0.00107900  1
  Na  Na17  1  0.65310889  0.30550852  0.83181876  1
  Na  Na18  1  0.67181647  0.32679692  0.33317462  1
  Na  Na19  1  0.34068847  0.66014797  0.16528392  1
  Na  Na20  1  0.34710530  0.67173214  0.66650967  1
  Zn  Zn21  1  0.99908873  0.00036435  0.34500119  1
  Zn  Zn22  1  0.00470877  0.01317914  0.84697582  1
  Zn  Zn23  1  0.98811235  0.99316572  0.65382408  1
  Zn  Zn24  1  0.01757204  0.01660754  0.15515051  1
  Zn  Zn25  1  0.65391508  0.32396750  0.67999685  1
  Zn  Zn26  1  0.65698215  0.32760269  0.17951418  1
  Zn  Zn27  1  0.65794002  0.32498173  0.98666534  1
  Zn  Zn28  1  0.67292731  0.34119621  0.48729487  1
  Zn  Zn29  1  0.33148591  0.65790410  0.01138891  1
  Zn  Zn30  1  0.34404064  0.66808800  0.51224670  1
  Zn  Zn31  1  0.32443932  0.67706321  0.32154942  1
  Zn  Zn32  1  0.33452310  0.68556492  0.82033363  1
  P  P33  1  0.29859023  0.99931016  0.25019136  1
  P  P34  1  0.99965162  0.30095034  0.24944023  1
  P  P35  1  0.69770251  -0.00001803  0.74955687  1
  P  P36  1  0.66523906  0.63006353  0.58456626  1
  P  P37  1  0.36899721  0.33748646  0.08315815  1
  P  P38  1  0.03447662  0.36921010  0.91590862  1
  P  P39  1  0.33239817  0.96404986  0.91927420  1
  P  P40  1  0.63435335  0.96740404  0.41676417  1
  P  P41  1  0.03387977  0.66565683  0.41839434  1
  S  S42  1  0.70557147  0.70477732  0.24974410  1
  S  S43  1  0.29748584  0.29599350  0.74980031  1
  S  S44  1  0.00105130  0.70245601  0.74988216  1
  S  S45  1  0.96790419  0.33396076  0.58419226  1
  S  S46  1  0.36622557  0.03553744  0.58243417  1
  S  S47  1  0.96142577  0.63143894  0.08342545  1
  S  S48  1  0.66779786  0.03102027  0.08377344  1
  S  S49  1  0.63083351  0.66647022  0.91540262  1
  S  S50  1  0.33326727  0.37138472  0.41586472  1
  O  O51  1  0.21543740  0.02564078  0.30734112  1
  O  O52  1  0.80326816  0.77745719  0.30738293  1
  O  O53  1  0.96664029  0.18689181  0.30689740  1
  O  O54  1  0.22552707  0.20098171  0.80809547  1
  O  O55  1  0.98309421  0.78744404  0.80482968  1
  O  O56  1  0.81197797  0.02969931  0.80700649  1
  O  O57  1  0.78004205  0.97132565  0.69213843  1
  O  O58  1  0.18780015  0.20521180  0.69742502  1
  O  O59  1  0.02186184  0.80363361  0.69373259  1
  O  O60  1  0.79184711  0.81653692  0.19710041  1
  O  O61  1  0.02479442  0.21953662  0.19192849  1
  O  O62  1  0.18756648  0.96690496  0.19270393  1
  O  O63  1  0.88487750  0.35717372  0.63879537  1
  O  O64  1  0.47776602  0.11905542  0.63520763  1
  O  O65  1  0.64973787  0.52652227  0.64312190  1
  O  O66  1  0.87671530  0.52442807  0.13864788  1
  O  O67  1  0.64428140  0.11328211  0.13867485  1
  O  O68  1  0.47008480  0.35451448  0.14226458  1
  O  O69  1  0.45374880  0.31172363  0.02622961  1
  O  O70  1  0.86422860  0.54789270  0.02711614  1
  O  O71  1  0.69668640  0.14045081  0.02823085  1
  O  O72  1  0.44400496  0.13258787  0.52476575  1
  O  O73  1  0.69092609  0.54725397  0.52695215  1
  O  O74  1  0.85944862  0.30470194  0.52864680  1
  O  O75  1  0.54955917  0.69499683  0.96846699  1
  O  O76  1  0.14392675  0.44779807  0.97349344  1
  O  O77  1  0.30415132  0.85621290  0.97831114  1
  O  O78  1  0.55462532  0.85644809  0.47448539  1
  O  O79  1  0.30776445  0.45319832  0.46901717  1
  O  O80  1  0.14569703  0.69040335  0.47525404  1
  O  O81  1  0.10912035  0.63229589  0.36052501  1
  O  O82  1  0.52522309  0.88427968  0.35918074  1
  O  O83  1  0.35872590  0.47393836  0.35905077  1
  O  O84  1  0.11950854  0.47925869  0.85811590  1
  O  O85  1  0.37090703  0.88470196  0.86482337  1
  O  O86  1  0.52752774  0.63861565  0.85898385  1
  O  O87  1  0.01861430  0.83037124  0.41323516  1
  O  O88  1  0.81669095  0.98907207  0.41246536  1
  O  O89  1  0.17843533  0.19726281  0.41254119  1
  O  O90  1  0.01224732  0.18606005  0.91253538  1
  O  O91  1  0.16710116  0.97796236  0.91202862  1
  O  O92  1  0.80541756  0.82062942  0.91080140  1
  O  O93  1  0.98437630  0.17824975  0.58931059  1
  O  O94  1  0.19267153  0.01553448  0.58811260  1
  O  O95  1  0.83214356  0.81191512  0.58664563  1
  O  O96  1  0.98133342  0.80466711  0.08655285  1
  O  O97  1  0.82295934  0.01501152  0.08903312  1
  O  O98  1  0.18749805  0.17074534  0.08537996  1
  O  O99  1  0.68832508  0.16721944  0.74343331  1
  O  O100  1  0.47472196  0.32287746  0.74570353  1
  O  O101  1  0.84237830  0.53073857  0.74751344  1
  O  O102  1  0.68926988  0.53175447  0.24530588  1
  O  O103  1  0.83923480  0.32387316  0.24420276  1
  O  O104  1  0.47935166  0.16355142  0.24583633  1
  O  O105  1  0.65007909  0.51203622  0.92190745  1
  O  O106  1  0.85392375  0.35298461  0.92075268  1
  O  O107  1  0.49177135  0.14837072  0.92287533  1
  O  O108  1  0.64818330  0.14680215  0.42145235  1
  O  O109  1  0.48815493  0.35196349  0.42130323  1
  O  O110  1  0.85063651  0.50497344  0.42266417  1
  O  O111  1  0.34297077  0.49518120  0.07872761  1
  O  O112  1  0.13528986  0.64862429  0.08223348  1
  O  O113  1  0.50850940  0.86332822  0.07854140  1
  O  O114  1  0.34714433  0.86097584  0.58058381  1
  O  O115  1  0.50770444  0.65645498  0.58057547  1
  O  O116  1  0.13640497  0.49246456  0.57841257  1
  O  O117  1  0.32190196  0.83943268  0.25426725  1
  O  O118  1  0.53049290  0.68299331  0.25331971  1
  O  O119  1  0.16564887  0.47908374  0.25451108  1
  O  O120  1  0.31069508  0.46780895  0.75157595  1
  O  O121  1  0.15119705  0.67522631  0.75314034  1
  O  O122  1  0.52223376  0.83252462  0.75526724  1
