# generated using pymatgen
data_NaInSiSn(SO6)2
_symmetry_space_group_name_H-M   'P 1'
_cell_length_a   8.85525401
_cell_length_b   8.86821155
_cell_length_c   23.34462128
_cell_angle_alpha   90.13846458
_cell_angle_beta   90.00000000
_cell_angle_gamma   119.95167828
_symmetry_Int_Tables_number   1
_chemical_formula_structural   NaInSiSn(SO6)2
_chemical_formula_sum   'Na6 In6 Si6 Sn6 S12 O72'
_cell_volume   1588.41545618
_cell_formula_units_Z   6
loop_
 _symmetry_equiv_pos_site_id
 _symmetry_equiv_pos_as_xyz
  1  'x, y, z'
loop_
 _atom_site_type_symbol
 _atom_site_label
 _atom_site_symmetry_multiplicity
 _atom_site_fract_x
 _atom_site_fract_y
 _atom_site_fract_z
 _atom_site_occupancy
  Na  Na0  1  0.02751664  0.01568380  0.50242809  1
  Na  Na1  1  0.98816715  0.01568380  0.00242809  1
  Na  Na2  1  0.68842178  0.32730895  0.83496509  1
  Na  Na3  1  0.63888817  0.32730895  0.33496509  1
  Na  Na4  1  0.34008830  0.69188565  0.16875292  1
  Na  Na5  1  0.35179635  0.69188565  0.66875292  1
  In  In6  1  0.99720018  0.99872551  0.64854381  1
  In  In7  1  0.00152532  0.99872551  0.14854381  1
  In  In8  1  0.68382289  0.32408811  0.98079655  1
  In  In9  1  0.64026622  0.32408811  0.48079655  1
  In  In10  1  0.33384499  0.67188539  0.31463935  1
  In  In11  1  0.33803940  0.67188539  0.81463935  1
  Si  Si12  1  0.29307251  0.99724999  0.24859938  1
  Si  Si13  1  0.70417748  0.99724999  0.74859938  1
  Si  Si14  1  0.36338197  0.02977553  0.58241630  1
  Si  Si15  1  0.66639456  0.02977553  0.08241630  1
  Si  Si16  1  0.04822734  0.38076106  0.91530186  1
  Si  Si17  1  0.33253273  0.38076106  0.41530186  1
  Sn  Sn18  1  0.02030150  0.01650146  0.35241324  1
  Sn  Sn19  1  0.99619996  0.01650146  0.85241324  1
  Sn  Sn20  1  0.65938937  0.30996230  0.68429689  1
  Sn  Sn21  1  0.65057393  0.30996230  0.18429689  1
  Sn  Sn22  1  0.33375157  0.66762764  0.01773201  1
  Sn  Sn23  1  0.33387506  0.66762764  0.51773201  1
  S  S24  1  0.71094308  0.70336438  0.24998344  1
  S  S25  1  0.99436165  0.29354351  0.24951086  1
  S  S26  1  0.29918186  0.29354351  0.74951086  1
  S  S27  1  0.99242130  0.70336438  0.74998344  1
  S  S28  1  0.95944901  0.33905778  0.58159886  1
  S  S29  1  0.66431617  0.62121243  0.58454255  1
  S  S30  1  0.95689726  0.62121243  0.08454255  1
  S  S31  1  0.37960977  0.33905778  0.08159886  1
  S  S32  1  0.63273277  0.66687006  0.91729263  1
  S  S33  1  0.32522869  0.96245704  0.91533184  1
  S  S34  1  0.63722734  0.96245704  0.41533184  1
  S  S35  1  0.03413629  0.66687006  0.41729263  1
  O  O36  1  0.21201536  0.03225049  0.30757548  1
  O  O37  1  0.81557417  0.78686841  0.30303746  1
  O  O38  1  0.95923864  0.18334665  0.30196817  1
  O  O39  1  0.22410801  0.18334665  0.80196817  1
  O  O40  1  0.97129424  0.78686841  0.80303746  1
  O  O41  1  0.82023513  0.03225049  0.80757548  1
  O  O42  1  0.78807946  0.97065838  0.69117223  1
  O  O43  1  0.19729832  0.21279329  0.69789206  1
  O  O44  1  0.02217396  0.80862083  0.69856132  1
  O  O45  1  0.78644687  0.80862083  0.19856132  1
  O  O46  1  0.01549496  0.21279329  0.19789206  1
  O  O47  1  0.18257891  0.97065838  0.19117223  1
  O  O48  1  0.88381141  0.37049806  0.63501185  1
  O  O49  1  0.48291715  0.10964024  0.64086441  1
  O  O50  1  0.64338781  0.51569454  0.63705951  1
  O  O51  1  0.87230773  0.51569454  0.13705951  1
  O  O52  1  0.62672409  0.10964024  0.14086441  1
  O  O53  1  0.48668765  0.37049806  0.13501185  1
  O  O54  1  0.46535603  0.32195924  0.03018901  1
  O  O55  1  0.85219443  0.54568060  0.03254856  1
  O  O56  1  0.69496940  0.13917787  0.02522274  1
  O  O57  1  0.44420947  0.13917787  0.52522274  1
  O  O58  1  0.69348718  0.54568060  0.53254856  1
  O  O59  1  0.85660421  0.32195924  0.53018901  1
  O  O60  1  0.55710095  0.70500159  0.96904167  1
  O  O61  1  0.16364478  0.46511113  0.97503046  1
  O  O62  1  0.29940706  0.85788261  0.96825949  1
  O  O63  1  0.55847455  0.85788261  0.46825949  1
  O  O64  1  0.30146536  0.46511113  0.47503046  1
  O  O65  1  0.14789964  0.70500159  0.46904167  1
  O  O66  1  0.11148211  0.64440317  0.36502113  1
  O  O67  1  0.52811305  0.88932692  0.36449932  1
  O  O68  1  0.35268736  0.49049146  0.35873909  1
  O  O69  1  0.13780310  0.49049146  0.85873909  1
  O  O70  1  0.36121287  0.88932692  0.86449932  1
  O  O71  1  0.53292007  0.64440317  0.86502113  1
  O  O72  1  0.00843153  0.82185742  0.41246043  1
  O  O73  1  0.80700956  0.96536217  0.40845602  1
  O  O74  1  0.15074008  0.18577281  0.41464147  1
  O  O75  1  0.03503273  0.18577281  0.91464147  1
  O  O76  1  0.15835260  0.96536217  0.90845602  1
  O  O77  1  0.81342589  0.82185742  0.91246043  1
  O  O78  1  0.97514918  0.18188105  0.58668632  1
  O  O79  1  0.16963524  0.00628676  0.58895595  1
  O  O80  1  0.81500948  0.79819402  0.58875079  1
  O  O81  1  0.98318454  0.79819402  0.08875079  1
  O  O82  1  0.83665152  0.00628676  0.08895595  1
  O  O83  1  0.20673187  0.18188105  0.08668632  1
  O  O84  1  0.69549384  0.18094512  0.74673020  1
  O  O85  1  0.47895531  0.31784816  0.74487079  1
  O  O86  1  0.82753576  0.53035630  0.74398013  1
  O  O87  1  0.70282154  0.53035630  0.24398013  1
  O  O88  1  0.83889385  0.31784816  0.24487079  1
  O  O89  1  0.48545228  0.18094512  0.24673020  1
  O  O90  1  0.64356672  0.50763173  0.92550800  1
  O  O91  1  0.85500699  0.36014851  0.91683293  1
  O  O92  1  0.47153802  0.14303956  0.92194549  1
  O  O93  1  0.67150254  0.14303956  0.42194549  1
  O  O94  1  0.50514253  0.36014851  0.41683293  1
  O  O95  1  0.86406602  0.50763173  0.42550800  1
  O  O96  1  0.35948910  0.49655413  0.07871518  1
  O  O97  1  0.13075511  0.63124745  0.08030879  1
  O  O98  1  0.48361289  0.83573532  0.07619270  1
  O  O99  1  0.35212142  0.83573532  0.57619270  1
  O  O100  1  0.50049134  0.63124745  0.58030879  1
  O  O101  1  0.13706403  0.49655413  0.57871518  1
  O  O102  1  0.31885494  0.82788412  0.25404662  1
  O  O103  1  0.53266358  0.67625501  0.25477510  1
  O  O104  1  0.15182338  0.46563428  0.25530348  1
  O  O105  1  0.31380990  0.46563428  0.75530348  1
  O  O106  1  0.14359042  0.67625501  0.75477510  1
  O  O107  1  0.50902818  0.82788412  0.75404662  1
