# generated using pymatgen
data_MgTi2V2O8
_symmetry_space_group_name_H-M   'P 1'
_cell_length_a   5.65219711
_cell_length_b   5.64947458
_cell_length_c   5.81094059
_cell_angle_alpha   74.87028856
_cell_angle_beta   105.89235614
_cell_angle_gamma   63.50070665
_symmetry_Int_Tables_number   1
_chemical_formula_structural   MgTi2V2O8
_chemical_formula_sum   'Mg1 Ti2 V2 O8'
_cell_volume   143.01330295
_cell_formula_units_Z   1
loop_
 _symmetry_equiv_pos_site_id
 _symmetry_equiv_pos_as_xyz
  1  'x, y, z'
loop_
 _atom_site_type_symbol
 _atom_site_label
 _atom_site_symmetry_multiplicity
 _atom_site_fract_x
 _atom_site_fract_y
 _atom_site_fract_z
 _atom_site_occupancy
  Mg  Mg0  1  0.48580800  0.49511500  0.46701900  1
  Ti  Ti1  1  0.78430500  0.78010000  0.49131600  1
  Ti  Ti2  1  0.49516100  0.52740900  0.95117300  1
  V  V3  1  0.20066500  0.22773800  0.48341300  1
  V  V4  1  0.97457500  0.01097500  0.97434900  1
  O  O5  1  0.51854200  0.24376600  0.80026500  1
  O  O6  1  0.04192300  0.74365700  0.79051400  1
  O  O7  1  0.93028700  0.32983600  0.64838900  1
  O  O8  1  0.47714000  0.77204300  0.64995200  1
  O  O9  1  0.01689200  0.69511200  0.31056900  1
  O  O10  1  0.49870400  0.18831100  0.33084400  1
  O  O11  1  0.90989300  0.26870000  0.16506200  1
  O  O12  1  0.42801100  0.76485600  0.13951700  1
