# generated using pymatgen
data_MgFe2(OF)2
_symmetry_space_group_name_H-M   'P 1'
_cell_length_a   5.68341783
_cell_length_b   5.41690918
_cell_length_c   3.01170965
_cell_angle_alpha   90.00000000
_cell_angle_beta   90.00000000
_cell_angle_gamma   112.19644665
_symmetry_Int_Tables_number   1
_chemical_formula_structural   MgFe2(OF)2
_chemical_formula_sum   'Mg1 Fe2 O2 F2'
_cell_volume   85.84905471
_cell_formula_units_Z   1
loop_
 _symmetry_equiv_pos_site_id
 _symmetry_equiv_pos_as_xyz
  1  'x, y, z'
loop_
 _atom_site_type_symbol
 _atom_site_label
 _atom_site_symmetry_multiplicity
 _atom_site_fract_x
 _atom_site_fract_y
 _atom_site_fract_z
 _atom_site_occupancy
  Mg  Mg0  1  0.00000000  0.50000000  0.46021301  1
  Fe  Fe1  1  0.00000000  0.00000000  0.96147550  1
  Fe  Fe2  1  0.50000000  0.50000000  0.46156392  1
  O  O3  1  0.22487519  0.41154890  0.96144203  1
  O  O4  1  0.77512481  0.58845110  0.96144203  1
  F  F5  1  0.20777210  0.89023963  0.46151526  1
  F  F6  1  0.79222790  0.10976037  0.46151526  1
