# generated using pymatgen
data_Mg(MoO2)4
_symmetry_space_group_name_H-M   'P 1'
_cell_length_a   5.08111268
_cell_length_b   5.90595063
_cell_length_c   6.40615333
_cell_angle_alpha   123.59006069
_cell_angle_beta   89.78721369
_cell_angle_gamma   91.26165814
_symmetry_Int_Tables_number   1
_chemical_formula_structural   Mg(MoO2)4
_chemical_formula_sum   'Mg1 Mo4 O8'
_cell_volume   160.09294737
_cell_formula_units_Z   1
loop_
 _symmetry_equiv_pos_site_id
 _symmetry_equiv_pos_as_xyz
  1  'x, y, z'
loop_
 _atom_site_type_symbol
 _atom_site_label
 _atom_site_symmetry_multiplicity
 _atom_site_fract_x
 _atom_site_fract_y
 _atom_site_fract_z
 _atom_site_occupancy
  Mg  Mg0  1  0.97761502  0.48593236  0.99322647  1
  Mo  Mo1  1  0.47714659  0.48776173  0.24233604  1
  Mo  Mo2  1  0.98192113  0.03451187  0.26698493  1
  Mo  Mo3  1  0.47868992  0.48327918  0.74313209  1
  Mo  Mo4  1  0.97383546  0.93665133  0.71850433  1
  O  O5  1  0.14072515  0.75889073  0.36281481  1
  O  O6  1  0.66806948  0.71688170  0.10946815  1
  O  O7  1  0.81542311  0.21268133  0.62313995  1
  O  O8  1  0.28718043  0.25517516  0.87662114  1
  O  O9  1  0.81858613  0.21294551  0.08394097  1
  O  O10  1  0.28857120  0.28265172  0.38907001  1
  O  O11  1  0.13694476  0.75794085  0.90130219  1
  O  O12  1  0.66825461  0.68719651  0.59570891  1
