# generated using pymatgen
data_NaLa2Sn2P3(SO8)3
_symmetry_space_group_name_H-M   'P 1'
_cell_length_a   9.11580411
_cell_length_b   9.12257231
_cell_length_c   23.90768372
_cell_angle_alpha   90.23425664
_cell_angle_beta   90.18424482
_cell_angle_gamma   120.05016436
_symmetry_Int_Tables_number   1
_chemical_formula_structural   NaLa2Sn2P3(SO8)3
_chemical_formula_sum   'Na3 La6 Sn6 P9 S9 O72'
_cell_volume   1720.87379084
_cell_formula_units_Z   3
loop_
 _symmetry_equiv_pos_site_id
 _symmetry_equiv_pos_as_xyz
  1  'x, y, z'
loop_
 _atom_site_type_symbol
 _atom_site_label
 _atom_site_symmetry_multiplicity
 _atom_site_fract_x
 _atom_site_fract_y
 _atom_site_fract_z
 _atom_site_occupancy
  Na  Na0  1  0.69036191  0.33784847  0.83556730  1
  Na  Na1  1  0.66006113  0.34739556  0.32909455  1
  Na  Na2  1  0.35321177  0.68137967  0.16367808  1
  La  La3  1  0.67717263  0.33635339  0.68603669  1
  La  La4  1  0.65184119  0.32798526  0.18333506  1
  La  La5  1  0.66514438  0.32262268  0.98944924  1
  La  La6  1  0.66442433  0.33907805  0.48337974  1
  La  La7  1  0.33641458  0.66965963  0.30791853  1
  La  La8  1  0.32869601  0.66848331  0.80411207  1
  Sn  Sn9  1  0.00904214  0.99440128  0.35448304  1
  Sn  Sn10  1  0.99462399  0.00331412  0.85584590  1
  Sn  Sn11  1  0.99441014  0.99447501  0.64904561  1
  Sn  Sn12  1  0.99894251  0.99962350  0.14668092  1
  Sn  Sn13  1  0.33281617  0.65577730  0.01549681  1
  Sn  Sn14  1  0.32529832  0.65966743  0.51030739  1
  P  P15  1  0.27752667  0.00330381  0.24897840  1
  P  P16  1  0.73097538  0.72530595  0.25010588  1
  P  P17  1  0.98903405  0.72704929  0.75188079  1
  P  P18  1  0.73101164  0.00870927  0.75077232  1
  P  P19  1  0.66261800  0.01034209  0.08385051  1
  P  P20  1  0.34675697  0.33229954  0.08349021  1
  P  P21  1  0.04551177  0.36725855  0.91499532  1
  P  P22  1  0.31604619  0.36247344  0.41527580  1
  P  P23  1  0.04495942  0.67846557  0.41612574  1
  S  S24  1  0.99334928  0.27106451  0.25069212  1
  S  S25  1  0.27775118  0.26771920  0.74995536  1
  S  S26  1  0.98910402  0.33331865  0.58307780  1
  S  S27  1  0.34663202  0.01092106  0.58342550  1
  S  S28  1  0.66067845  0.65283304  0.58306772  1
  S  S29  1  0.98725763  0.65032584  0.08360645  1
  S  S30  1  0.63565151  0.67785253  0.91579089  1
  S  S31  1  0.31719497  0.95501415  0.91613069  1
  S  S32  1  0.63923344  0.95533900  0.41785738  1
  O  O33  1  0.19548362  0.01764694  0.30429895  1
  O  O34  1  0.82376258  0.81526524  0.30589784  1
  O  O35  1  0.98691793  0.17834357  0.30266482  1
  O  O36  1  0.19589902  0.16958955  0.80117714  1
  O  O37  1  0.97553985  0.81526137  0.80572993  1
  O  O38  1  0.83725778  0.03372566  0.80452455  1
  O  O39  1  0.81645069  0.00090331  0.69535852  1
  O  O40  1  0.18433258  0.18604323  0.69691524  1
  O  O41  1  0.00330243  0.82125196  0.69620266  1
  O  O42  1  0.82065899  0.82356667  0.19661073  1
  O  O43  1  0.00026842  0.18634173  0.19847117  1
  O  O44  1  0.18048526  0.00002187  0.19545385  1
  O  O45  1  0.91531301  0.36930404  0.63266404  1
  O  O46  1  0.45638476  0.08758974  0.63305818  1
  O  O47  1  0.62762846  0.54496809  0.63249770  1
  O  O48  1  0.91349930  0.54062900  0.13263227  1
  O  O49  1  0.62231493  0.08610879  0.13489256  1
  O  O50  1  0.46376486  0.37633993  0.13481027  1
  O  O51  1  0.42547537  0.30049092  0.03173651  1
  O  O52  1  0.88164459  0.57713332  0.03316566  1
  O  O53  1  0.69958964  0.12148828  0.03207042  1
  O  O54  1  0.41881949  0.12129574  0.53449954  1
  O  O55  1  0.69988694  0.58031224  0.53414633  1
  O  O56  1  0.87677844  0.29325657  0.53427804  1
  O  O57  1  0.55520923  0.70236414  0.96748156  1
  O  O58  1  0.15476186  0.45390214  0.96944498  1
  O  O59  1  0.29833854  0.85314528  0.96767148  1
  O  O60  1  0.55523935  0.84863128  0.46947001  1
  O  O61  1  0.29366211  0.44705260  0.47070452  1
  O  O62  1  0.15501956  0.70588851  0.47132962  1
  O  O63  1  0.12607489  0.64937553  0.36558036  1
  O  O64  1  0.53314665  0.88308367  0.36835856  1
  O  O65  1  0.35216628  0.47606850  0.36530263  1
  O  O66  1  0.12912511  0.47427211  0.86378643  1
  O  O67  1  0.34511784  0.87889176  0.86628601  1
  O  O68  1  0.53320226  0.65445101  0.86592415  1
  O  O69  1  0.03147205  0.84098885  0.41156813  1
  O  O70  1  0.80596880  0.96593164  0.41213629  1
  O  O71  1  0.14893953  0.18989564  0.40869387  1
  O  O72  1  0.03814006  0.19145069  0.90995481  1
  O  O73  1  0.15727017  0.96314661  0.91051562  1
  O  O74  1  0.80531654  0.83703251  0.91183674  1
  O  O75  1  0.01379623  0.18478217  0.59399217  1
  O  O76  1  0.17342102  0.98899993  0.59362638  1
  O  O77  1  0.81194259  0.82624791  0.59232989  1
  O  O78  1  0.00956586  0.82124098  0.09271126  1
  O  O79  1  0.81520248  0.98400188  0.09475617  1
  O  O80  1  0.16971728  0.17738573  0.09465738  1
  O  O81  1  0.71191985  0.16840302  0.74892481  1
  O  O82  1  0.44714646  0.28294065  0.74784022  1
  O  O83  1  0.82632300  0.55079956  0.75015110  1
  O  O84  1  0.71815409  0.55030179  0.25029615  1
  O  O85  1  0.84055798  0.28804793  0.25045840  1
  O  O86  1  0.45587367  0.16266565  0.25010043  1
  O  O87  1  0.66083887  0.53098990  0.92209240  1
  O  O88  1  0.86538957  0.33941474  0.92151338  1
  O  O89  1  0.46296201  0.12962023  0.92135756  1
  O  O90  1  0.66338705  0.12683168  0.42641763  1
  O  O91  1  0.46659196  0.33184992  0.42411447  1
  O  O92  1  0.86644668  0.52355705  0.42441441  1
  O  O93  1  0.32427851  0.49145466  0.07465606  1
  O  O94  1  0.16083663  0.67136124  0.07434870  1
  O  O95  1  0.49975771  0.83079866  0.07212749  1
  O  O96  1  0.32870164  0.84035817  0.57258026  1
  O  O97  1  0.50938673  0.67227180  0.57152805  1
  O  O98  1  0.15933338  0.48613305  0.57299644  1
  O  O99  1  0.28781628  0.84058587  0.24694976  1
  O  O100  1  0.55539982  0.71040986  0.24832813  1
  O  O101  1  0.14856015  0.43902937  0.24962588  1
  O  O102  1  0.29074235  0.43330861  0.75108331  1
  O  O103  1  0.14745425  0.71275172  0.75313502  1
  O  O104  1  0.56177932  0.84667888  0.75290721  1
