# generated using pymatgen
data_Na18Nb16Zn8Si21(S5O48)3
_symmetry_space_group_name_H-M   'P 1'
_cell_length_a   17.88883298
_cell_length_b   8.96324646
_cell_length_c   22.84290271
_cell_angle_alpha   89.91021128
_cell_angle_beta   89.63096907
_cell_angle_gamma   120.16552807
_symmetry_Int_Tables_number   1
_chemical_formula_structural   Na18Nb16Zn8Si21(S5O48)3
_chemical_formula_sum   'Na18 Nb16 Zn8 Si21 S15 O144'
_cell_volume   3166.55290319
_cell_formula_units_Z   1
loop_
 _symmetry_equiv_pos_site_id
 _symmetry_equiv_pos_as_xyz
  1  'x, y, z'
loop_
 _atom_site_type_symbol
 _atom_site_label
 _atom_site_symmetry_multiplicity
 _atom_site_fract_x
 _atom_site_fract_y
 _atom_site_fract_z
 _atom_site_occupancy
  Na  Na0  1  0.32072086  0.01864970  0.24134454  1
  Na  Na1  1  0.81815729  0.01705085  0.24228552  1
  Na  Na2  1  0.99524561  0.63253342  0.24261262  1
  Na  Na3  1  0.32526624  0.62188611  0.74536721  1
  Na  Na4  1  0.81875020  0.62036589  0.74347295  1
  Na  Na5  1  0.49266170  0.35941489  0.74188062  1
  Na  Na6  1  0.99229487  0.98696793  0.49021175  1
  Na  Na7  1  0.49271032  0.99156389  0.49243548  1
  Na  Na8  1  0.99274135  0.99461567  0.98735568  1
  Na  Na9  1  0.49271400  0.99737376  0.98724374  1
  Na  Na10  1  0.32713595  0.33481605  0.82545300  1
  Na  Na11  1  0.82622317  0.32107798  0.82653282  1
  Na  Na12  1  0.32884811  0.33359411  0.32886589  1
  Na  Na13  1  0.81800934  0.31694920  0.33188160  1
  Na  Na14  1  0.16826242  0.66957646  0.16063016  1
  Na  Na15  1  0.65796894  0.66429382  0.16230542  1
  Na  Na16  1  0.16063250  0.65482943  0.66439352  1
  Na  Na17  1  0.66430029  0.66615826  0.66390316  1
  Nb  Nb18  1  0.00020065  0.01148936  0.64310114  1
  Nb  Nb19  1  0.50245648  0.99950410  0.64544128  1
  Nb  Nb20  1  0.00112624  0.99035818  0.14138698  1
  Nb  Nb21  1  0.50057841  0.98878428  0.14261948  1
  Nb  Nb22  1  0.34487377  0.34547791  0.97720631  1
  Nb  Nb23  1  0.84327285  0.34503097  0.97762896  1
  Nb  Nb24  1  0.34431638  0.34175399  0.47978658  1
  Nb  Nb25  1  0.84363995  0.34125579  0.47834625  1
  Nb  Nb26  1  0.16896323  0.67056113  0.01950472  1
  Nb  Nb27  1  0.66935446  0.66855984  0.01896843  1
  Nb  Nb28  1  0.16946379  0.67255580  0.52107546  1
  Nb  Nb29  1  0.66897585  0.66947979  0.52090327  1
  Nb  Nb30  1  0.16652337  0.68045577  0.31475697  1
  Nb  Nb31  1  0.66109703  0.67832864  0.31372536  1
  Nb  Nb32  1  0.16280393  0.64427975  0.81267617  1
  Nb  Nb33  1  0.66232950  0.64944023  0.81099543  1
  Zn  Zn34  1  0.00208573  0.99231901  0.35864022  1
  Zn  Zn35  1  0.50259901  0.99146913  0.35777742  1
  Zn  Zn36  1  -0.00000623  0.01107673  0.85751738  1
  Zn  Zn37  1  0.50126236  0.99780331  0.85419009  1
  Zn  Zn38  1  0.33905851  0.36200544  0.68346205  1
  Zn  Zn39  1  0.83196590  0.34373776  0.68010490  1
  Zn  Zn40  1  0.33265622  0.31964064  0.17986251  1
  Zn  Zn41  1  0.82711586  0.31522595  0.17788167  1
  Si  Si42  1  0.14761164  0.01736476  0.25310181  1
  Si  Si43  1  0.64692458  0.01695849  0.25299368  1
  Si  Si44  1  0.14503623  0.27421724  0.75340122  1
  Si  Si45  1  0.64849681  0.27666532  0.75249756  1
  Si  Si46  1  0.50118373  0.71501632  0.75479352  1
  Si  Si47  1  0.48003460  0.33195540  0.58794081  1
  Si  Si48  1  0.97799449  0.34083535  0.58697187  1
  Si  Si49  1  0.33410384  0.62465267  0.58521448  1
  Si  Si50  1  0.83391342  0.62221469  0.58598537  1
  Si  Si51  1  0.47838069  0.61387918  0.08657105  1
  Si  Si52  1  0.97822701  0.61294213  0.08802776  1
  Si  Si53  1  0.33314422  0.04481356  0.08627269  1
  Si  Si54  1  0.83268257  0.04296188  0.08572703  1
  Si  Si55  1  0.31476846  0.66692367  0.91670185  1
  Si  Si56  1  0.81494435  0.66941341  0.91468355  1
  Si  Si57  1  0.02298983  0.37025473  0.91897376  1
  Si  Si58  1  0.52409650  0.36719968  0.91708002  1
  Si  Si59  1  0.31680586  0.96692433  0.41718067  1
  Si  Si60  1  0.81477433  0.96225458  0.41601047  1
  Si  Si61  1  0.02265667  0.67392542  0.41824077  1
  Si  Si62  1  0.52174314  0.67572284  0.41967721  1
  S  S63  1  0.35409898  0.70579202  0.25063237  1
  S  S64  1  0.85310193  0.70742688  0.24990333  1
  S  S65  1  0.00341117  0.29032422  0.25167654  1
  S  S66  1  0.50307709  0.28985039  0.25177600  1
  S  S67  1  0.00309790  0.71622556  0.75186373  1
  S  S68  1  0.35177032  0.99738897  0.75016070  1
  S  S69  1  0.85553831  0.00373911  0.75030693  1
  S  S70  1  0.18865269  0.04486045  0.58427060  1
  S  S71  1  0.68897872  0.04405772  0.58291181  1
  S  S72  1  0.18829811  0.33427462  0.08400785  1
  S  S73  1  0.68758828  0.33338646  0.08360262  1
  S  S74  1  0.16849012  0.95580986  0.91663749  1
  S  S75  1  0.66911946  0.95679217  0.91765993  1
  S  S76  1  0.16819920  0.38213531  0.41735070  1
  S  S77  1  0.66811707  0.38243256  0.41691105  1
  O  O78  1  0.09557630  0.01977625  0.30845404  1
  O  O79  1  0.59923560  0.02825932  0.30932408  1
  O  O80  1  0.40272203  0.78848391  0.30281158  1
  O  O81  1  0.90455817  0.78881769  0.30158258  1
  O  O82  1  0.48957978  0.18473898  0.30370953  1
  O  O83  1  0.99004844  0.18535698  0.30344029  1
  O  O84  1  0.09612654  0.16889056  0.80980884  1
  O  O85  1  0.60011871  0.17898330  0.81012769  1
  O  O86  1  0.47588441  0.79408208  0.80732421  1
  O  O87  1  0.98964628  0.79395495  0.80372007  1
  O  O88  1  0.40247774  0.02501635  0.80265881  1
  O  O89  1  0.90459835  0.02023066  0.80270929  1
  O  O90  1  0.39308807  0.96391146  0.69685176  1
  O  O91  1  0.89781922  0.97223583  0.69605769  1
  O  O92  1  0.08268910  0.18543086  0.69327315  1
  O  O93  1  0.58440064  0.19491168  0.69287377  1
  O  O94  1  0.01290143  0.81996818  0.69736102  1
  O  O95  1  0.51186027  0.83443045  0.69384651  1
  O  O96  1  0.39515038  0.82171327  0.19647850  1
  O  O97  1  0.89513342  0.82177496  0.19587082  1
  O  O98  1  0.01196414  0.20679169  0.19721561  1
  O  O99  1  0.51288063  0.20666814  0.19746872  1
  O  O100  1  0.08322789  0.97651647  0.19335371  1
  O  O101  1  0.58505965  0.98398725  0.19299177  1
  O  O102  1  0.44164232  0.36122441  0.64660597  1
  O  O103  1  0.93585060  0.36442187  0.64398977  1
  O  O104  1  0.23829145  0.11553486  0.63681715  1
  O  O105  1  0.73699792  0.11223513  0.63658762  1
  O  O106  1  0.30950068  0.52186968  0.64550555  1
  O  O107  1  0.81136657  0.52304194  0.64691418  1
  O  O108  1  0.43624051  0.50842427  0.14444463  1
  O  O109  1  0.93868732  0.51763287  0.14887318  1
  O  O110  1  0.31026657  0.09744350  0.14753515  1
  O  O111  1  0.81279031  0.09983338  0.14725009  1
  O  O112  1  0.23643159  0.36076243  0.13790309  1
  O  O113  1  0.73693746  0.36349558  0.13722160  1
  O  O114  1  0.22628007  0.30613702  0.03133044  1
  O  O115  1  0.72669868  0.30606919  0.03106963  1
  O  O116  1  0.41801454  0.53103430  0.02671594  1
  O  O117  1  0.91618066  0.52574785  0.02977455  1
  O  O118  1  0.34454074  0.17092178  0.02953268  1
  O  O119  1  0.84465436  0.16991428  0.02919099  1
  O  O120  1  0.22694389  0.14737271  0.53024214  1
  O  O121  1  0.73054340  0.14814999  0.52984174  1
  O  O122  1  0.34398896  0.51857069  0.52806728  1
  O  O123  1  0.84511310  0.51810551  0.52869917  1
  O  O124  1  0.41754845  0.30564111  0.52861871  1
  O  O125  1  0.91802072  0.30424224  0.52646585  1
  O  O126  1  0.25798056  0.67928542  0.97225194  1
  O  O127  1  0.76119667  0.68619583  0.97143249  1
  O  O128  1  0.08044273  0.48750447  0.97381346  1
  O  O129  1  0.58225349  0.48647620  0.97197846  1
  O  O130  1  0.16121947  0.85126668  0.97089313  1
  O  O131  1  0.66246934  0.85239913  0.97150799  1
  O  O132  1  0.26145427  0.83816225  0.47180886  1
  O  O133  1  0.76121925  0.83669548  0.47159738  1
  O  O134  1  0.16066194  0.47102485  0.47035802  1
  O  O135  1  0.66137487  0.47173065  0.47037329  1
  O  O136  1  0.08201725  0.67456867  0.47187821  1
  O  O137  1  0.58184791  0.67637293  0.47293464  1
  O  O138  1  0.06751558  0.63933180  0.35772230  1
  O  O139  1  0.56711011  0.64005950  0.35966619  1
  O  O140  1  0.25174159  0.86266243  0.35829443  1
  O  O141  1  0.75063758  0.85925104  0.35743181  1
  O  O142  1  0.18024649  0.49236920  0.36365563  1
  O  O143  1  0.68093507  0.49165461  0.36360686  1
  O  O144  1  0.06786948  0.49641508  0.85986208  1
  O  O145  1  0.56675443  0.49287616  0.85742542  1
  O  O146  1  0.18122487  0.87292790  0.86409108  1
  O  O147  1  0.68224781  0.87557587  0.86491216  1
  O  O148  1  0.25077829  0.64170428  0.85840318  1
  O  O149  1  0.75302303  0.64584396  0.85702002  1
  O  O150  1  0.01334896  0.83909383  0.41802151  1
  O  O151  1  0.51304307  0.84139274  0.41911887  1
  O  O152  1  0.40978290  0.99100875  0.40953567  1
  O  O153  1  0.90902413  0.98993537  0.40932552  1
  O  O154  1  0.08970567  0.21521740  0.41406150  1
  O  O155  1  0.59001481  0.21533875  0.41456140  1
  O  O156  1  0.01343361  0.18669015  0.91927535  1
  O  O157  1  0.51395483  0.18343880  0.91590208  1
  O  O158  1  0.09014252  0.96585342  0.91531335  1
  O  O159  1  0.59172357  0.96941807  0.91690236  1
  O  O160  1  0.40695195  0.83225434  0.91535689  1
  O  O161  1  0.91016814  0.82862399  0.91070047  1
  O  O162  1  0.49038441  0.16004353  0.58979716  1
  O  O163  1  0.98840891  0.16441005  0.59090029  1
  O  O164  1  0.09853950  0.01990580  0.58892513  1
  O  O165  1  0.60063375  0.02540280  0.58596275  1
  O  O166  1  0.42173243  0.81747082  0.58936516  1
  O  O167  1  0.92257889  0.81556521  0.59180807  1
  O  O168  1  0.48868698  0.81225770  0.09175674  1
  O  O169  1  0.98819241  0.81111673  0.09122192  1
  O  O170  1  0.42203366  0.02887666  0.09348380  1
  O  O171  1  0.92223360  0.02818622  0.09300962  1
  O  O172  1  0.09788980  0.17674650  0.08982277  1
  O  O173  1  0.59803923  0.17730122  0.08934220  1
  O  O174  1  0.33869033  0.14358593  0.74030227  1
  O  O175  1  0.84285058  0.14958162  0.74173197  1
  O  O176  1  0.24363549  0.32163701  0.74660335  1
  O  O177  1  0.74786120  0.32249558  0.74624277  1
  O  O178  1  0.42450082  0.51432473  0.74823489  1
  O  O179  1  0.92936844  0.53898407  0.74633744  1
  O  O180  1  0.34073918  0.53353340  0.24212258  1
  O  O181  1  0.84366683  0.53650656  0.24207554  1
  O  O182  1  0.42945588  0.31996979  0.24643813  1
  O  O183  1  0.93005484  0.32342710  0.24728186  1
  O  O184  1  0.24697539  0.16819186  0.24743120  1
  O  O185  1  0.74693021  0.16925099  0.24666141  1
  O  O186  1  0.31139022  0.47966686  0.92587723  1
  O  O187  1  0.81286727  0.48308000  0.92664451  1
  O  O188  1  0.42897038  0.36214053  0.92283071  1
  O  O189  1  0.92795406  0.36432509  0.92274311  1
  O  O190  1  0.24785286  0.12858058  0.92307248  1
  O  O191  1  0.74907748  0.13039049  0.92395775  1
  O  O192  1  0.31171455  0.14421305  0.42523730  1
  O  O193  1  0.81163312  0.14284179  0.42445729  1
  O  O194  1  0.24741222  0.36860021  0.42143166  1
  O  O195  1  0.74772398  0.36836330  0.42197174  1
  O  O196  1  0.42729010  0.49166668  0.42244135  1
  O  O197  1  0.92759930  0.49086415  0.42140483  1
  O  O198  1  0.17420644  0.48532315  0.07703868  1
  O  O199  1  0.67468989  0.48596029  0.07629694  1
  O  O200  1  0.07536321  0.64757659  0.07574392  1
  O  O201  1  0.57606855  0.64963603  0.07392917  1
  O  O202  1  0.25281876  0.84807270  0.07195639  1
  O  O203  1  0.75268491  0.84673038  0.07204215  1
  O  O204  1  0.17490739  0.86440451  0.57641249  1
  O  O205  1  0.67546077  0.86428508  0.57581845  1
  O  O206  1  0.25214583  0.65590438  0.57017448  1
  O  O207  1  0.75336094  0.65700322  0.57096901  1
  O  O208  1  0.07561381  0.50181387  0.57362602  1
  O  O209  1  0.57605882  0.50100920  0.57304668  1
  O  O210  1  0.15238462  0.82409080  0.25661567  1
  O  O211  1  0.65467393  0.82821505  0.25652632  1
  O  O212  1  0.26615282  0.69831844  0.25315133  1
  O  O213  1  0.76597917  0.69557224  0.25274442  1
  O  O214  1  0.08557525  0.46781907  0.25437914  1
  O  O215  1  0.58655979  0.46515377  0.25551195  1
  O  O216  1  0.15264567  0.47877785  0.75694470  1
  O  O217  1  0.65521124  0.48069259  0.75557095  1
  O  O218  1  0.08663432  0.70883254  0.75547855  1
  O  O219  1  0.59370689  0.70698799  0.75781986  1
  O  O220  1  0.26442502  0.83111441  0.75429204  1
  O  O221  1  0.76930063  0.83532053  0.75202312  1
