# generated using pymatgen
data_Na4Sc2Si2SO12
_symmetry_space_group_name_H-M   'P 1'
_cell_length_a   9.21185893
_cell_length_b   9.21185860
_cell_length_c   22.47732296
_cell_angle_alpha   89.92268693
_cell_angle_beta   90.07731306
_cell_angle_gamma   119.73119157
_symmetry_Int_Tables_number   1
_chemical_formula_structural   Na4Sc2Si2SO12
_chemical_formula_sum   'Na24 Sc12 Si12 S6 O72'
_cell_volume   1656.30090460
_cell_formula_units_Z   6
loop_
 _symmetry_equiv_pos_site_id
 _symmetry_equiv_pos_as_xyz
  1  'x, y, z'
loop_
 _atom_site_type_symbol
 _atom_site_label
 _atom_site_symmetry_multiplicity
 _atom_site_fract_x
 _atom_site_fract_y
 _atom_site_fract_z
 _atom_site_occupancy
  Na  Na0  1  0.65045796  0.99916706  0.25582534  1
  Na  Na1  1  0.36633496  0.37968457  0.24094133  1
  Na  Na2  1  0.98947110  0.61843708  0.25417697  1
  Na  Na3  1  0.62031543  0.63366504  0.74094133  1
  Na  Na4  1  0.00083294  0.34954204  0.75582534  1
  Na  Na5  1  0.38156292  0.01052890  0.75417697  1
  Na  Na6  1  0.31712496  0.33250006  0.58915834  1
  Na  Na7  1  0.03300196  0.71301757  0.57427433  1
  Na  Na8  1  0.65613810  0.95177008  0.58750997  1
  Na  Na9  1  0.28698243  0.96699804  0.07427433  1
  Na  Na10  1  0.66749994  0.68287504  0.08915834  1
  Na  Na11  1  0.04822992  0.34386190  0.08750997  1
  Na  Na12  1  0.98379096  0.66583406  0.92249234  1
  Na  Na13  1  0.69966796  0.04635157  0.90760833  1
  Na  Na14  1  0.32280410  0.28510408  0.92084397  1
  Na  Na15  1  0.95364843  0.30033204  0.40760833  1
  Na  Na16  1  0.33416594  0.01620904  0.42249234  1
  Na  Na17  1  0.71489592  0.67719590  0.42084397  1
  Na  Na18  1  0.99063183  0.97573052  0.50024737  1
  Na  Na19  1  0.02426948  0.00936817  0.00024737  1
  Na  Na20  1  0.65729883  0.30906352  0.83358037  1
  Na  Na21  1  0.69093648  0.34270117  0.33358037  1
  Na  Na22  1  0.32396483  0.64239752  0.16691437  1
  Na  Na23  1  0.35760248  0.67603517  0.66691437  1
  Sc  Sc24  1  0.98074493  0.98792885  0.35093102  1
  Sc  Sc25  1  0.01207115  0.01925507  0.85093102  1
  Sc  Sc26  1  0.99756920  0.00254207  0.64947213  1
  Sc  Sc27  1  0.99745793  0.00243080  0.14947213  1
  Sc  Sc28  1  0.64741193  0.32126185  0.68426402  1
  Sc  Sc29  1  0.67873815  0.35258807  0.18426402  1
  Sc  Sc30  1  0.66423620  0.33587507  0.98280513  1
  Sc  Sc31  1  0.66412493  0.33576380  0.48280513  1
  Sc  Sc32  1  0.31407793  0.65459585  0.01759802  1
  Sc  Sc33  1  0.34540415  0.68592207  0.51759802  1
  Sc  Sc34  1  0.33090220  0.66920907  0.31613913  1
  Sc  Sc35  1  0.33079093  0.66909780  0.81613913  1
  Si  Si36  1  0.69901224  0.70203220  0.24924446  1
  Si  Si37  1  0.99966104  0.29621821  0.25019470  1
  Si  Si38  1  0.29796780  0.30098776  0.74924446  1
  Si  Si39  1  0.70378179  0.00033896  0.75019470  1
  Si  Si40  1  0.36567924  0.03536520  0.58257746  1
  Si  Si41  1  0.66632804  0.62955121  0.58352770  1
  Si  Si42  1  0.96463480  0.63432076  0.08257746  1
  Si  Si43  1  0.37044879  0.33367196  0.08352770  1
  Si  Si44  1  0.03234524  0.36869920  0.91591146  1
  Si  Si45  1  0.33299404  0.96288521  0.91686170  1
  Si  Si46  1  0.63130080  0.96765476  0.41591146  1
  Si  Si47  1  0.03711479  0.66700596  0.41686170  1
  S  S48  1  0.29400096  0.00036108  0.25018732  1
  S  S49  1  0.99963892  0.70599904  0.75018732  1
  S  S50  1  0.96066796  0.33369408  0.58352032  1
  S  S51  1  0.66630592  0.03933204  0.08352032  1
  S  S52  1  0.62733396  0.66702808  0.91685432  1
  S  S53  1  0.33297192  0.37266604  0.41685432  1
  O  O54  1  0.21691057  0.02480458  0.30385244  1
  O  O55  1  0.81776326  0.78753584  0.30789139  1
  O  O56  1  0.97998698  0.18244607  0.30912147  1
  O  O57  1  0.21246416  0.18223674  0.80789139  1
  O  O58  1  0.97519542  0.78308943  0.80385244  1
  O  O59  1  0.81755393  0.02001302  0.80912147  1
  O  O60  1  0.79096651  0.97048268  0.69123399  1
  O  O61  1  0.18012877  0.20956524  0.69096069  1
  O  O62  1  0.02097709  0.80895169  0.69661003  1
  O  O63  1  0.79043476  0.81987123  0.19096069  1
  O  O64  1  0.02951732  0.20903349  0.19123399  1
  O  O65  1  0.19104831  0.97902291  0.19661003  1
  O  O66  1  0.88357757  0.35813758  0.63718544  1
  O  O67  1  0.48443026  0.12086884  0.64122439  1
  O  O68  1  0.64665398  0.51577907  0.64245447  1
  O  O69  1  0.87913116  0.51556974  0.14122439  1
  O  O70  1  0.64186242  0.11642243  0.13718544  1
  O  O71  1  0.48422093  0.35334602  0.14245447  1
  O  O72  1  0.45763351  0.30381568  0.02456699  1
  O  O73  1  0.84679577  0.54289824  0.02429369  1
  O  O74  1  0.68764409  0.14228469  0.02994303  1
  O  O75  1  0.45710176  0.15320423  0.52429369  1
  O  O76  1  0.69618432  0.54236649  0.52456699  1
  O  O77  1  0.85771531  0.31235591  0.52994303  1
  O  O78  1  0.55024357  0.69147158  0.97051944  1
  O  O79  1  0.15109626  0.45420284  0.97455839  1
  O  O80  1  0.31331998  0.84911307  0.97578847  1
  O  O81  1  0.54579716  0.84890374  0.47455839  1
  O  O82  1  0.30852842  0.44975643  0.47051944  1
  O  O83  1  0.15088693  0.68668002  0.47578847  1
  O  O84  1  0.12429951  0.63714968  0.35790099  1
  O  O85  1  0.51346177  0.87623224  0.35762769  1
  O  O86  1  0.35431009  0.47561869  0.36327703  1
  O  O87  1  0.12376776  0.48653823  0.85762769  1
  O  O88  1  0.36285032  0.87570049  0.85790099  1
  O  O89  1  0.52438131  0.64568991  0.86327703  1
  O  O90  1  0.03004525  0.84282193  0.41315793  1
  O  O91  1  0.82034421  0.98953536  0.41332642  1
  O  O92  1  0.18678528  0.20192906  0.41116205  1
  O  O93  1  0.01046464  0.17965579  0.91332642  1
  O  O94  1  0.15717807  0.96995475  0.91315793  1
  O  O95  1  0.79807094  0.81321472  0.91116205  1
  O  O96  1  0.97410246  0.17855233  0.58708090  1
  O  O97  1  0.17973529  0.01885787  0.58735398  1
  O  O98  1  0.83093661  0.81898221  0.58702809  1
  O  O99  1  0.98114213  0.82026471  0.08735398  1
  O  O100  1  0.82144767  0.02589754  0.08708090  1
  O  O101  1  0.18101779  0.16906339  0.08702809  1
  O  O102  1  0.69671225  0.17615493  0.74649093  1
  O  O103  1  0.48701121  0.32286836  0.74665942  1
  O  O104  1  0.85345228  0.53526206  0.74449505  1
  O  O105  1  0.67713164  0.51298879  0.24665942  1
  O  O106  1  0.82384507  0.30328775  0.24649093  1
  O  O107  1  0.46473794  0.14654772  0.24449505  1
  O  O108  1  0.64076946  0.51188533  0.92041390  1
  O  O109  1  0.84640229  0.35219087  0.92068698  1
  O  O110  1  0.49760361  0.15231521  0.92036109  1
  O  O111  1  0.64780913  0.15359771  0.42068698  1
  O  O112  1  0.48811467  0.35923054  0.42041390  1
  O  O113  1  0.84768479  0.50239639  0.42036109  1
  O  O114  1  0.36337825  0.50948893  0.07982493  1
  O  O115  1  0.15367721  0.65620236  0.07999342  1
  O  O116  1  0.52011828  0.86859606  0.07782905  1
  O  O117  1  0.34379764  0.84632279  0.57999342  1
  O  O118  1  0.49051107  0.63662175  0.57982493  1
  O  O119  1  0.13140394  0.47988172  0.57782905  1
  O  O120  1  0.30743546  0.84521933  0.25374790  1
  O  O121  1  0.51306829  0.68552487  0.25402098  1
  O  O122  1  0.16426961  0.48564921  0.25369509  1
  O  O123  1  0.31447513  0.48693171  0.75402098  1
  O  O124  1  0.15478067  0.69256454  0.75374790  1
  O  O125  1  0.51435079  0.83573039  0.75369509  1
