# generated using pymatgen
data_CsMgSb(PO4)2
_symmetry_space_group_name_H-M   'P 1'
_cell_length_a   5.37834100
_cell_length_b   5.37648544
_cell_length_c   9.35223821
_cell_angle_alpha   89.98162410
_cell_angle_beta   89.99715726
_cell_angle_gamma   120.00689215
_symmetry_Int_Tables_number   1
_chemical_formula_structural   CsMgSb(PO4)2
_chemical_formula_sum   'Cs1 Mg1 Sb1 P2 O8'
_cell_volume   234.18700890
_cell_formula_units_Z   1
loop_
 _symmetry_equiv_pos_site_id
 _symmetry_equiv_pos_as_xyz
  1  'x, y, z'
loop_
 _atom_site_type_symbol
 _atom_site_label
 _atom_site_symmetry_multiplicity
 _atom_site_fract_x
 _atom_site_fract_y
 _atom_site_fract_z
 _atom_site_occupancy
  Cs  Cs0  1  0.99979800  0.00061300  0.98941400  1
  Mg  Mg1  1  0.66617900  0.33413800  0.59187300  1
  Sb  Sb2  1  0.99989200  0.00045900  0.47718700  1
  P  P3  1  0.33299000  0.66726200  0.70613900  1
  P  P4  1  0.66632200  0.33324500  0.28951400  1
  O  O5  1  0.66582500  0.33455000  0.13044500  1
  O  O6  1  0.58893700  0.95278000  0.64186200  1
  O  O7  1  0.36248100  0.41119400  0.64222300  1
  O  O8  1  0.33288500  0.66750400  0.86690300  1
  O  O9  1  0.72532700  0.62370600  0.36320500  1
  O  O10  1  0.37537800  0.10068700  0.36236400  1
  O  O11  1  0.89891100  0.27386100  0.36131800  1
  O  O12  1  0.04757500  0.63750000  0.64183800  1
