# generated using pymatgen
data_NaLaAlP(SO6)2
_symmetry_space_group_name_H-M   'P 1'
_cell_length_a   8.86495804
_cell_length_b   8.77041883
_cell_length_c   23.46637664
_cell_angle_alpha   90.27566551
_cell_angle_beta   89.58288333
_cell_angle_gamma   119.67326737
_symmetry_Int_Tables_number   1
_chemical_formula_structural   NaLaAlP(SO6)2
_chemical_formula_sum   'Na6 La6 Al6 P6 S12 O72'
_cell_volume   1585.19328357
_cell_formula_units_Z   6
loop_
 _symmetry_equiv_pos_site_id
 _symmetry_equiv_pos_as_xyz
  1  'x, y, z'
loop_
 _atom_site_type_symbol
 _atom_site_label
 _atom_site_symmetry_multiplicity
 _atom_site_fract_x
 _atom_site_fract_y
 _atom_site_fract_z
 _atom_site_occupancy
  Na  Na0  1  0.99242165  0.99378052  0.50043665  1
  Na  Na1  1  0.00657469  0.98594238  0.00077414  1
  Na  Na2  1  0.64874440  0.29065663  0.82294490  1
  Na  Na3  1  0.65464410  0.30891215  0.34583266  1
  Na  Na4  1  0.30967374  0.67664287  0.16463810  1
  Na  Na5  1  0.34587327  0.67090586  0.65171470  1
  La  La6  1  0.99462216  0.00106841  0.84833827  1
  La  La7  1  0.00897195  0.99250765  0.15062631  1
  La  La8  1  0.66194116  0.33167622  0.18960896  1
  La  La9  1  0.66302809  0.32846768  0.97661726  1
  La  La10  1  0.33531737  0.68377020  0.33354332  1
  La  La11  1  0.33773673  0.67650879  0.79912202  1
  Al  Al12  1  0.99079026  0.99213373  0.35802267  1
  Al  Al13  1  0.97673322  0.98917416  0.64193873  1
  Al  Al14  1  0.66379634  0.33130517  0.67453178  1
  Al  Al15  1  0.67680999  0.33712864  0.49127667  1
  Al  Al16  1  0.32456747  0.67685302  0.01591452  1
  Al  Al17  1  0.39956274  0.68916176  0.51637012  1
  P  P18  1  0.29296887  0.01349063  0.26576758  1
  P  P19  1  0.71686827  0.02713221  0.73412210  1
  P  P20  1  0.67200609  0.61861940  0.58299711  1
  P  P21  1  0.98933986  0.63794364  0.07863415  1
  P  P22  1  0.31596579  0.94399824  0.91755542  1
  P  P23  1  0.65707913  0.99207988  0.42353432  1
  S  S24  1  0.71130416  0.70549294  0.26447935  1
  S  S25  1  0.99331722  0.28588798  0.26412030  1
  S  S26  1  0.29836064  0.27412201  0.73038419  1
  S  S27  1  0.97270676  0.69349262  0.73207697  1
  S  S28  1  0.95874693  0.33294951  0.58374429  1
  S  S29  1  0.38305542  0.03777874  0.57936013  1
  S  S30  1  0.64936433  0.00163408  0.07941615  1
  S  S31  1  0.35292790  0.35380283  0.07835385  1
  S  S32  1  0.61853351  0.68559121  0.92078337  1
  S  S33  1  0.06455552  0.38137048  0.91968701  1
  S  S34  1  0.34617145  0.36653888  0.42816391  1
  S  S35  1  0.01468565  0.66265697  0.42474991  1
  O  O36  1  0.17468171  0.00389336  0.31673916  1
  O  O37  1  0.80897078  0.81720892  0.31374849  1
  O  O38  1  0.99611687  0.18180168  0.31363480  1
  O  O39  1  0.23225950  0.19257442  0.78720825  1
  O  O40  1  0.95938144  0.76342299  0.78849816  1
  O  O41  1  0.80116510  0.04471701  0.79333659  1
  O  O42  1  0.82662484  0.00783553  0.68702081  1
  O  O43  1  0.18272455  0.16730884  0.68370673  1
  O  O44  1  0.99587679  0.81637496  0.68566407  1
  O  O45  1  0.78838869  0.78847825  0.20927119  1
  O  O46  1  0.98523344  0.20118287  0.20868068  1
  O  O47  1  0.21857823  0.01994472  0.20718650  1
  O  O48  1  0.86969604  0.35754072  0.63425333  1
  O  O49  1  0.48876138  0.11373236  0.63178500  1
  O  O50  1  0.63146139  0.49754588  0.63505409  1
  O  O51  1  0.90063936  0.54696563  0.13594205  1
  O  O52  1  0.63713368  0.08605758  0.13320940  1
  O  O53  1  0.44345920  0.36038670  0.13238198  1
  O  O54  1  0.43108814  0.30900758  0.03003860  1
  O  O55  1  0.87125250  0.54361005  0.02813972  1
  O  O56  1  0.68199442  0.11620717  0.02998903  1
  O  O57  1  0.47005091  0.15691268  0.53066290  1
  O  O58  1  0.70077479  0.52983515  0.53099652  1
  O  O59  1  0.84996472  0.30525229  0.53270449  1
  O  O60  1  0.50892429  0.66420549  0.97128273  1
  O  O61  1  0.15357009  0.48796256  0.97042106  1
  O  O62  1  0.33289656  0.85104151  0.97107567  1
  O  O63  1  0.55690914  0.84412187  0.46915342  1
  O  O64  1  0.32174900  0.47747557  0.47357047  1
  O  O65  1  0.14794745  0.69933834  0.46817605  1
  O  O66  1  0.05862159  0.61265446  0.36911885  1
  O  O67  1  0.55047596  0.94405592  0.36858314  1
  O  O68  1  0.38786853  0.45954487  0.37306015  1
  O  O69  1  0.16200941  0.45319574  0.86609661  1
  O  O70  1  0.30097364  0.84547497  0.86132125  1
  O  O71  1  0.54167142  0.69806957  0.86668119  1
  O  O72  1  0.99844918  0.82478405  0.41608646  1
  O  O73  1  0.83525799  0.00206936  0.41219975  1
  O  O74  1  0.18197521  0.19720420  0.42407518  1
  O  O75  1  0.04193168  0.20402045  0.92821277  1
  O  O76  1  0.15154061  0.96102534  0.92300965  1
  O  O77  1  0.78861010  0.84733417  0.92789045  1
  O  O78  1  0.97654101  0.16994592  0.58972019  1
  O  O79  1  0.20451725  0.01008906  0.58601555  1
  O  O80  1  0.83161777  0.80735977  0.59138308  1
  O  O81  1  0.03014071  0.83053082  0.07763288  1
  O  O82  1  0.79140477  0.96106765  0.08211633  1
  O  O83  1  0.16716038  0.21804926  0.08121542  1
  O  O84  1  0.69753921  0.19180597  0.72668594  1
  O  O85  1  0.47360991  0.29166732  0.72531497  1
  O  O86  1  0.81158741  0.52231217  0.72628316  1
  O  O87  1  0.71226325  0.53780236  0.26839629  1
  O  O88  1  0.83556832  0.30394963  0.26843615  1
  O  O89  1  0.47359965  0.17972857  0.26917202  1
  O  O90  1  0.64602310  0.53265091  0.91453016  1
  O  O91  1  0.89179321  0.36741638  0.91211219  1
  O  O92  1  0.47898009  0.12764534  0.90964880  1
  O  O93  1  0.67886821  0.16910388  0.44329396  1
  O  O94  1  0.49365254  0.33840775  0.44182073  1
  O  O95  1  0.84148103  0.51301553  0.43981551  1
  O  O96  1  0.36750671  0.52654547  0.06994181  1
  O  O97  1  0.16317972  0.63857905  0.07287480  1
  O  O98  1  0.48158062  0.83801956  0.07295532  1
  O  O99  1  0.37153261  0.86078781  0.56819164  1
  O  O100  1  0.50980415  0.64432296  0.57231790  1
  O  O101  1  0.13356802  0.48690913  0.57742654  1
  O  O102  1  0.31077825  0.84685472  0.26277617  1
  O  O103  1  0.53184435  0.67363775  0.26435532  1
  O  O104  1  0.15174532  0.45981632  0.26324262  1
  O  O105  1  0.31389860  0.45038785  0.72925114  1
  O  O106  1  0.12615120  0.66798566  0.73075471  1
  O  O107  1  0.53463549  0.86105156  0.73226941  1
