# generated using pymatgen
data_LaMgCrWO6
_symmetry_space_group_name_H-M   'P 1'
_cell_length_a   5.43338051
_cell_length_b   5.60063572
_cell_length_c   5.56317685
_cell_angle_alpha   59.47498828
_cell_angle_beta   118.54482483
_cell_angle_gamma   89.98220102
_symmetry_Int_Tables_number   1
_chemical_formula_structural   LaMgCrWO6
_chemical_formula_sum   'La1 Mg1 Cr1 W1 O6'
_cell_volume   121.31524296
_cell_formula_units_Z   1
loop_
 _symmetry_equiv_pos_site_id
 _symmetry_equiv_pos_as_xyz
  1  'x, y, z'
loop_
 _atom_site_type_symbol
 _atom_site_label
 _atom_site_symmetry_multiplicity
 _atom_site_fract_x
 _atom_site_fract_y
 _atom_site_fract_z
 _atom_site_occupancy
  La  La0  1  0.75974600  0.26087600  0.49763300  1
  Mg  Mg1  1  0.21984200  0.77196100  0.50818700  1
  Cr  Cr2  1  0.99921600  0.50985100  0.99699100  1
  W  W3  1  0.50004900  0.00995600  0.00127800  1
  O  O4  1  0.34310600  0.25807500  0.48484700  1
  O  O5  1  0.21772700  0.36007300  0.86369700  1
  O  O6  1  0.81982000  0.68974200  0.13301000  1
  O  O7  1  0.18743400  0.82346000  0.86486300  1
  O  O8  1  0.85249800  0.16349000  0.13801300  1
  O  O9  1  0.61079400  0.75583200  0.51189200  1
