# generated using pymatgen
data_Fe(PO3)3
_symmetry_space_group_name_H-M   'P 1'
_cell_length_a   8.44690886
_cell_length_b   8.53147036
_cell_length_c   8.66103327
_cell_angle_alpha   90.04397542
_cell_angle_beta   90.20363670
_cell_angle_gamma   90.61825528
_symmetry_Int_Tables_number   1
_chemical_formula_structural   Fe(PO3)3
_chemical_formula_sum   'Fe4 P12 O36'
_cell_volume   624.11300548
_cell_formula_units_Z   4
loop_
 _symmetry_equiv_pos_site_id
 _symmetry_equiv_pos_as_xyz
  1  'x, y, z'
loop_
 _atom_site_type_symbol
 _atom_site_label
 _atom_site_symmetry_multiplicity
 _atom_site_fract_x
 _atom_site_fract_y
 _atom_site_fract_z
 _atom_site_occupancy
  Fe  Fe0  1  0.86641900  0.64442200  0.35100500  1
  Fe  Fe1  1  0.63392500  0.35527800  0.85153500  1
  Fe  Fe2  1  0.36262400  0.85969700  0.64789300  1
  Fe  Fe3  1  0.13324100  0.14181300  0.15109800  1
  P  P4  1  0.67926400  0.98397900  0.81071400  1
  P  P5  1  0.70005100  0.30561900  0.44872700  1
  P  P6  1  0.80050100  0.69331600  0.94946500  1
  P  P7  1  0.82216900  0.01550000  0.30815100  1
  P  P8  1  0.03508400  0.68055300  0.69014500  1
  P  P9  1  0.17928900  0.51065100  0.19223900  1
  P  P10  1  0.20703500  0.19074100  0.55079400  1
  P  P11  1  0.29089700  0.80973800  0.05347300  1
  P  P12  1  0.31981500  0.48991900  0.68936600  1
  P  P13  1  0.46337000  0.31935400  0.18900600  1
  P  P14  1  0.53295400  0.82536000  0.30758900  1
  P  P15  1  0.96917100  0.17465800  0.81292400  1
  O  O16  1  0.63510000  0.69074100  0.35728000  1
  O  O17  1  0.96088300  0.72671700  0.85283000  1
  O  O18  1  0.90264100  0.87644500  0.37827900  1
  O  O19  1  0.90656500  0.62807000  0.58206500  1
  O  O20  1  0.04817400  0.21537900  0.64968700  1
  O  O21  1  0.09657100  0.36849400  0.12479400  1
  O  O22  1  0.09517000  0.12102500  0.92279000  1
  O  O23  1  0.09936400  0.59220300  0.32453700  1
  O  O24  1  0.13733500  0.81603000  0.63362600  1
  O  O25  1  0.14411200  0.53612400  0.74367100  1
  O  O26  1  0.15916200  0.15877000  0.38770000  1
  O  O27  1  0.18397800  0.91668900  0.14328400  1
  O  O28  1  0.21329900  0.63451900  0.05730500  1
  O  O29  1  0.28220300  0.36629600  0.55370300  1
  O  O30  1  0.32031400  0.08604100  0.63719700  1
  O  O31  1  0.33331000  0.84104000  0.88962300  1
  O  O32  1  0.35612400  0.46481800  0.24420300  1
  O  O33  1  0.35903400  0.18622800  0.13282900  1
  O  O34  1  0.40104900  0.40701300  0.82028300  1
  O  O35  1  0.40881600  0.88188600  0.41521800  1
  O  O36  1  0.40169100  0.63144300  0.62129700  1
  O  O37  1  0.45426000  0.78054300  0.14510100  1
  O  O38  1  0.53940000  0.27271200  0.35188700  1
  O  O39  1  0.86726800  0.31010200  0.85969300  1
  O  O40  1  0.59143700  0.37299200  0.08148800  1
  O  O41  1  0.59651500  0.89963300  0.67982400  1
  O  O42  1  0.90428000  0.09846700  0.17613100  1
  O  O43  1  0.64730600  0.96845600  0.25034100  1
  O  O44  1  0.65303800  0.33500400  0.61240600  1
  O  O45  1  0.69522500  0.58074500  0.86313100  1
  O  O46  1  0.71875300  0.86273200  0.94709000  1
  O  O47  1  0.78302200  0.13655000  0.44464500  1
  O  O48  1  0.80482700  0.41889100  0.36354800  1
  O  O49  1  0.84903900  0.66231100  0.11245800  1
  O  O50  1  0.85549700  0.03069600  0.75598100  1
  O  O51  1  0.59942900  0.12359100  0.87994400  1
