# generated using pymatgen
data_CaTi(SO4)3
_symmetry_space_group_name_H-M   'P 1'
_cell_length_a   8.99170449
_cell_length_b   8.99170418
_cell_length_c   22.29000948
_cell_angle_alpha   90.00000000
_cell_angle_beta   90.00000000
_cell_angle_gamma   120.00000109
_symmetry_Int_Tables_number   1
_chemical_formula_structural   CaTi(SO4)3
_chemical_formula_sum   'Ca6 Ti6 S18 O72'
_cell_volume   1560.71971438
_cell_formula_units_Z   6
loop_
 _symmetry_equiv_pos_site_id
 _symmetry_equiv_pos_as_xyz
  1  'x, y, z'
loop_
 _atom_site_type_symbol
 _atom_site_label
 _atom_site_symmetry_multiplicity
 _atom_site_fract_x
 _atom_site_fract_y
 _atom_site_fract_z
 _atom_site_occupancy
  Ca  Ca0  1  0.00000000  0.00000000  0.36524924  1
  Ca  Ca1  1  0.00000000  0.00000000  0.86524924  1
  Ca  Ca2  1  0.66666700  0.33333300  0.69858224  1
  Ca  Ca3  1  0.66666700  0.33333300  0.19858224  1
  Ca  Ca4  1  0.33333300  0.66666700  0.03191624  1
  Ca  Ca5  1  0.33333300  0.66666700  0.53191624  1
  Ti  Ti6  1  0.00000000  0.00000000  0.64326604  1
  Ti  Ti7  1  0.00000000  0.00000000  0.14326604  1
  Ti  Ti8  1  0.66666700  0.33333300  0.97659904  1
  Ti  Ti9  1  0.66666700  0.33333300  0.47659904  1
  Ti  Ti10  1  0.33333300  0.66666700  0.30993304  1
  Ti  Ti11  1  0.33333300  0.66666700  0.80993304  1
  S  S12  1  0.26661502  0.96586826  0.24994300  1
  S  S13  1  0.69925324  0.73338498  0.24994300  1
  S  S14  1  0.03413174  0.30074676  0.24994300  1
  S  S15  1  0.26661502  0.30074676  0.74994300  1
  S  S16  1  0.03413174  0.73338498  0.74994300  1
  S  S17  1  0.69925324  0.96586826  0.74994300  1
  S  S18  1  0.93328202  0.29920126  0.58327600  1
  S  S19  1  0.36592024  0.06671798  0.58327600  1
  S  S20  1  0.70079874  0.63407976  0.58327600  1
  S  S21  1  0.93328202  0.63407976  0.08327600  1
  S  S22  1  0.70079874  0.06671798  0.08327600  1
  S  S23  1  0.36592024  0.29920126  0.08327600  1
  S  S24  1  0.59994802  0.63253526  0.91661000  1
  S  S25  1  0.03258624  0.40005198  0.91661000  1
  S  S26  1  0.36746474  0.96741376  0.91661000  1
  S  S27  1  0.59994802  0.96741376  0.41661000  1
  S  S28  1  0.36746474  0.40005198  0.41661000  1
  S  S29  1  0.03258624  0.63253526  0.41661000  1
  O  O30  1  0.20030402  0.00170618  0.30359290  1
  O  O31  1  0.80140216  0.79969598  0.30359290  1
  O  O32  1  0.99829382  0.19859784  0.30359290  1
  O  O33  1  0.20030402  0.19859784  0.80359290  1
  O  O34  1  0.99829382  0.79969598  0.80359290  1
  O  O35  1  0.80140216  0.00170618  0.80359290  1
  O  O36  1  0.78707985  0.93780246  0.69688033  1
  O  O37  1  0.15072261  0.21292015  0.69688033  1
  O  O38  1  0.06219754  0.84927739  0.69688033  1
  O  O39  1  0.78707985  0.84927739  0.19688033  1
  O  O40  1  0.06219754  0.21292015  0.19688033  1
  O  O41  1  0.15072261  0.93780246  0.19688033  1
  O  O42  1  0.86697102  0.33503918  0.63692590  1
  O  O43  1  0.46806916  0.13302898  0.63692590  1
  O  O44  1  0.66496082  0.53193084  0.63692590  1
  O  O45  1  0.86697102  0.53193084  0.13692590  1
  O  O46  1  0.66496082  0.13302898  0.13692590  1
  O  O47  1  0.46806916  0.33503918  0.13692590  1
  O  O48  1  0.45374685  0.27113546  0.03021333  1
  O  O49  1  0.81738961  0.54625315  0.03021333  1
  O  O50  1  0.72886454  0.18261039  0.03021333  1
  O  O51  1  0.45374685  0.18261039  0.53021333  1
  O  O52  1  0.72886454  0.54625315  0.53021333  1
  O  O53  1  0.81738961  0.27113546  0.53021333  1
  O  O54  1  0.53363702  0.66837318  0.97025990  1
  O  O55  1  0.13473516  0.46636298  0.97025990  1
  O  O56  1  0.33162682  0.86526484  0.97025990  1
  O  O57  1  0.53363702  0.86526484  0.47025990  1
  O  O58  1  0.33162682  0.46636298  0.47025990  1
  O  O59  1  0.13473516  0.66837318  0.47025990  1
  O  O60  1  0.12041285  0.60446946  0.36354733  1
  O  O61  1  0.48405561  0.87958715  0.36354733  1
  O  O62  1  0.39553054  0.51594439  0.36354733  1
  O  O63  1  0.12041285  0.51594439  0.86354733  1
  O  O64  1  0.39553054  0.87958715  0.86354733  1
  O  O65  1  0.48405561  0.60446946  0.86354733  1
  O  O66  1  0.98634105  0.76243042  0.40451673  1
  O  O67  1  0.77608937  0.01365895  0.40451673  1
  O  O68  1  0.23756958  0.22391063  0.40451673  1
  O  O69  1  0.98634105  0.22391063  0.90451673  1
  O  O70  1  0.23756958  0.01365895  0.90451673  1
  O  O71  1  0.77608937  0.76243042  0.90451673  1
  O  O72  1  0.93101320  0.12863881  0.59222862  1
  O  O73  1  0.19762561  0.06898680  0.59222862  1
  O  O74  1  0.87136119  0.80237439  0.59222862  1
  O  O75  1  0.93101320  0.80237439  0.09222862  1
  O  O76  1  0.87136119  0.06898680  0.09222862  1
  O  O77  1  0.19762561  0.12863881  0.09222862  1
  O  O78  1  0.65300805  0.09576342  0.73784973  1
  O  O79  1  0.44275637  0.34699195  0.73784973  1
  O  O80  1  0.90423658  0.55724363  0.73784973  1
  O  O81  1  0.65300805  0.55724363  0.23784973  1
  O  O82  1  0.90423658  0.34699195  0.23784973  1
  O  O83  1  0.44275637  0.09576342  0.23784973  1
  O  O84  1  0.59768020  0.46197181  0.92556162  1
  O  O85  1  0.86429261  0.40231980  0.92556162  1
  O  O86  1  0.53802819  0.13570739  0.92556162  1
  O  O87  1  0.59768020  0.13570739  0.42556162  1
  O  O88  1  0.53802819  0.40231980  0.42556162  1
  O  O89  1  0.86429261  0.46197181  0.42556162  1
  O  O90  1  0.31967405  0.42909742  0.07118373  1
  O  O91  1  0.10942237  0.68032595  0.07118373  1
  O  O92  1  0.57090258  0.89057763  0.07118373  1
  O  O93  1  0.31967405  0.89057763  0.57118373  1
  O  O94  1  0.57090258  0.68032595  0.57118373  1
  O  O95  1  0.10942237  0.42909742  0.57118373  1
  O  O96  1  0.26434620  0.79530581  0.25889562  1
  O  O97  1  0.53095861  0.73565380  0.25889562  1
  O  O98  1  0.20469419  0.46904139  0.25889562  1
  O  O99  1  0.26434620  0.46904139  0.75889562  1
  O  O100  1  0.20469419  0.73565380  0.75889562  1
  O  O101  1  0.53095861  0.79530581  0.75889562  1
