# generated using pymatgen
data_BaH2
_symmetry_space_group_name_H-M   'P 1'
_cell_length_a   4.17829280
_cell_length_b   6.84279802
_cell_length_c   7.89075743
_cell_angle_alpha   90.00000000
_cell_angle_beta   90.00000000
_cell_angle_gamma   90.00000000
_symmetry_Int_Tables_number   1
_chemical_formula_structural   BaH2
_chemical_formula_sum   'Ba4 H8'
_cell_volume   225.60633193
_cell_formula_units_Z   4
loop_
 _symmetry_equiv_pos_site_id
 _symmetry_equiv_pos_as_xyz
  1  'x, y, z'
loop_
 _atom_site_type_symbol
 _atom_site_label
 _atom_site_symmetry_multiplicity
 _atom_site_fract_x
 _atom_site_fract_y
 _atom_site_fract_z
 _atom_site_occupancy
  Ba  Ba0  1  0.25000000  0.76051959  0.61288629  1
  Ba  Ba1  1  0.75000000  0.23948041  0.38711371  1
  Ba  Ba2  1  0.25000000  0.26051959  0.88711371  1
  Ba  Ba3  1  0.75000000  0.73948041  0.11288629  1
  H  H4  1  0.25000000  0.52816109  0.31917722  1
  H  H5  1  0.75000000  0.47183891  0.68082278  1
  H  H6  1  0.25000000  0.02816109  0.18082278  1
  H  H7  1  0.75000000  0.97183891  0.81917722  1
  H  H8  1  0.75000000  0.35491605  0.07156953  1
  H  H9  1  0.25000000  0.64508395  0.92843047  1
  H  H10  1  0.75000000  0.85491605  0.42843047  1
  H  H11  1  0.25000000  0.14508395  0.57156953  1
