# generated using pymatgen
data_Ni(ClO4)2
_symmetry_space_group_name_H-M   'P 1'
_cell_length_a   4.74376451
_cell_length_b   16.44165119
_cell_length_c   7.70104096
_cell_angle_alpha   100.28498344
_cell_angle_beta   72.04793154
_cell_angle_gamma   90.05706288
_symmetry_Int_Tables_number   1
_chemical_formula_structural   Ni(ClO4)2
_chemical_formula_sum   'Ni4 Cl8 O32'
_cell_volume   561.28360463
_cell_formula_units_Z   4
loop_
 _symmetry_equiv_pos_site_id
 _symmetry_equiv_pos_as_xyz
  1  'x, y, z'
loop_
 _atom_site_type_symbol
 _atom_site_label
 _atom_site_symmetry_multiplicity
 _atom_site_fract_x
 _atom_site_fract_y
 _atom_site_fract_z
 _atom_site_occupancy
  Ni  Ni0  1  0.49986943  0.75000714  0.00004953  1
  Ni  Ni1  1  0.00008273  0.49998424  -0.00003725  1
  Ni  Ni2  1  0.50001122  0.25000271  -0.00000795  1
  Ni  Ni3  1  -0.00008491  0.00000865  0.00002280  1
  Cl  Cl4  1  0.12025170  0.81329408  0.76000739  1
  Cl  Cl5  1  0.62039750  0.56327306  0.75982129  1
  Cl  Cl6  1  0.12033346  0.31327568  0.75991018  1
  Cl  Cl7  1  0.62031861  0.06330174  0.75988020  1
  Cl  Cl8  1  0.37963101  0.93672615  0.24011640  1
  Cl  Cl9  1  0.87964577  0.68671583  0.24014728  1
  Cl  Cl10  1  0.37973757  0.43669531  0.24003108  1
  Cl  Cl11  1  0.87969584  0.18671503  0.24008945  1
  O  O12  1  0.21738522  0.79708891  0.56547810  1
  O  O13  1  0.71749438  0.54706569  0.56529183  1
  O  O14  1  0.21749065  0.29709490  0.56537123  1
  O  O15  1  0.71740184  0.04709757  0.56536351  1
  O  O16  1  0.28244643  0.95290867  0.43464593  1
  O  O17  1  0.78258234  0.70291649  0.43467238  1
  O  O18  1  0.28261647  0.45290712  0.43454699  1
  O  O19  1  0.78259569  0.20292745  0.43460983  1
  O  O20  1  0.95332718  0.89331541  0.83136967  1
  O  O21  1  0.45365043  0.64332775  0.83119232  1
  O  O22  1  0.95338248  0.39330214  0.83133202  1
  O  O23  1  0.45348457  0.14334845  0.83126671  1
  O  O24  1  0.92771872  0.74935198  0.83130276  1
  O  O25  1  0.42772141  0.49934361  0.83111905  1
  O  O26  1  0.92777598  0.24931617  0.83115793  1
  O  O27  1  0.42769407  -0.00062489  0.83122205  1
  O  O28  1  0.37279695  0.81500144  0.83121194  1
  O  O29  1  0.87298059  0.56492487  0.83100082  1
  O  O30  1  0.37288274  0.31497419  0.83114670  1
  O  O31  1  0.87289662  0.06497665  0.83108681  1
  O  O32  1  0.54652346  0.85669857  0.16872020  1
  O  O33  1  0.04644690  0.60666855  0.16873907  1
  O  O34  1  0.54662383  0.35667233  0.16869178  1
  O  O35  1  0.04657438  0.10667140  0.16869771  1
  O  O36  1  0.57222082  0.00067917  0.16889360  1
  O  O37  1  0.07227745  0.75065372  0.16884944  1
  O  O38  1  0.57227884  0.50063067  0.16872958  1
  O  O39  1  0.07229845  0.25065229  0.16875158  1
  O  O40  1  0.12712244  0.93504119  0.16886439  1
  O  O41  1  0.62706026  0.68505689  0.16896651  1
  O  O42  1  0.12721490  0.43499269  0.16882230  1
  O  O43  1  0.62714357  0.18502334  0.16885389  1
