# generated using pymatgen
data_Na4YInSi(PO6)2
_symmetry_space_group_name_H-M   'P 1'
_cell_length_a   9.35150499
_cell_length_b   9.36380950
_cell_length_c   23.08369498
_cell_angle_alpha   89.96486385
_cell_angle_beta   90.18164144
_cell_angle_gamma   120.00291318
_symmetry_Int_Tables_number   1
_chemical_formula_structural   Na4YInSi(PO6)2
_chemical_formula_sum   'Na24 Y6 In6 Si6 P12 O72'
_cell_volume   1750.47064733
_cell_formula_units_Z   6
loop_
 _symmetry_equiv_pos_site_id
 _symmetry_equiv_pos_as_xyz
  1  'x, y, z'
loop_
 _atom_site_type_symbol
 _atom_site_label
 _atom_site_symmetry_multiplicity
 _atom_site_fract_x
 _atom_site_fract_y
 _atom_site_fract_z
 _atom_site_occupancy
  Na  Na0  1  0.64293003  0.00848730  0.25049579  1
  Na  Na1  1  0.35954056  0.36365866  0.24722642  1
  Na  Na2  1  0.99608915  0.62446620  0.24877691  1
  Na  Na3  1  0.63392691  0.64188297  0.75007104  1
  Na  Na4  1  0.99719807  0.36062526  0.75320012  1
  Na  Na5  1  0.37192997  0.99580002  0.75161453  1
  Na  Na6  1  0.30366067  0.32895870  0.58108541  1
  Na  Na7  1  0.04152152  0.70424623  0.57961283  1
  Na  Na8  1  0.65822578  0.96611749  0.58650115  1
  Na  Na9  1  0.29451139  0.95750186  0.07964315  1
  Na  Na10  1  0.67021532  0.69679543  0.08069060  1
  Na  Na11  1  0.03379295  0.34039439  0.08634046  1
  Na  Na12  1  0.97041263  0.67091959  0.92044932  1
  Na  Na13  1  0.69607195  0.03379339  0.91293253  1
  Na  Na14  1  0.33339868  0.29522600  0.91671087  1
  Na  Na15  1  0.96798992  0.30821285  0.41292442  1
  Na  Na16  1  0.32758701  0.02502618  0.42146000  1
  Na  Na17  1  0.70555226  0.66646061  0.41712971  1
  Na  Na18  1  0.00713456  0.99493819  0.50014765  1
  Na  Na19  1  0.00344315  0.99277532  0.99825233  1
  Na  Na20  1  0.66359561  0.32335593  0.83484792  1
  Na  Na21  1  0.67895538  0.33851123  0.33166970  1
  Na  Na22  1  0.32170278  0.65885637  0.16516297  1
  Na  Na23  1  0.34060045  0.67819080  0.66670982  1
  Y  Y24  1  0.00068485  0.00131626  0.34821220  1
  Y  Y25  1  0.99914377  0.99888769  0.65258956  1
  Y  Y26  1  0.00076007  -0.00009531  0.14935718  1
  Y  Y27  1  0.66353705  0.32539501  0.68281847  1
  Y  Y28  1  0.66578288  0.33192633  0.48515610  1
  Y  Y29  1  0.32593843  0.66337271  0.31722426  1
  In  In30  1  0.00096458  0.00009341  0.84947748  1
  In  In31  1  0.67397112  0.33572848  0.17992440  1
  In  In32  1  0.66651870  0.33298198  0.98388558  1
  In  In33  1  0.32787902  0.66936717  0.01426328  1
  In  In34  1  0.33140388  0.67127773  0.51493259  1
  In  In35  1  0.33809319  0.67521093  0.81999336  1
  Si  Si36  1  0.99543392  0.30177729  0.24836139  1
  Si  Si37  1  0.69888260  0.99592081  0.75298565  1
  Si  Si38  1  0.36144724  0.02482214  0.58202391  1
  Si  Si39  1  0.96485558  0.62751742  0.08089590  1
  Si  Si40  1  0.33332965  0.96846525  0.91686045  1
  Si  Si41  1  0.03127212  0.66718122  0.41767594  1
  P  P42  1  0.30718214  0.00664236  0.24851554  1
  P  P43  1  0.69809408  0.69515355  0.24870534  1
  P  P44  1  0.29801524  0.30333382  0.75281489  1
  P  P45  1  0.00209944  0.70079806  0.75261930  1
  P  P46  1  0.97304876  0.33674440  0.58298188  1
  P  P47  1  0.66233667  0.63390199  0.58270906  1
  P  P48  1  0.66219328  0.03483641  0.08190893  1
  P  P49  1  0.37478092  0.33755338  0.08210993  1
  P  P50  1  0.62773904  0.66502116  0.91751543  1
  P  P51  1  0.03885244  0.37048657  0.91624636  1
  P  P52  1  0.63202951  0.96265269  0.41763962  1
  P  P53  1  0.33381550  0.37106612  0.41834464  1
  O  O54  1  0.22601476  0.03113610  0.30320695  1
  O  O55  1  0.80645507  0.77516063  0.30322342  1
  O  O56  1  0.96731883  0.19028178  0.30665819  1
  O  O57  1  0.22015424  0.19105648  0.80646232  1
  O  O58  1  0.97452097  0.78207789  0.80677195  1
  O  O59  1  0.81816918  0.02951350  0.80998801  1
  O  O60  1  0.77844771  0.96627326  0.69438533  1
  O  O61  1  0.19294403  0.22401488  0.69774045  1
  O  O62  1  0.03175509  0.80794665  0.69806010  1
  O  O63  1  0.78158772  0.80300460  0.19488569  1
  O  O64  1  0.02496697  0.21539216  0.19170946  1
  O  O65  1  0.19522567  0.97446153  0.19509350  1
  O  O66  1  0.89182908  0.36554218  0.63684556  1
  O  O67  1  0.47631721  0.11192124  0.63958842  1
  O  O68  1  0.63861936  0.52787293  0.63726541  1
  O  O69  1  0.88576940  0.51713981  0.13982930  1
  O  O70  1  0.62935138  0.11016742  0.13682579  1
  O  O71  1  0.47956097  0.36299726  0.13774144  1
  O  O72  1  0.45160652  0.30576511  0.02787086  1
  O  O73  1  0.84775597  0.54500808  0.02354499  1
  O  O74  1  0.69160042  0.14306855  0.02765440  1
  O  O75  1  0.44426509  0.13943912  0.52484885  1
  O  O76  1  0.69121044  0.55366264  0.52880609  1
  O  O77  1  0.86526626  0.31059077  0.52879950  1
  O  O78  1  0.54714466  0.69265819  0.97209754  1
  O  O79  1  0.14797294  0.44745066  0.97098892  1
  O  O80  1  0.29608484  0.85278697  0.97466029  1
  O  O81  1  0.55280462  0.85405610  0.47195865  1
  O  O82  1  0.30983495  0.45313568  0.47299499  1
  O  O83  1  0.14606481  0.69752692  0.47553304  1
  O  O84  1  0.11457954  0.63916989  0.35986131  1
  O  O85  1  0.52788875  0.88295763  0.36270900  1
  O  O86  1  0.36007668  0.47649771  0.36366733  1
  O  O87  1  0.11874438  0.47822498  0.86163301  1
  O  O88  1  0.37058990  0.89037499  0.85917839  1
  O  O89  1  0.51928285  0.63327373  0.86267268  1
  O  O90  1  0.01531567  0.83480223  0.41494879  1
  O  O91  1  0.80656140  0.98215889  0.41371343  1
  O  O92  1  0.17613719  0.19844558  0.41382389  1
  O  O93  1  0.01977195  0.19536816  0.91204610  1
  O  O94  1  0.16453753  0.98595321  0.91176640  1
  O  O95  1  0.80183756  0.82335498  0.91295517  1
  O  O96  1  0.98702977  0.17902810  0.58827709  1
  O  O97  1  0.17673174  0.00547746  0.58614571  1
  O  O98  1  0.81677022  0.80846707  0.58717558  1
  O  O99  1  0.98536291  0.81337524  0.08413100  1
  O  O100  1  0.81957113  0.01899902  0.08720741  1
  O  O101  1  0.19923461  0.18311354  0.08666752  1
  O  O102  1  0.68246547  0.16398480  0.75005435  1
  O  O103  1  0.47431290  0.32666990  0.74719750  1
  O  O104  1  0.84389907  0.52914179  0.74685876  1
  O  O105  1  0.67696160  0.51976374  0.24415142  1
  O  O106  1  0.82466312  0.31448540  0.24574112  1
  O  O107  1  0.47753469  0.16719930  0.24270027  1
  O  O108  1  0.64689917  0.50905932  0.92165039  1
  O  O109  1  0.86469841  0.35473058  0.92083045  1
  O  O110  1  0.50185477  0.15453285  0.92194189  1
  O  O111  1  0.64758775  0.13539323  0.42213432  1
  O  O112  1  0.48862148  0.35144362  0.42187766  1
  O  O113  1  0.84696248  0.50065399  0.41977532  1
  O  O114  1  0.36178550  0.49716782  0.07691455  1
  O  O115  1  0.14962232  0.64125397  0.07855049  1
  O  O116  1  0.50806663  0.85832968  0.07705735  1
  O  O117  1  0.35170711  0.84311418  0.58019264  1
  O  O118  1  0.50250215  0.64546637  0.57713229  1
  O  O119  1  0.14834875  0.49051908  0.57847205  1
  O  O120  1  0.33135071  0.85480753  0.25360563  1
  O  O121  1  0.52658227  0.68190940  0.25358760  1
  O  O122  1  0.16277261  0.48591526  0.25076815  1
  O  O123  1  0.30897524  0.47427289  0.75861534  1
  O  O124  1  0.15658748  0.67929090  0.75733525  1
  O  O125  1  0.51452296  0.82620494  0.75583170  1
