# generated using pymatgen
data_NaLa2In2PS5O24
_symmetry_space_group_name_H-M   'P 1'
_cell_length_a   9.15053702
_cell_length_b   9.14350428
_cell_length_c   24.49095614
_cell_angle_alpha   89.93360246
_cell_angle_beta   90.16914645
_cell_angle_gamma   119.80210761
_symmetry_Int_Tables_number   1
_chemical_formula_structural   NaLa2In2PS5O24
_chemical_formula_sum   'Na3 La6 In6 P3 S15 O72'
_cell_volume   1778.10041039
_cell_formula_units_Z   3
loop_
 _symmetry_equiv_pos_site_id
 _symmetry_equiv_pos_as_xyz
  1  'x, y, z'
loop_
 _atom_site_type_symbol
 _atom_site_label
 _atom_site_symmetry_multiplicity
 _atom_site_fract_x
 _atom_site_fract_y
 _atom_site_fract_z
 _atom_site_occupancy
  Na  Na0  1  0.99874266  0.98664597  0.99536150  1
  Na  Na1  1  0.65333471  0.33162404  0.83811383  1
  Na  Na2  1  0.67830785  0.33148449  0.33373354  1
  La  La3  1  0.99974725  0.99109919  0.84896494  1
  La  La4  1  0.00125300  0.00781671  0.15662825  1
  La  La5  1  0.67550520  0.33467567  0.19018661  1
  La  La6  1  0.65882360  0.33442065  0.97916930  1
  La  La7  1  0.33961913  0.67294758  0.01698252  1
  La  La8  1  0.34124264  0.67427485  0.80945632  1
  In  In9  1  0.99914098  0.00475260  0.35506994  1
  In  In10  1  0.00064524  0.00075336  0.64485481  1
  In  In11  1  0.66494353  0.33264197  0.67667403  1
  In  In12  1  0.66661780  0.33312732  0.48516820  1
  In  In13  1  0.33295070  0.66733243  0.51772938  1
  In  In14  1  0.32765881  0.65963819  0.31951820  1
  P  P15  1  0.00679444  0.30083587  0.26101284  1
  P  P16  1  0.63721692  0.66802355  0.91469268  1
  P  P17  1  0.33294772  0.96960451  0.91454938  1
  S  S18  1  0.29330118  0.99113484  0.26039472  1
  S  S19  1  0.69843407  0.70752001  0.26040400  1
  S  S20  1  0.30350667  0.28617753  0.74141228  1
  S  S21  1  0.98168957  0.69322980  0.74053901  1
  S  S22  1  0.71584696  0.01975073  0.74106372  1
  S  S23  1  0.96009874  0.33474791  0.58131943  1
  S  S24  1  0.37415043  0.03975580  0.58133495  1
  S  S25  1  0.66551753  0.62601836  0.58138850  1
  S  S26  1  0.96590808  0.63935478  0.08378412  1
  S  S27  1  0.67416290  0.03599675  0.08368371  1
  S  S28  1  0.36135221  0.32716139  0.08517360  1
  S  S29  1  0.03237006  0.36471944  0.91460948  1
  S  S30  1  0.62085403  0.95862361  0.41788173  1
  S  S31  1  0.33921092  0.37637213  0.41884873  1
  S  S32  1  0.03765282  0.66453415  0.41804402  1
  O  O33  1  0.20368262  0.01304439  0.30740955  1
  O  O34  1  0.81355988  0.79297657  0.30723548  1
  O  O35  1  0.97897534  0.18322556  0.31014268  1
  O  O36  1  0.23219810  0.18784202  0.79212402  1
  O  O37  1  0.95366439  0.76331658  0.79149943  1
  O  O38  1  0.81255098  0.04517496  0.79212527  1
  O  O39  1  0.80385535  0.99968796  0.69314162  1
  O  O40  1  0.19644247  0.19826979  0.69309520  1
  O  O41  1  0.00270099  0.80312116  0.69291368  1
  O  O42  1  0.77099755  0.79709671  0.20836627  1
  O  O43  1  0.02391706  0.22310799  0.20702752  1
  O  O44  1  0.20088867  0.96970738  0.20848101  1
  O  O45  1  0.88559243  0.37046543  0.62994115  1
  O  O46  1  0.48416387  0.11338074  0.63024901  1
  O  O47  1  0.62953841  0.51599973  0.63022855  1
  O  O48  1  0.87460460  0.54280363  0.13347217  1
  O  O49  1  0.67044829  0.12764599  0.13342896  1
  O  O50  1  0.45862208  0.33210116  0.13456844  1
  O  O51  1  0.44500038  0.31332708  0.03525290  1
  O  O52  1  0.86712059  0.55442026  0.03411667  1
  O  O53  1  0.68602377  0.13309188  0.03399292  1
  O  O54  1  0.44999354  0.15157879  0.53256520  1
  O  O55  1  0.70140428  0.54978605  0.53263300  1
  O  O56  1  0.84826695  0.29839335  0.53223421  1
  O  O57  1  0.54658171  0.66619267  0.96785883  1
  O  O58  1  0.12136101  0.44874064  0.96565699  1
  O  O59  1  0.32680135  0.87546552  0.96749976  1
  O  O60  1  0.54353936  0.85522165  0.46784600  1
  O  O61  1  0.31070918  0.45403912  0.46830947  1
  O  O62  1  0.14269267  0.69275037  0.46790323  1
  O  O63  1  0.11304693  0.63072799  0.36943818  1
  O  O64  1  0.51208592  0.88230565  0.36901494  1
  O  O65  1  0.37338067  0.48495293  0.36997541  1
  O  O66  1  0.12424997  0.46035421  0.86554235  1
  O  O67  1  0.32931361  0.87058051  0.86282180  1
  O  O68  1  0.53683232  0.66407106  0.86318668  1
  O  O69  1  0.01862621  0.81510402  0.40923029  1
  O  O70  1  0.78925606  0.97532406  0.41025946  1
  O  O71  1  0.18997464  0.20713037  0.41065069  1
  O  O72  1  0.01503521  0.19477243  0.91427080  1
  O  O73  1  0.17727207  0.99437633  0.91541830  1
  O  O74  1  0.81186077  0.83026937  0.91536516  1
  O  O75  1  0.97946446  0.18473722  0.59074492  1
  O  O76  1  0.20554393  0.02115857  0.59076007  1
  O  O77  1  0.81506267  0.79452246  0.59098132  1
  O  O78  1  0.98438211  0.80997868  0.08599116  1
  O  O79  1  0.82535544  0.01570332  0.08512867  1
  O  O80  1  0.19161370  0.17400171  0.08633095  1
  O  O81  1  0.69860196  0.17342689  0.73449923  1
  O  O82  1  0.47436547  0.30268136  0.73501937  1
  O  O83  1  0.82756127  0.52393998  0.73374781  1
  O  O84  1  0.67506747  0.53417156  0.25729148  1
  O  O85  1  0.84816436  0.32215600  0.25773496  1
  O  O86  1  0.46272372  0.14533037  0.25704163  1
  O  O87  1  0.66067487  0.51180464  0.91171425  1
  O  O88  1  0.86297224  0.34846986  0.91347673  1
  O  O89  1  0.49541577  0.14359704  0.91228294  1
  O  O90  1  0.64009078  0.13233939  0.42480535  1
  O  O91  1  0.49392391  0.35824595  0.42637251  1
  O  O92  1  0.86528312  0.51019924  0.42540782  1
  O  O93  1  0.34610033  0.47900457  0.08334895  1
  O  O94  1  0.13123034  0.65052586  0.08235776  1
  O  O95  1  0.52093681  0.87010733  0.08342266  1
  O  O96  1  0.35739978  0.87129675  0.57147508  1
  O  O97  1  0.51423882  0.64343399  0.57133096  1
  O  O98  1  0.12797978  0.48580540  0.57127765  1
  O  O99  1  0.31164082  0.84098466  0.26756106  1
  O  O100  1  0.53486159  0.69941192  0.26784146  1
  O  O101  1  0.16699803  0.47298507  0.26773217  1
  O  O102  1  0.31987484  0.45367877  0.74606845  1
  O  O103  1  0.13155872  0.67509382  0.74566812  1
  O  O104  1  0.54786632  0.86913340  0.74500898  1
