# generated using pymatgen
data_Na14Sc8Si7S5O48
_symmetry_space_group_name_H-M   'P 1'
_cell_length_a   18.35223239
_cell_length_b   9.16540772
_cell_length_c   22.70909968
_cell_angle_alpha   89.93052655
_cell_angle_beta   89.96964789
_cell_angle_gamma   120.01136830
_symmetry_Int_Tables_number   1
_chemical_formula_structural   Na14Sc8Si7S5O48
_chemical_formula_sum   'Na42 Sc24 Si21 S15 O144'
_cell_volume   3307.65939846
_cell_formula_units_Z   3
loop_
 _symmetry_equiv_pos_site_id
 _symmetry_equiv_pos_as_xyz
  1  'x, y, z'
loop_
 _atom_site_type_symbol
 _atom_site_label
 _atom_site_symmetry_multiplicity
 _atom_site_fract_x
 _atom_site_fract_y
 _atom_site_fract_z
 _atom_site_occupancy
  Na  Na0  1  0.81209251  0.99235787  0.24426967  1
  Na  Na1  1  0.18626769  0.36502184  0.25529982  1
  Na  Na2  1  0.68849027  0.36700864  0.25397392  1
  Na  Na3  1  0.99918643  0.64637321  0.24347398  1
  Na  Na4  1  0.50054770  0.64720862  0.24476092  1
  Na  Na5  1  0.31126240  0.63266635  0.75223283  1
  Na  Na6  1  0.99947191  0.35252866  0.74765616  1
  Na  Na7  1  0.50148912  0.35457794  0.74862387  1
  Na  Na8  1  0.18461006  0.00562148  0.75719109  1
  Na  Na9  1  0.68789414  0.00831275  0.75829552  1
  Na  Na10  1  0.14331507  0.33217861  0.58380490  1
  Na  Na11  1  0.64539702  0.33437304  0.58457844  1
  Na  Na12  1  0.33778291  0.97571871  0.58047149  1
  Na  Na13  1  0.83796679  0.97645552  0.58239152  1
  Na  Na14  1  0.14270059  0.95462315  0.08614159  1
  Na  Na15  1  0.65131519  0.95810398  0.08479104  1
  Na  Na16  1  0.33769936  0.69898791  0.08239067  1
  Na  Na17  1  0.83744443  0.71005627  0.08004551  1
  Na  Na18  1  0.48735543  0.68118648  0.92316178  1
  Na  Na19  1  0.98077809  0.67627757  0.92368353  1
  Na  Na20  1  0.34410639  0.01985991  0.91392769  1
  Na  Na21  1  0.84177306  0.01865817  0.91917391  1
  Na  Na22  1  0.16917854  0.29661364  0.91121805  1
  Na  Na23  1  0.67404674  0.30371765  0.91185483  1
  Na  Na24  1  0.48433203  0.28771488  0.41989131  1
  Na  Na25  1  0.98462818  0.28813513  0.42001583  1
  Na  Na26  1  0.17033618  0.04040760  0.40795031  1
  Na  Na27  1  0.67030135  0.04227990  0.40876133  1
  Na  Na28  1  0.34258120  0.66729453  0.41047071  1
  Na  Na29  1  0.84384927  0.66859201  0.41115787  1
  Na  Na30  1  0.99826577  0.00928759  0.49733455  1
  Na  Na31  1  0.49884532  0.00956781  0.49715405  1
  Na  Na32  1  0.99245159  0.98836300  0.00250494  1
  Na  Na33  1  0.50068356  0.98981692  0.99897852  1
  Na  Na34  1  0.32474814  0.32281330  0.83486702  1
  Na  Na35  1  0.82320981  0.33186523  0.83466363  1
  Na  Na36  1  0.32322821  0.31569016  0.32924903  1
  Na  Na37  1  0.82470529  0.32789386  0.32962935  1
  Na  Na38  1  0.16504729  0.67597230  0.16985250  1
  Na  Na39  1  0.66603999  0.67588142  0.16353481  1
  Na  Na40  1  0.15979621  0.65538853  0.66881058  1
  Na  Na41  1  0.66761132  0.65694636  0.67147977  1
  Sc  Sc42  1  0.00174302  -0.00099635  0.34872348  1
  Sc  Sc43  1  0.49935736  -0.00118326  0.34860702  1
  Sc  Sc44  1  0.99861978  0.99961301  0.85015743  1
  Sc  Sc45  1  0.50269726  0.00596554  0.85064913  1
  Sc  Sc46  1  0.99685300  0.01274098  0.65151848  1
  Sc  Sc47  1  0.49877447  0.01555739  0.65102052  1
  Sc  Sc48  1  0.99329166  0.98181218  0.14748820  1
  Sc  Sc49  1  0.49829614  0.98130279  0.15074961  1
  Sc  Sc50  1  0.33667087  0.32859230  0.68615247  1
  Sc  Sc51  1  0.83630132  0.33350744  0.68824101  1
  Sc  Sc52  1  0.33569426  0.33826857  0.18752646  1
  Sc  Sc53  1  0.83530580  0.33264457  0.18198072  1
  Sc  Sc54  1  0.33457435  0.34441615  0.98142274  1
  Sc  Sc55  1  0.83488531  0.33279363  0.98460699  1
  Sc  Sc56  1  0.33401894  0.32416169  0.48060076  1
  Sc  Sc57  1  0.83420660  0.32393606  0.48104910  1
  Sc  Sc58  1  0.16368471  0.67366414  0.01597183  1
  Sc  Sc59  1  0.67067794  0.68735228  0.01894569  1
  Sc  Sc60  1  0.16386207  0.65340933  0.51512049  1
  Sc  Sc61  1  0.66475816  0.65434724  0.51569580  1
  Sc  Sc62  1  0.18093499  0.68810363  0.31284814  1
  Sc  Sc63  1  0.67686129  0.67790232  0.31504023  1
  Sc  Sc64  1  0.17573382  0.67485143  0.81644369  1
  Sc  Sc65  1  0.68130271  0.67461624  0.81474649  1
  Si  Si66  1  0.14746582  0.99896687  0.24888221  1
  Si  Si67  1  0.64818336  0.99951338  0.25117507  1
  Si  Si68  1  0.35215263  0.70390128  0.24978587  1
  Si  Si69  1  0.85254296  0.70148157  0.25130450  1
  Si  Si70  1  0.14827918  0.29755895  0.74971881  1
  Si  Si71  1  0.64878972  0.29950970  0.74945805  1
  Si  Si72  1  0.35218782  0.99945320  0.75022746  1
  Si  Si73  1  0.85170317  0.99940668  0.74953079  1
  Si  Si74  1  0.48316760  0.33946068  0.58346441  1
  Si  Si75  1  0.98274814  0.33920056  0.58386586  1
  Si  Si76  1  0.48155178  0.62555840  0.08376830  1
  Si  Si77  1  0.98348930  0.62548401  0.08340010  1
  Si  Si78  1  0.83671332  0.04174829  0.08332061  1
  Si  Si79  1  0.31485920  0.66772046  0.91820913  1
  Si  Si80  1  0.81528282  0.66465283  0.91887613  1
  Si  Si81  1  0.16655542  0.96438826  0.91591421  1
  Si  Si82  1  0.66614530  0.96329685  0.91479471  1
  Si  Si83  1  0.31449791  0.96076786  0.42012206  1
  Si  Si84  1  0.81484107  0.96146170  0.41864828  1
  Si  Si85  1  0.16661904  0.36969963  0.41591591  1
  Si  Si86  1  0.66639259  0.36827649  0.41664699  1
  S  S87  1  0.00021778  0.29294522  0.25053492  1
  S  S88  1  0.49941483  0.29159750  0.25009680  1
  S  S89  1  0.99954543  0.70804653  0.74964086  1
  S  S90  1  0.49923006  0.70828857  0.74920370  1
  S  S91  1  0.18541664  0.03735096  0.58369592  1
  S  S92  1  0.68562147  0.03773273  0.58366275  1
  S  S93  1  0.33495044  0.62742220  0.58321908  1
  S  S94  1  0.83493872  0.62646484  0.58254690  1
  S  S95  1  0.33483709  0.04334167  0.08253346  1
  S  S96  1  0.18706497  0.33495965  0.08345920  1
  S  S97  1  0.68420063  0.33205455  0.08354592  1
  S  S98  1  0.02135795  0.37613019  0.91538690  1
  S  S99  1  0.52098865  0.37604156  0.91647569  1
  S  S100  1  0.02062870  0.66601287  0.41655580  1
  S  S101  1  0.52055170  0.66641943  0.41677470  1
  O  O102  1  0.10618526  0.03473869  0.30846888  1
  O  O103  1  0.60434544  0.03176769  0.30924703  1
  O  O104  1  0.41056441  0.78971394  0.30846382  1
  O  O105  1  0.91054025  0.78945362  0.30998819  1
  O  O106  1  0.48750570  0.19290526  0.30500694  1
  O  O107  1  0.98662006  0.19040058  0.30504461  1
  O  O108  1  0.10689495  0.17621859  0.80737105  1
  O  O109  1  0.60543927  0.17670601  0.80704938  1
  O  O110  1  0.48487099  0.78219295  0.80315663  1
  O  O111  1  0.98848622  0.78370845  0.80399889  1
  O  O112  1  0.41142782  0.03206652  0.80765915  1
  O  O113  1  0.91261160  0.03392693  0.80658926  1
  O  O114  1  0.39377723  0.96374059  0.69180017  1
  O  O115  1  0.89485438  0.97307496  0.69016483  1
  O  O116  1  0.09089976  0.20689858  0.69089028  1
  O  O117  1  0.58951984  0.20686133  0.69076611  1
  O  O118  1  0.01310133  0.81620028  0.69783444  1
  O  O119  1  0.51211090  0.81572578  0.69739352  1
  O  O120  1  0.39586969  0.81851466  0.19117611  1
  O  O121  1  0.89471365  0.82341101  0.19421093  1
  O  O122  1  0.01431931  0.21280722  0.19930453  1
  O  O123  1  0.51259010  0.20984389  0.19874787  1
  O  O124  1  0.08937265  0.97589569  0.19119085  1
  O  O125  1  0.58951954  0.97383124  0.19301034  1
  O  O126  1  0.43544236  0.35572089  0.64192988  1
  O  O127  1  0.93548695  0.35686604  0.64188155  1
  O  O128  1  0.23851398  0.12058615  0.63647300  1
  O  O129  1  0.73879522  0.12069409  0.63593264  1
  O  O130  1  0.32186468  0.52210158  0.63624393  1
  O  O131  1  0.82078399  0.51730971  0.63390930  1
  O  O132  1  0.43318255  0.51363529  0.14200549  1
  O  O133  1  0.93745564  0.51682145  0.14275587  1
  O  O134  1  0.32082646  0.12438587  0.13391733  1
  O  O135  1  0.81768992  0.12521325  0.14137754  1
  O  O136  1  0.24078508  0.36026094  0.13577649  1
  O  O137  1  0.73703095  0.35789172  0.13667009  1
  O  O138  1  0.22633691  0.30632381  0.03006971  1
  O  O139  1  0.72347462  0.30325590  0.03066752  1
  O  O140  1  0.42071629  0.53806367  0.02577413  1
  O  O141  1  0.92429583  0.54111905  0.02514521  1
  O  O142  1  0.34310247  0.13933471  0.02792042  1
  O  O143  1  0.84405004  0.14964895  0.02398103  1
  O  O144  1  0.22507375  0.14574624  0.53072558  1
  O  O145  1  0.72442809  0.14566542  0.53028929  1
  O  O146  1  0.34280118  0.54457484  0.52981215  1
  O  O147  1  0.84321514  0.54731623  0.52806323  1
  O  O148  1  0.42261795  0.30814407  0.52603642  1
  O  O149  1  0.92309543  0.30811878  0.52570863  1
  O  O150  1  0.26906684  0.69319332  0.97595391  1
  O  O151  1  0.77134125  0.69395808  0.97691187  1
  O  O152  1  0.07521144  0.45701139  0.96722096  1
  O  O153  1  0.57428593  0.45610905  0.96810014  1
  O  O154  1  0.15033134  0.84379137  0.97376092  1
  O  O155  1  0.64731483  0.84309846  0.97308559  1
  O  O156  1  0.27123311  0.84752418  0.47963684  1
  O  O157  1  0.76912367  0.84532319  0.47705583  1
  O  O158  1  0.14995036  0.45443363  0.47503571  1
  O  O159  1  0.64943030  0.45427722  0.47505886  1
  O  O160  1  0.07430217  0.69258495  0.46872666  1
  O  O161  1  0.57446929  0.69263491  0.46857580  1
  O  O162  1  0.05640929  0.63529528  0.36324917  1
  O  O163  1  0.55643375  0.63602392  0.36317982  1
  O  O164  1  0.25091219  0.87581553  0.36476187  1
  O  O165  1  0.75431631  0.87946696  0.36095473  1
  O  O166  1  0.18082767  0.48890202  0.35885718  1
  O  O167  1  0.68030680  0.48668328  0.35918904  1
  O  O168  1  0.05954066  0.47812065  0.86156611  1
  O  O169  1  0.55579025  0.47616543  0.86213393  1
  O  O170  1  0.18149100  0.87605171  0.85776821  1
  O  O171  1  0.67817823  0.87102103  0.85686510  1
  O  O172  1  0.25554054  0.63028922  0.85936137  1
  O  O173  1  0.75249757  0.62559732  0.86259290  1
  O  O174  1  0.01225426  0.81939470  0.41268216  1
  O  O175  1  0.51197516  0.81925217  0.41263370  1
  O  O176  1  0.40754270  0.97707350  0.41321603  1
  O  O177  1  0.90808389  0.97857303  0.41292774  1
  O  O178  1  0.08320172  0.17957161  0.41298260  1
  O  O179  1  0.58265879  0.17891499  0.41303378  1
  O  O180  1  0.01306774  0.20625152  0.91117475  1
  O  O181  1  0.51110268  0.20397848  0.91181266  1
  O  O182  1  0.08326935  0.98648624  0.91162724  1
  O  O183  1  0.58173830  0.98516358  0.91120679  1
  O  O184  1  0.40781854  0.83754161  0.91176422  1
  O  O185  1  0.90809808  0.83750682  0.91104240  1
  O  O186  1  0.48963232  0.16299541  0.58592149  1
  O  O187  1  0.99051433  0.16390338  0.58582320  1
  O  O188  1  0.10100642  0.01967926  0.58922732  1
  O  O189  1  0.60079321  0.01968428  0.58910716  1
  O  O190  1  0.41033474  0.79770536  0.58768357  1
  O  O191  1  0.91030132  0.79695961  0.58770091  1
  O  O192  1  0.48895399  0.81601716  0.08605803  1
  O  O193  1  0.99349788  0.81633583  0.08628310  1
  O  O194  1  0.41022690  0.02420866  0.08776877  1
  O  O195  1  0.91898267  0.01793887  0.08759333  1
  O  O196  1  0.10349834  0.18380862  0.08918838  1
  O  O197  1  0.60005615  0.17854125  0.08972641  1
  O  O198  1  0.34304532  0.17001380  0.74447391  1
  O  O199  1  0.84531791  0.17398490  0.74453267  1
  O  O200  1  0.24415430  0.32497251  0.74214818  1
  O  O201  1  0.74033421  0.31154144  0.74115079  1
  O  O202  1  0.42094272  0.53904730  0.74349377  1
  O  O203  1  0.92458155  0.53729465  0.74433258  1
  O  O204  1  0.34577725  0.51663525  0.24567555  1
  O  O205  1  0.84342525  0.51419459  0.24623453  1
  O  O206  1  0.42424613  0.31194091  0.24494406  1
  O  O207  1  0.92282255  0.30707109  0.24566145  1
  O  O208  1  0.24039575  0.17007999  0.24234512  1
  O  O209  1  0.74240873  0.16642881  0.24653754  1
  O  O210  1  0.32489459  0.49773258  0.92170491  1
  O  O211  1  0.82742966  0.49857013  0.92216631  1
  O  O212  1  0.43420937  0.35232559  0.92334865  1
  O  O213  1  0.93670419  0.35808165  0.92098922  1
  O  O214  1  0.25345992  0.14895015  0.92293550  1
  O  O215  1  0.75129427  0.15002114  0.92047398  1
  O  O216  1  0.32626259  0.15262185  0.42334848  1
  O  O217  1  0.82523961  0.15189943  0.42280363  1
  O  O218  1  0.25315311  0.35758726  0.42425210  1
  O  O219  1  0.75309377  0.35741659  0.42419376  1
  O  O220  1  0.43469794  0.51668263  0.42424768  1
  O  O221  1  0.93452126  0.51677420  0.42428971  1
  O  O222  1  0.18231370  0.49106372  0.07722247  1
  O  O223  1  0.67748006  0.48497079  0.07727338  1
  O  O224  1  0.07993416  0.65341708  0.07960584  1
  O  O225  1  0.57587692  0.65142346  0.07966218  1
  O  O226  1  0.25807748  0.86974862  0.07902969  1
  O  O227  1  0.75090189  0.85110061  0.08049545  1
  O  O228  1  0.18100579  0.87197171  0.57818053  1
  O  O229  1  0.68061794  0.87191073  0.57750135  1
  O  O230  1  0.25781595  0.64565980  0.57991770  1
  O  O231  1  0.75805260  0.64636129  0.57907830  1
  O  O232  1  0.07933433  0.50226811  0.58002888  1
  O  O233  1  0.57916470  0.50187171  0.57991673  1
  O  O234  1  0.14668457  0.81903448  0.25547865  1
  O  O235  1  0.65118113  0.82296993  0.25588001  1
  O  O236  1  0.25541868  0.66931474  0.25210018  1
  O  O237  1  0.75754232  0.68029375  0.25466251  1
  O  O238  1  0.07431814  0.46419775  0.25697229  1
  O  O239  1  0.57511042  0.46275942  0.25572504  1
  O  O240  1  0.15214096  0.48090563  0.75420469  1
  O  O241  1  0.64676022  0.47575461  0.75454584  1
  O  O242  1  0.07546296  0.68805930  0.75463943  1
  O  O243  1  0.57249513  0.68377206  0.75483725  1
  O  O244  1  0.25703287  0.83330257  0.75312340  1
  O  O245  1  0.75504143  0.84101265  0.75152614  1
