# generated using pymatgen
data_Na14Ca4Mg4Si3(S3O16)3
_symmetry_space_group_name_H-M   'P 1'
_cell_length_a   18.54649736
_cell_length_b   9.26128791
_cell_length_c   22.69403963
_cell_angle_alpha   89.88832639
_cell_angle_beta   89.89882126
_cell_angle_gamma   120.00754963
_symmetry_Int_Tables_number   1
_chemical_formula_structural   Na14Ca4Mg4Si3(S3O16)3
_chemical_formula_sum   'Na42 Ca12 Mg12 Si9 S27 O144'
_cell_volume   3375.51221755
_cell_formula_units_Z   3
loop_
 _symmetry_equiv_pos_site_id
 _symmetry_equiv_pos_as_xyz
  1  'x, y, z'
loop_
 _atom_site_type_symbol
 _atom_site_label
 _atom_site_symmetry_multiplicity
 _atom_site_fract_x
 _atom_site_fract_y
 _atom_site_fract_z
 _atom_site_occupancy
  Na  Na0  1  0.80896986  0.99659691  0.25990964  1
  Na  Na1  1  0.18159485  0.36554188  0.26241307  1
  Na  Na2  1  0.68331819  0.34421626  0.25407731  1
  Na  Na3  1  0.99265108  0.62341412  0.23586615  1
  Na  Na4  1  0.51270775  0.66451684  0.24855187  1
  Na  Na5  1  0.31142974  0.62482433  0.75998832  1
  Na  Na6  1  0.00991680  0.36013231  0.74870702  1
  Na  Na7  1  0.50472249  0.35404965  0.73497587  1
  Na  Na8  1  0.18326094  0.02269801  0.75366547  1
  Na  Na9  1  0.67461485  0.00918793  0.76705093  1
  Na  Na10  1  0.14921806  0.33186973  0.58662746  1
  Na  Na11  1  0.63760574  0.32932529  0.59600625  1
  Na  Na12  1  0.34105575  0.99627462  0.58451411  1
  Na  Na13  1  0.82967565  0.95542198  0.57266505  1
  Na  Na14  1  0.13885104  0.94457201  0.07968953  1
  Na  Na15  1  0.64920119  0.96662455  0.07781909  1
  Na  Na16  1  0.33384337  0.70719586  0.06797081  1
  Na  Na17  1  0.84086709  0.68256567  0.07694945  1
  Na  Na18  1  0.48900618  0.69087414  0.91372973  1
  Na  Na19  1  0.98310895  0.65766641  0.92748756  1
  Na  Na20  1  0.34745244  0.00195696  0.91574065  1
  Na  Na21  1  0.83361858  0.02987612  0.90948561  1
  Na  Na22  1  0.17553256  0.32897469  0.89916942  1
  Na  Na23  1  0.66280013  0.28627417  0.90172521  1
  Na  Na24  1  0.48401013  0.30690094  0.43454502  1
  Na  Na25  1  0.98713361  0.28726214  0.42094960  1
  Na  Na26  1  0.16853158  0.04014276  0.42179154  1
  Na  Na27  1  0.67515433  0.02490615  0.40577847  1
  Na  Na28  1  0.33740502  0.64267784  0.41729757  1
  Na  Na29  1  0.84347265  0.68920361  0.42400632  1
  Na  Na30  1  0.99766520  0.00381318  0.49198987  1
  Na  Na31  1  0.50131226  0.00113869  0.50852034  1
  Na  Na32  1  0.99695873  0.99333867  0.00214578  1
  Na  Na33  1  0.49953203  0.99540871  0.98710606  1
  Na  Na34  1  0.32985692  0.35200423  0.83086189  1
  Na  Na35  1  0.81759254  0.32402531  0.83604461  1
  Na  Na36  1  0.32851840  0.32836080  0.34200518  1
  Na  Na37  1  0.82418819  0.30098299  0.33349111  1
  Na  Na38  1  0.15489924  0.65526977  0.15907916  1
  Na  Na39  1  0.66285231  0.67670478  0.17045116  1
  Na  Na40  1  0.16364918  0.65268643  0.67351366  1
  Na  Na41  1  0.65329954  0.62660293  0.66869817  1
  Ca  Ca42  1  0.00264833  0.99462721  0.65143397  1
  Ca  Ca43  1  0.50053094  0.00674569  0.65104262  1
  Ca  Ca44  1  0.99656754  0.99595596  0.14706745  1
  Ca  Ca45  1  0.50355703  0.01002143  0.15082860  1
  Ca  Ca46  1  0.83018759  0.34520435  0.68969894  1
  Ca  Ca47  1  0.33660328  0.32496268  0.18680110  1
  Ca  Ca48  1  0.16138415  0.65379676  0.01357027  1
  Ca  Ca49  1  0.66466141  0.66673368  0.01278919  1
  Ca  Ca50  1  0.16357850  0.65859585  0.51419264  1
  Ca  Ca51  1  0.65974774  0.66443377  0.51622336  1
  Ca  Ca52  1  0.16906087  0.66238302  0.32255559  1
  Ca  Ca53  1  0.66874747  0.66840338  0.81932336  1
  Mg  Mg54  1  0.99965448  0.00802274  0.35435398  1
  Mg  Mg55  1  0.50837735  0.00641522  0.34276305  1
  Mg  Mg56  1  0.00702789  0.00951903  0.84153587  1
  Mg  Mg57  1  0.50480788  0.99615329  0.85136642  1
  Mg  Mg58  1  0.33601086  0.33949012  0.68200322  1
  Mg  Mg59  1  0.83257445  0.32775901  0.17994536  1
  Mg  Mg60  1  0.33558351  0.34361470  0.98106016  1
  Mg  Mg61  1  0.83374826  0.33371134  0.98669837  1
  Mg  Mg62  1  0.33411467  0.33775018  0.48892440  1
  Mg  Mg63  1  0.83521681  0.32738758  0.48291223  1
  Mg  Mg64  1  0.67144881  0.69200671  0.31926256  1
  Mg  Mg65  1  0.17097052  0.65170277  0.81835704  1
  Si  Si66  1  0.65455505  0.00031013  0.24725534  1
  Si  Si67  1  0.15466070  0.30880110  0.74691375  1
  Si  Si68  1  0.64827410  0.30051966  0.75256525  1
  Si  Si69  1  0.47838100  0.33295353  0.58279541  1
  Si  Si70  1  0.97914351  0.62236300  0.08411283  1
  Si  Si71  1  0.32051702  0.66626491  0.91708214  1
  Si  Si72  1  0.67031012  0.98631015  0.92036651  1
  Si  Si73  1  0.81997994  0.97600776  0.41749812  1
  Si  Si74  1  0.17019481  0.35157220  0.41683641  1
  S  S75  1  0.14542790  0.99755664  0.25266586  1
  S  S76  1  0.35063567  0.70263783  0.25035285  1
  S  S77  1  0.84799503  0.69833452  0.25407299  1
  S  S78  1  -0.00034887  0.29866105  0.25148092  1
  S  S79  1  0.50479695  0.30763887  0.25766550  1
  S  S80  1  0.00729223  0.70353647  0.75802236  1
  S  S81  1  0.49558964  0.69512010  0.75119224  1
  S  S82  1  0.34423455  0.99557657  0.75331214  1
  S  S83  1  0.85296698  0.00169911  0.75055293  1
  S  S84  1  0.98044593  0.33117638  0.58289194  1
  S  S85  1  0.18883401  0.04155464  0.58309978  1
  S  S86  1  0.68886398  0.04559712  0.58044178  1
  S  S87  1  0.33154419  0.62491521  0.58285801  1
  S  S88  1  0.83525299  0.62999439  0.57640732  1
  S  S89  1  0.48117342  0.62988089  0.08341170  1
  S  S90  1  0.33261830  0.03708974  0.07869203  1
  S  S91  1  0.83127093  0.03849059  0.08348014  1
  S  S92  1  0.18969176  0.33195226  0.08353667  1
  S  S93  1  0.68981059  0.33827982  0.08471121  1
  S  S94  1  0.82651896  0.67453113  0.91900067  1
  S  S95  1  0.01379106  0.35450131  0.91125460  1
  S  S96  1  0.50806624  0.35555121  0.91727679  1
  S  S97  1  0.16358528  0.96901639  0.91536252  1
  S  S98  1  0.32489101  0.97663610  0.41652491  1
  S  S99  1  0.66320240  0.36020315  0.41295517  1
  S  S100  1  0.01000200  0.66504818  0.41429060  1
  S  S101  1  0.51404487  0.67329189  0.40988088  1
  O  O102  1  0.09736349  0.00687040  0.30344138  1
  O  O103  1  0.60889152  0.03085636  0.30459780  1
  O  O104  1  0.40043579  0.79848338  0.30227907  1
  O  O105  1  0.90294011  0.79032760  0.30430662  1
  O  O106  1  0.49338365  0.20089861  0.30972962  1
  O  O107  1  0.99535673  0.20359677  0.30547632  1
  O  O108  1  0.10862516  0.18674049  0.80439493  1
  O  O109  1  0.59411425  0.18052224  0.80799340  1
  O  O110  1  0.48629927  0.77540908  0.80541776  1
  O  O111  1  0.99500255  0.78570439  0.81042643  1
  O  O112  1  0.39687813  0.01182145  0.80451366  1
  O  O113  1  0.90232361  -0.00003964  0.80254530  1
  O  O114  1  0.37771557  0.96337211  0.69845746  1
  O  O115  1  0.89076667  0.98555528  0.69502809  1
  O  O116  1  0.09866439  0.23035592  0.68741831  1
  O  O117  1  0.60215029  0.22038517  0.68966679  1
  O  O118  1  0.01538927  0.80086036  0.70396117  1
  O  O119  1  0.50210791  0.79289937  0.69868586  1
  O  O120  1  0.39032839  0.78901152  0.19490326  1
  O  O121  1  0.88220278  0.79584766  0.19878193  1
  O  O122  1  0.01081391  0.21840237  0.19911966  1
  O  O123  1  0.51049397  0.22695308  0.20317655  1
  O  O124  1  0.10230147  0.98755619  0.19644886  1
  O  O125  1  0.59760691  0.96517143  0.18833382  1
  O  O126  1  0.42724279  0.32807283  0.64254652  1
  O  O127  1  0.93963473  0.33534277  0.63787296  1
  O  O128  1  0.23487443  0.12836639  0.63700669  1
  O  O129  1  0.73554140  0.12759874  0.63455484  1
  O  O130  1  0.32518948  0.52354065  0.63525764  1
  O  O131  1  0.83547186  0.53936727  0.62922848  1
  O  O132  1  0.44159758  0.54631892  0.13983195  1
  O  O133  1  0.93022066  0.52601864  0.14506756  1
  O  O134  1  0.32984761  0.12395016  0.13247878  1
  O  O135  1  0.82727046  0.12519622  0.13716780  1
  O  O136  1  0.23309499  0.34091801  0.13956262  1
  O  O137  1  0.73521482  0.34471839  0.13972228  1
  O  O138  1  0.23697979  0.32162794  0.03222820  1
  O  O139  1  0.73443516  0.32842348  0.03212103  1
  O  O140  1  0.43151242  0.53000417  0.03236401  1
  O  O141  1  0.92578201  0.52966162  0.02481255  1
  O  O142  1  0.33563760  0.13251128  0.02514960  1
  O  O143  1  0.83372390  0.12996553  0.02946824  1
  O  O144  1  0.23187044  0.13840438  0.52906533  1
  O  O145  1  0.73378112  0.14850274  0.52749656  1
  O  O146  1  0.33357513  0.54103823  0.52751900  1
  O  O147  1  0.83827405  0.54298834  0.52180237  1
  O  O148  1  0.42720058  0.32636169  0.52250229  1
  O  O149  1  0.93366801  0.33416460  0.52999356  1
  O  O150  1  0.28381655  0.70372172  0.97722000  1
  O  O151  1  0.79145781  0.69946828  0.97512990  1
  O  O152  1  0.06699351  0.42571015  0.96375518  1
  O  O153  1  0.56401413  0.43480295  0.96818566  1
  O  O154  1  0.14993815  0.86943420  0.97007634  1
  O  O155  1  0.65495624  0.87184639  0.97941487  1
  O  O156  1  0.28739631  0.87802011  0.47148760  1
  O  O157  1  0.78223901  0.86114416  0.47644105  1
  O  O158  1  0.15004517  0.43866161  0.47227600  1
  O  O159  1  0.64989573  0.43489381  0.46662469  1
  O  O160  1  0.06834976  0.70064331  0.46395443  1
  O  O161  1  0.56679745  0.70543161  0.46215335  1
  O  O162  1  0.04469723  0.63254680  0.36005444  1
  O  O163  1  0.55519666  0.64920497  0.35714546  1
  O  O164  1  0.26876935  0.89239255  0.36630576  1
  O  O165  1  0.75732309  0.88714510  0.36125141  1
  O  O166  1  0.19056320  0.46825980  0.35734092  1
  O  O167  1  0.67322477  0.46564034  0.36068158  1
  O  O168  1  0.05537115  0.46275052  0.85896678  1
  O  O169  1  0.54327785  0.46083555  0.86417591  1
  O  O170  1  0.17369269  0.88183291  0.86413681  1
  O  O171  1  0.69054199  0.90432917  0.86303210  1
  O  O172  1  0.25481639  0.62845256  0.86275650  1
  O  O173  1  0.76983516  0.64941162  0.86996441  1
  O  O174  1  -0.00022605  0.81372787  0.40730363  1
  O  O175  1  0.50072981  0.81948167  0.40281856  1
  O  O176  1  0.40814323  0.99035429  0.40862544  1
  O  O177  1  0.91239422  0.99363384  0.40823056  1
  O  O178  1  0.08820369  0.16453303  0.40954062  1
  O  O179  1  0.58862776  0.18829289  0.40795268  1
  O  O180  1  0.00040115  0.18180554  0.90355904  1
  O  O181  1  0.49748405  0.18606839  0.91044441  1
  O  O182  1  0.08892008  0.99095589  0.90955100  1
  O  O183  1  0.58514237  0.99772066  0.91307277  1
  O  O184  1  0.41200136  0.83322629  0.90636554  1
  O  O185  1  0.91056139  0.82726497  0.91074032  1
  O  O186  1  0.48448952  0.15864598  0.57893879  1
  O  O187  1  0.98420472  0.17228627  0.57888995  1
  O  O188  1  0.10393106  0.02205597  0.58263148  1
  O  O189  1  0.60463476  0.02762076  0.58021078  1
  O  O190  1  0.40503012  0.79422113  0.58383269  1
  O  O191  1  0.90846527  0.80393522  0.57583151  1
  O  O192  1  0.48454614  0.79549251  0.07941707  1
  O  O193  1  0.98790742  0.81252298  0.08131145  1
  O  O194  1  0.40607216  0.01216163  0.07925013  1
  O  O195  1  0.90554109  0.01597847  0.08340304  1
  O  O196  1  0.10602674  0.17883205  0.08236930  1
  O  O197  1  0.60519925  0.18777592  0.08431771  1
  O  O198  1  0.33892109  0.15185055  0.74870318  1
  O  O199  1  0.85661110  0.16719005  0.75201139  1
  O  O200  1  0.24815267  0.32698841  0.74299659  1
  O  O201  1  0.73861105  0.30530484  0.75689261  1
  O  O202  1  0.41993489  0.52418745  0.74829504  1
  O  O203  1  0.93696923  0.52998578  0.75428460  1
  O  O204  1  0.34578906  0.53473724  0.25280248  1
  O  O205  1  0.84200024  0.53095730  0.25067765  1
  O  O206  1  0.43299005  0.33931603  0.25561248  1
  O  O207  1  0.92176755  0.30867960  0.24862081  1
  O  O208  1  0.22897416  0.15424541  0.25382395  1
  O  O209  1  0.74832195  0.16976353  0.24315445  1
  O  O210  1  0.33062201  0.49791040  0.92168082  1
  O  O211  1  0.83604199  0.52427548  0.92243253  1
  O  O212  1  0.42353820  0.33486524  0.92704734  1
  O  O213  1  0.93122329  0.34305528  0.91846686  1
  O  O214  1  0.24051224  0.13713179  0.91999448  1
  O  O215  1  0.75360651  0.17582370  0.92609074  1
  O  O216  1  0.33440705  0.14604624  0.42057205  1
  O  O217  1  0.83151214  0.16582272  0.42203759  1
  O  O218  1  0.25483877  0.33546359  0.42587767  1
  O  O219  1  0.74029603  0.34623229  0.41771568  1
  O  O220  1  0.43067714  0.51967989  0.41634293  1
  O  O221  1  0.92663043  0.51608858  0.42514514  1
  O  O222  1  0.18305367  0.48518207  0.08054634  1
  O  O223  1  0.68498013  0.49453733  0.08316501  1
  O  O224  1  0.07561275  0.65900196  0.08486074  1
  O  O225  1  0.56711618  0.65664186  0.08290808  1
  O  O226  1  0.25498437  0.86961136  0.07927174  1
  O  O227  1  0.75513404  0.86732997  0.08463631  1
  O  O228  1  0.18424365  0.87577455  0.58159244  1
  O  O229  1  0.68319147  0.88015354  0.57782684  1
  O  O230  1  0.25441778  0.64172530  0.58347024  1
  O  O231  1  0.75730589  0.64020959  0.57768219  1
  O  O232  1  0.06730596  0.47590204  0.58276816  1
  O  O233  1  0.57466930  0.48921252  0.58500098  1
  O  O234  1  0.15382594  0.84660377  0.25623624  1
  O  O235  1  0.66222128  0.82958711  0.25402220  1
  O  O236  1  0.26406802  0.67361802  0.25153573  1
  O  O237  1  0.76188304  0.67114579  0.26154363  1
  O  O238  1  0.07319540  0.47279888  0.25363896  1
  O  O239  1  0.58331557  0.47267356  0.26184486  1
  O  O240  1  0.16209693  0.49411358  0.75408797  1
  O  O241  1  0.65325159  0.48235280  0.75389352  1
  O  O242  1  0.08648521  0.69824881  0.76308260  1
  O  O243  1  0.57174642  0.67984779  0.75461763  1
  O  O244  1  0.25717663  0.85161135  0.76056623  1
  O  O245  1  0.76562080  0.86703317  0.75293469  1
