# generated using pymatgen
data_Na2Y4Nb4Si5S7O48
_symmetry_space_group_name_H-M   'P 1'
_cell_length_a   18.12500289
_cell_length_b   9.07486418
_cell_length_c   23.68955233
_cell_angle_alpha   89.92225493
_cell_angle_beta   89.99197138
_cell_angle_gamma   120.12717817
_symmetry_Int_Tables_number   1
_chemical_formula_structural   Na2Y4Nb4Si5S7O48
_chemical_formula_sum   'Na6 Y12 Nb12 Si15 S21 O144'
_cell_volume   3370.13360693
_cell_formula_units_Z   3
loop_
 _symmetry_equiv_pos_site_id
 _symmetry_equiv_pos_as_xyz
  1  'x, y, z'
loop_
 _atom_site_type_symbol
 _atom_site_label
 _atom_site_symmetry_multiplicity
 _atom_site_fract_x
 _atom_site_fract_y
 _atom_site_fract_z
 _atom_site_occupancy
  Na  Na0  1  0.00106493  0.98945188  0.49549166  1
  Na  Na1  1  0.49740827  0.00777778  0.99410604  1
  Na  Na2  1  0.33255170  0.31583615  0.84301216  1
  Na  Na3  1  0.83321013  0.33659969  0.83490471  1
  Na  Na4  1  0.33049161  0.32641667  0.33074163  1
  Na  Na5  1  0.84343890  0.35061910  0.33442340  1
  Y  Y6  1  0.00678105  0.99126474  0.35476505  1
  Y  Y7  1  0.50459736  0.02066925  0.85550378  1
  Y  Y8  1  0.00290540  0.00406992  0.64981846  1
  Y  Y9  1  0.50280614  0.00217953  0.14821262  1
  Y  Y10  1  0.32684735  0.32579873  0.97900058  1
  Y  Y11  1  0.84111620  0.33457160  0.98396235  1
  Y  Y12  1  0.34034670  0.34728039  0.48446268  1
  Y  Y13  1  0.82984378  0.32953693  0.48082535  1
  Y  Y14  1  0.15830639  0.67296826  0.30672730  1
  Y  Y15  1  0.67047928  0.67085826  0.30529766  1
  Y  Y16  1  0.16975491  0.67409407  0.80573209  1
  Y  Y17  1  0.65884246  0.64407763  0.80655136  1
  Nb  Nb18  1  0.50499675  0.01702381  0.34934841  1
  Nb  Nb19  1  0.01090600  0.99278996  0.85334561  1
  Nb  Nb20  1  0.50343320  0.01020223  0.64137414  1
  Nb  Nb21  1  0.00518446  0.00069945  0.14061205  1
  Nb  Nb22  1  0.33406682  0.34866257  0.68492683  1
  Nb  Nb23  1  0.83027689  0.32587207  0.69034918  1
  Nb  Nb24  1  0.32946082  0.32815109  0.18590706  1
  Nb  Nb25  1  0.83314485  0.31992432  0.18311850  1
  Nb  Nb26  1  0.15863032  0.66330564  0.02334701  1
  Nb  Nb27  1  0.66842525  0.66529775  0.02073155  1
  Nb  Nb28  1  0.16769880  0.67098502  0.52149946  1
  Nb  Nb29  1  0.66127342  0.67022392  0.52716105  1
  Si  Si30  1  0.14306074  0.00625921  0.24714945  1
  Si  Si31  1  0.65206222  0.01994414  0.24883633  1
  Si  Si32  1  0.49287026  0.28802316  0.24742072  1
  Si  Si33  1  0.15079668  0.28495060  0.74976269  1
  Si  Si34  1  0.64226872  0.27926294  0.74745201  1
  Si  Si35  1  0.99427846  0.70310560  0.74871422  1
  Si  Si36  1  0.47597453  0.33143342  0.58458836  1
  Si  Si37  1  0.68955884  0.04694048  0.58529834  1
  Si  Si38  1  0.33191455  0.63025432  0.58481540  1
  Si  Si39  1  0.97692639  0.62237021  0.08457036  1
  Si  Si40  1  0.83170319  0.03182857  0.08438131  1
  Si  Si41  1  0.18978416  0.34411286  0.08398599  1
  Si  Si42  1  0.52105298  0.37472834  0.91873896  1
  Si  Si43  1  0.16716909  0.95012029  0.91601122  1
  Si  Si44  1  0.01975407  0.66575527  0.41867472  1
  S  S45  1  0.35849317  0.70240623  0.25221237  1
  S  S46  1  0.86045264  0.70388517  0.24520391  1
  S  S47  1  0.99384742  0.27897587  0.24657452  1
  S  S48  1  0.49455682  0.71030828  0.74668354  1
  S  S49  1  0.36041714  0.01628722  0.74403287  1
  S  S50  1  0.85671416  0.01119859  0.75154119  1
  S  S51  1  0.98318077  0.34313850  0.58204678  1
  S  S52  1  0.18854787  0.03707935  0.58136841  1
  S  S53  1  0.82828257  0.62320513  0.58198133  1
  S  S54  1  0.48307911  0.62186408  0.08185072  1
  S  S55  1  0.32891908  0.03646318  0.08297005  1
  S  S56  1  0.68951925  0.34099941  0.08143795  1
  S  S57  1  0.31004309  0.67335697  0.92027005  1
  S  S58  1  0.81256723  0.67467576  0.91614708  1
  S  S59  1  0.02456410  0.37196397  0.91569507  1
  S  S60  1  0.66638238  0.94932009  0.91855974  1
  S  S61  1  0.31361384  0.95122467  0.41611405  1
  S  S62  1  0.80916561  0.94657202  0.42062353  1
  S  S63  1  0.16657143  0.38392547  0.41884063  1
  S  S64  1  0.66099922  0.37284462  0.41638107  1
  S  S65  1  0.52649162  0.67739857  0.41643705  1
  O  O66  1  0.11467401  0.05767159  0.30465080  1
  O  O67  1  0.59471773  0.03996306  0.30571402  1
  O  O68  1  0.41583752  0.79268595  0.30247124  1
  O  O69  1  0.90979781  0.77393351  0.29825100  1
  O  O70  1  0.47911711  0.15387662  0.30583591  1
  O  O71  1  0.97687343  0.18171272  0.29940608  1
  O  O72  1  0.09692464  0.15199825  0.80586316  1
  O  O73  1  0.61294029  0.16949069  0.80450658  1
  O  O74  1  0.47795804  0.77384262  0.79899649  1
  O  O75  1  0.97901663  0.80163782  0.80569423  1
  O  O76  1  0.40982954  0.04664039  0.79681360  1
  O  O77  1  0.91152751  0.03982167  0.80097578  1
  O  O78  1  0.40605974  0.99713852  0.69564783  1
  O  O79  1  0.89162183  0.98828759  0.69886602  1
  O  O80  1  0.09628514  0.20592774  0.69416509  1
  O  O81  1  0.58163021  0.16865112  0.69534624  1
  O  O82  1  0.00024573  0.80538054  0.69315473  1
  O  O83  1  0.49975895  0.81084754  0.69720646  1
  O  O84  1  0.39342308  0.79939924  0.20052681  1
  O  O85  1  0.90339315  0.81370436  0.19677479  1
  O  O86  1  0.99942623  0.18902250  0.19771903  1
  O  O87  1  0.50210447  0.19600210  0.19400777  1
  O  O88  1  0.08054039  0.99363400  0.19582890  1
  O  O89  1  0.59528878  0.98577694  0.19475575  1
  O  O90  1  0.42761343  0.36308180  0.63778823  1
  O  O91  1  0.94416055  0.36839235  0.63355055  1
  O  O92  1  0.23971101  0.11743895  0.63241380  1
  O  O93  1  0.75744444  0.14363984  0.63738331  1
  O  O94  1  0.31397501  0.49385696  0.63934768  1
  O  O95  1  0.81608083  0.51814775  0.63278758  1
  O  O96  1  0.44396912  0.51813398  0.13384160  1
  O  O97  1  0.92541335  0.49238683  0.13845757  1
  O  O98  1  0.31998813  0.12647731  0.13458689  1
  O  O99  1  0.81395867  0.13296306  0.13957070  1
  O  O100  1  0.25741817  0.37369004  0.13824512  1
  O  O101  1  0.74092039  0.36031504  0.13302834  1
  O  O102  1  0.22399236  0.29010405  0.03201186  1
  O  O103  1  0.72772962  0.31496027  0.03103096  1
  O  O104  1  0.43135814  0.54260815  0.03240972  1
  O  O105  1  0.92234824  0.55495647  0.02886645  1
  O  O106  1  0.34560603  0.14233845  0.03351121  1
  O  O107  1  0.85311165  0.15275186  0.03151426  1
  O  O108  1  0.22711448  0.13881824  0.53054505  1
  O  O109  1  0.72244819  0.15180510  0.52909085  1
  O  O110  1  0.35313518  0.55441059  0.53108858  1
  O  O111  1  0.84334669  0.54838613  0.53169982  1
  O  O112  1  0.42453052  0.29383499  0.52755597  1
  O  O113  1  0.93114904  0.32096926  0.53206393  1
  O  O114  1  0.26246756  0.68317010  0.97077532  1
  O  O115  1  0.76887237  0.69014644  0.96922353  1
  O  O116  1  0.07313796  0.45364411  0.96954407  1
  O  O117  1  0.58594131  0.49331920  0.97422412  1
  O  O118  1  0.15590250  0.82851907  0.97338388  1
  O  O119  1  0.66479148  0.84726913  0.97061316  1
  O  O120  1  0.27131302  0.84950224  0.46872723  1
  O  O121  1  0.76071282  0.83870067  0.47121388  1
  O  O122  1  0.16465423  0.48218076  0.47059604  1
  O  O123  1  0.64989623  0.45259729  0.46790616  1
  O  O124  1  0.08408075  0.67509478  0.47421379  1
  O  O125  1  0.57641974  0.69152533  0.46983100  1
  O  O126  1  0.06546543  0.65124914  0.36288263  1
  O  O127  1  0.56841818  0.65264843  0.36818390  1
  O  O128  1  0.26180127  0.86877312  0.36630219  1
  O  O129  1  0.76324516  0.86621715  0.36920578  1
  O  O130  1  0.17638004  0.47973900  0.36749323  1
  O  O131  1  0.67454183  0.47576166  0.36629334  1
  O  O132  1  0.06590035  0.47809881  0.86710432  1
  O  O133  1  0.56760523  0.47923519  0.86266121  1
  O  O134  1  0.17696938  0.86320326  0.86147399  1
  O  O135  1  0.67640741  0.87339264  0.86738242  1
  O  O136  1  0.26501321  0.65777589  0.86810692  1
  O  O137  1  0.76054512  0.65287069  0.86657828  1
  O  O138  1  0.01776007  0.84324460  0.42244336  1
  O  O139  1  0.51965048  0.83333214  0.41004137  1
  O  O140  1  0.39858224  0.96184417  0.40938571  1
  O  O141  1  0.89478792  0.96447337  0.42082096  1
  O  O142  1  0.08523880  0.21938935  0.42012650  1
  O  O143  1  0.57968815  0.19959259  0.40787679  1
  O  O144  1  0.01572213  0.20048504  0.90952353  1
  O  O145  1  0.51949043  0.19376470  0.92255760  1
  O  O146  1  0.07486558  0.95629259  0.90680522  1
  O  O147  1  0.58530852  0.95064891  0.92009079  1
  O  O148  1  0.39595757  0.83064609  0.91989680  1
  O  O149  1  0.89617279  0.83387284  0.91097455  1
  O  O150  1  0.49653452  0.17975566  0.59986060  1
  O  O151  1  0.99471265  0.19412480  0.58627530  1
  O  O152  1  0.10060920  0.00422540  0.58584024  1
  O  O153  1  0.59288480  0.00076343  0.60224756  1
  O  O154  1  0.40849637  0.81334219  0.60593891  1
  O  O155  1  0.89884608  0.79938573  0.58758775  1
  O  O156  1  0.49545415  0.79498409  0.08762541  1
  O  O157  1  0.99596579  0.81379718  0.10041573  1
  O  O158  1  0.40027843  0.00535975  0.09053359  1
  O  O159  1  0.90919477  0.00478512  0.10646465  1
  O  O160  1  0.09394808  0.18895074  0.10280671  1
  O  O161  1  0.60173482  0.19673745  0.08678006  1
  O  O162  1  0.35071230  0.16889378  0.73470792  1
  O  O163  1  0.85211389  0.17658145  0.74485600  1
  O  O164  1  0.24436332  0.28850140  0.73903456  1
  O  O165  1  0.73860285  0.29873832  0.73190846  1
  O  O166  1  0.41698889  0.52951931  0.73841159  1
  O  O167  1  0.90505006  0.51195861  0.73814859  1
  O  O168  1  0.35498687  0.53319923  0.24696856  1
  O  O169  1  0.85044216  0.53120959  0.23699734  1
  O  O170  1  0.40596648  0.30242587  0.23962241  1
  O  O171  1  0.91646918  0.30482843  0.23856714  1
  O  O172  1  0.23987146  0.17883461  0.23101181  1
  O  O173  1  0.74447263  0.20118023  0.24131254  1
  O  O174  1  0.32142015  0.52429323  0.92541036  1
  O  O175  1  0.82273741  0.52428346  0.92236298  1
  O  O176  1  0.42919461  0.35748863  0.92371111  1
  O  O177  1  0.93732047  0.35007284  0.92037484  1
  O  O178  1  0.24090777  0.14406927  0.92072011  1
  O  O179  1  0.73960978  0.12357399  0.92448413  1
  O  O180  1  0.32522535  0.12391237  0.42172722  1
  O  O181  1  0.81657655  0.11535029  0.42509490  1
  O  O182  1  0.23953723  0.35577683  0.42453498  1
  O  O183  1  0.73244071  0.34037848  0.42189898  1
  O  O184  1  0.43957896  0.52658207  0.42120255  1
  O  O185  1  0.92513504  0.50075190  0.42232651  1
  O  O186  1  0.18080623  0.51226471  0.07040450  1
  O  O187  1  0.68553876  0.50179099  0.07450463  1
  O  O188  1  0.07066139  0.63593341  0.07242703  1
  O  O189  1  0.57064828  0.64133714  0.07427971  1
  O  O190  1  0.24878279  0.86969685  0.07703047  1
  O  O191  1  0.74750650  0.84597696  0.07058764  1
  O  O192  1  0.18421108  0.86687872  0.57330965  1
  O  O193  1  0.67934057  0.85247642  0.57145946  1
  O  O194  1  0.24724410  0.64810353  0.56970845  1
  O  O195  1  0.74748398  0.63099325  0.57162101  1
  O  O196  1  0.07055745  0.49885054  0.57393113  1
  O  O197  1  0.57251962  0.50495583  0.56971792  1
  O  O198  1  0.15941552  0.85031827  0.24840993  1
  O  O199  1  0.67092976  0.87486611  0.26624291  1
  O  O200  1  0.27343361  0.67350487  0.26328918  1
  O  O201  1  0.77509568  0.68317380  0.25082845  1
  O  O202  1  0.06969695  0.44869001  0.25015545  1
  O  O203  1  0.57082998  0.46441054  0.26504559  1
  O  O204  1  0.17366773  0.47056587  0.76507032  1
  O  O205  1  0.65903957  0.46843128  0.74761455  1
  O  O206  1  0.06819300  0.66539517  0.76031788  1
  O  O207  1  0.57010015  0.69165478  0.74960939  1
  O  O208  1  0.27636312  0.86469536  0.74739393  1
  O  O209  1  0.76978643  0.87262578  0.75993707  1
