# generated using pymatgen
data_Rb2HBrO
_symmetry_space_group_name_H-M   'P 1'
_cell_length_a   4.47932481
_cell_length_b   6.94147895
_cell_length_c   8.90693162
_cell_angle_alpha   71.99566724
_cell_angle_beta   90.00000000
_cell_angle_gamma   90.00000000
_symmetry_Int_Tables_number   1
_chemical_formula_structural   Rb2HBrO
_chemical_formula_sum   'Rb4 H2 Br2 O2'
_cell_volume   263.38336270
_cell_formula_units_Z   2
loop_
 _symmetry_equiv_pos_site_id
 _symmetry_equiv_pos_as_xyz
  1  'x, y, z'
loop_
 _atom_site_type_symbol
 _atom_site_label
 _atom_site_symmetry_multiplicity
 _atom_site_fract_x
 _atom_site_fract_y
 _atom_site_fract_z
 _atom_site_occupancy
  Rb  Rb0  1  0.75000000  0.71491341  0.03681796  1
  Rb  Rb1  1  0.25000000  0.29342555  0.38163245  1
  Rb  Rb2  1  0.75000000  0.70657445  0.61836755  1
  Rb  Rb3  1  0.25000000  0.28508659  0.96318204  1
  H  H4  1  0.25000000  0.83640937  0.79256113  1
  H  H5  1  0.75000000  0.16359063  0.20743887  1
  Br  Br6  1  0.25000000  0.82444304  0.30249900  1
  Br  Br7  1  0.75000000  0.17555696  0.69750100  1
  O  O8  1  0.25000000  0.68981807  0.83094973  1
  O  O9  1  0.75000000  0.31018193  0.16905027  1
