# generated using pymatgen
data_Na8Ca3Sn(PO4)6
_symmetry_space_group_name_H-M   'P 1'
_cell_length_a   9.38125643
_cell_length_b   9.38125608
_cell_length_c   22.97452523
_cell_angle_alpha   90.00000000
_cell_angle_beta   90.00000000
_cell_angle_gamma   120.00000119
_symmetry_Int_Tables_number   1
_chemical_formula_structural   Na8Ca3Sn(PO4)6
_chemical_formula_sum   'Na24 Ca9 Sn3 P18 O72'
_cell_volume   1751.05251247
_cell_formula_units_Z   3
loop_
 _symmetry_equiv_pos_site_id
 _symmetry_equiv_pos_as_xyz
  1  'x, y, z'
loop_
 _atom_site_type_symbol
 _atom_site_label
 _atom_site_symmetry_multiplicity
 _atom_site_fract_x
 _atom_site_fract_y
 _atom_site_fract_z
 _atom_site_occupancy
  Na  Na0  1  0.63510877  0.99949417  0.25300729  1
  Na  Na1  1  0.36438540  0.36489123  0.25300729  1
  Na  Na2  1  0.00050583  0.63561460  0.25300729  1
  Na  Na3  1  0.64543104  0.63703571  0.74303555  1
  Na  Na4  1  0.99160466  0.35456896  0.74303555  1
  Na  Na5  1  0.36296429  0.00839534  0.74303555  1
  Na  Na6  1  0.29628672  0.33584770  0.57908754  1
  Na  Na7  1  0.03956198  0.70371328  0.57908754  1
  Na  Na8  1  0.66415230  0.96043802  0.57908754  1
  Na  Na9  1  0.29571043  0.96262906  0.09197384  1
  Na  Na10  1  0.66691963  0.70428957  0.09197384  1
  Na  Na11  1  0.03737094  0.33308037  0.09197384  1
  Na  Na12  1  0.97107550  0.67601880  0.91588454  1
  Na  Na13  1  0.70494230  0.02892450  0.91588454  1
  Na  Na14  1  0.32398120  0.29505770  0.91588454  1
  Na  Na15  1  0.97894496  0.30323769  0.40913647  1
  Na  Na16  1  0.32429174  0.02105504  0.40913647  1
  Na  Na17  1  0.69676231  0.67570826  0.40913647  1
  Na  Na18  1  -0.00000000  0.00000000  0.49594556  1
  Na  Na19  1  -0.00000000  0.00000000  0.00697280  1
  Na  Na20  1  0.66666700  0.33333300  0.82843960  1
  Na  Na21  1  0.66666700  0.33333300  0.32675105  1
  Na  Na22  1  0.33333300  0.66666700  0.17680526  1
  Na  Na23  1  0.33333300  0.66666700  0.65856811  1
  Ca  Ca24  1  -0.00000000  0.00000000  0.34638921  1
  Ca  Ca25  1  -0.00000000  0.00000000  0.84663103  1
  Ca  Ca26  1  -0.00000000  0.00000000  0.65189618  1
  Ca  Ca27  1  -0.00000000  0.00000000  0.15335225  1
  Ca  Ca28  1  0.66666700  0.33333300  0.68230292  1
  Ca  Ca29  1  0.66666700  0.33333300  0.18307574  1
  Ca  Ca30  1  0.33333300  0.66666700  0.01668436  1
  Ca  Ca31  1  0.33333300  0.66666700  0.51145034  1
  Ca  Ca32  1  0.33333300  0.66666700  0.32290486  1
  Sn  Sn33  1  0.66666700  0.33333300  0.98431563  1
  Sn  Sn34  1  0.66666700  0.33333300  0.48633411  1
  Sn  Sn35  1  0.33333300  0.66666700  0.82141582  1
  P  P36  1  0.30640897  0.99722924  0.24964544  1
  P  P37  1  0.69082027  0.69359103  0.24964544  1
  P  P38  1  0.00277076  0.30917973  0.24964544  1
  P  P39  1  0.30556621  0.31698519  0.75478467  1
  P  P40  1  0.01141898  0.69443379  0.75478467  1
  P  P41  1  0.68301481  0.98858102  0.75478467  1
  P  P42  1  0.96287607  0.33239668  0.58310171  1
  P  P43  1  0.36952161  0.03712393  0.58310171  1
  P  P44  1  0.66760332  0.63047839  0.58310171  1
  P  P45  1  0.95999938  0.62991946  0.07937638  1
  P  P46  1  0.66992108  0.04000062  0.07937638  1
  P  P47  1  0.37008054  0.33007892  0.07937638  1
  P  P48  1  0.62876967  0.65671685  0.91772495  1
  P  P49  1  0.02794618  0.37123033  0.91772495  1
  P  P50  1  0.34328315  0.97205382  0.91772495  1
  P  P51  1  0.64147768  0.98481790  0.42124573  1
  P  P52  1  0.34333922  0.35852232  0.42124573  1
  P  P53  1  0.01518210  0.65666078  0.42124573  1
  O  O54  1  0.21982539  0.01366679  0.30446132  1
  O  O55  1  0.79384140  0.78017461  0.30446132  1
  O  O56  1  0.98633321  0.20615860  0.30446132  1
  O  O57  1  0.22590075  0.21337872  0.80936524  1
  O  O58  1  0.98747797  0.77409925  0.80936524  1
  O  O59  1  0.78662128  0.01252203  0.80936524  1
  O  O60  1  0.75789685  0.95678436  0.69971474  1
  O  O61  1  0.19888751  0.24210315  0.69971474  1
  O  O62  1  0.04321564  0.80111249  0.69971474  1
  O  O63  1  0.77330029  0.79337998  0.19341200  1
  O  O64  1  0.02007969  0.22669971  0.19341200  1
  O  O65  1  0.20662002  0.97992031  0.19341200  1
  O  O66  1  0.88529406  0.35140898  0.63916904  1
  O  O67  1  0.46611592  0.11470594  0.63916904  1
  O  O68  1  0.64859102  0.53388408  0.63916904  1
  O  O69  1  0.87510181  0.52508337  0.13231952  1
  O  O70  1  0.64998256  0.12489819  0.13231952  1
  O  O71  1  0.47491663  0.35001744  0.13231952  1
  O  O72  1  0.45678691  0.30857086  0.02123056  1
  O  O73  1  0.85178495  0.54321309  0.02123056  1
  O  O74  1  0.69142914  0.14821505  0.02123056  1
  O  O75  1  0.46385988  0.14945629  0.52867558  1
  O  O76  1  0.68559741  0.53614012  0.52867558  1
  O  O77  1  0.85054371  0.31440259  0.52867558  1
  O  O78  1  0.55005108  0.68222267  0.97089998  1
  O  O79  1  0.13217059  0.44994892  0.97089998  1
  O  O80  1  0.31777733  0.86782941  0.97089998  1
  O  O81  1  0.56174833  0.88096162  0.47589086  1
  O  O82  1  0.31921229  0.43825167  0.47589086  1
  O  O83  1  0.11903838  0.68078771  0.47589086  1
  O  O84  1  0.09037961  0.62425331  0.36655742  1
  O  O85  1  0.53387270  0.90962039  0.36655742  1
  O  O86  1  0.37574669  0.46612730  0.36655742  1
  O  O87  1  0.11245987  0.48499638  0.86183819  1
  O  O88  1  0.37253551  0.88754013  0.86183819  1
  O  O89  1  0.51500362  0.62746449  0.86183819  1
  O  O90  1  0.98897266  0.80677651  0.41602458  1
  O  O91  1  0.81780385  0.01102734  0.41602458  1
  O  O92  1  0.19322349  0.18219615  0.41602458  1
  O  O93  1  0.00130563  0.19643743  0.90986952  1
  O  O94  1  0.19513179  0.99869437  0.90986952  1
  O  O95  1  0.80356257  0.80486821  0.90986952  1
  O  O96  1  0.97376331  0.17225083  0.58239459  1
  O  O97  1  0.19848751  0.02623669  0.58239459  1
  O  O98  1  0.82774917  0.80151249  0.58239459  1
  O  O99  1  0.97239204  0.80112647  0.07894753  1
  O  O100  1  0.82873443  0.02760796  0.07894753  1
  O  O101  1  0.19887353  0.17126557  0.07894753  1
  O  O102  1  0.65594157  0.13843152  0.74987433  1
  O  O103  1  0.48249095  0.34405843  0.74987433  1
  O  O104  1  0.86156848  0.51750905  0.74987433  1
  O  O105  1  0.67323553  0.51948648  0.24852827  1
  O  O106  1  0.84625195  0.32676447  0.24852827  1
  O  O107  1  0.48051352  0.15374805  0.24852827  1
  O  O108  1  0.63872586  0.49116319  0.92003080  1
  O  O109  1  0.85243833  0.36127414  0.92003080  1
  O  O110  1  0.50883681  0.14756167  0.92003080  1
  O  O111  1  0.65573745  0.16162640  0.42643105  1
  O  O112  1  0.50588995  0.34426255  0.42643105  1
  O  O113  1  0.83837360  0.49411005  0.42643105  1
  O  O114  1  0.35243334  0.48459871  0.07521571  1
  O  O115  1  0.13216437  0.64756666  0.07521571  1
  O  O116  1  0.51540129  0.86783563  0.07521571  1
  O  O117  1  0.35139191  0.86398351  0.57786322  1
  O  O118  1  0.51259060  0.64860809  0.57786322  1
  O  O119  1  0.13601649  0.48740940  0.57786322  1
  O  O120  1  0.32322471  0.84009136  0.25261729  1
  O  O121  1  0.51686565  0.67677529  0.25261729  1
  O  O122  1  0.15990864  0.48313435  0.25261729  1
  O  O123  1  0.31849461  0.49359803  0.76058626  1
  O  O124  1  0.17510242  0.68150539  0.76058626  1
  O  O125  1  0.50640197  0.82489758  0.76058626  1
