# generated using pymatgen
data_Na7Y4SiP5O24
_symmetry_space_group_name_H-M   'P 1'
_cell_length_a   9.39051409
_cell_length_b   9.38862392
_cell_length_c   23.42042665
_cell_angle_alpha   89.83087034
_cell_angle_beta   90.10600816
_cell_angle_gamma   120.00322777
_symmetry_Int_Tables_number   1
_chemical_formula_structural   Na7Y4SiP5O24
_chemical_formula_sum   'Na21 Y12 Si3 P15 O72'
_cell_volume   1788.13657521
_cell_formula_units_Z   3
loop_
 _symmetry_equiv_pos_site_id
 _symmetry_equiv_pos_as_xyz
  1  'x, y, z'
loop_
 _atom_site_type_symbol
 _atom_site_label
 _atom_site_symmetry_multiplicity
 _atom_site_fract_x
 _atom_site_fract_y
 _atom_site_fract_z
 _atom_site_occupancy
  Na  Na0  1  0.36407284  0.36330187  0.25044370  1
  Na  Na1  1  0.99895522  0.63393359  0.24757053  1
  Na  Na2  1  0.63858843  0.64362483  0.74841332  1
  Na  Na3  1  0.99158674  0.35655572  0.75262159  1
  Na  Na4  1  0.37191423  0.00014343  0.74768496  1
  Na  Na5  1  0.30191566  0.32408165  0.58147196  1
  Na  Na6  1  0.03807290  0.70465879  0.58254854  1
  Na  Na7  1  0.66108175  0.96998992  0.58703998  1
  Na  Na8  1  0.29632539  0.96318193  0.08326023  1
  Na  Na9  1  0.67434234  0.69617763  0.08241686  1
  Na  Na10  1  0.02898012  0.34043423  0.08478089  1
  Na  Na11  1  0.96706749  0.66583554  0.91978344  1
  Na  Na12  1  0.69943020  0.03261557  0.91406097  1
  Na  Na13  1  0.96963110  0.30325310  0.41570187  1
  Na  Na14  1  0.33424250  0.03267669  0.41918053  1
  Na  Na15  1  0.99663307  0.98967562  0.50036834  1
  Na  Na16  1  0.01053738  0.00406997  0.99941198  1
  Na  Na17  1  0.65655878  0.32676880  0.83358968  1
  Na  Na18  1  0.66661972  0.33327995  0.33326501  1
  Na  Na19  1  0.33706495  0.67689063  0.16685997  1
  Na  Na20  1  0.34219929  0.68112039  0.66656985  1
  Y  Y21  1  0.98861296  0.99139070  0.34972063  1
  Y  Y22  1  0.00516333  0.00754378  0.85002437  1
  Y  Y23  1  0.99922642  0.00037828  0.65148621  1
  Y  Y24  1  0.99426410  0.99718519  0.15166405  1
  Y  Y25  1  0.66482246  0.32756187  0.68174002  1
  Y  Y26  1  0.67053771  0.32756483  0.18346647  1
  Y  Y27  1  0.66208318  0.33672058  0.98363101  1
  Y  Y28  1  0.66260209  0.33805400  0.48299878  1
  Y  Y29  1  0.33153571  0.66189249  0.01534058  1
  Y  Y30  1  0.33923277  0.66936718  0.51479476  1
  Y  Y31  1  0.34485952  0.67529191  0.31690834  1
  Y  Y32  1  0.33491926  0.66475915  0.81826614  1
  Si  Si33  1  0.69685065  -0.00002024  0.75045548  1
  Si  Si34  1  0.36181208  0.02865616  0.58249497  1
  Si  Si35  1  0.96962456  0.63636826  0.08340926  1
  P  P36  1  0.29710228  0.00039847  0.25088584  1
  P  P37  1  0.69689345  0.69374626  0.24763274  1
  P  P38  1  0.00330867  0.30425941  0.25114006  1
  P  P39  1  0.30100411  0.30139774  0.74814576  1
  P  P40  1  0.99969774  0.69962911  0.75103349  1
  P  P41  1  0.96765821  0.33449960  0.58222579  1
  P  P42  1  0.66721418  0.63361581  0.58535756  1
  P  P43  1  0.66643012  0.03408988  0.08069138  1
  P  P44  1  0.36746246  0.33246953  0.08614164  1
  P  P45  1  0.63878693  0.66866056  0.91625687  1
  P  P46  1  0.02739166  0.36316599  0.91711704  1
  P  P47  1  0.33376488  0.96585057  0.91674202  1
  P  P48  1  0.63643916  0.97250363  0.41893853  1
  P  P49  1  0.32985393  0.36239257  0.41546831  1
  P  P50  1  0.03646154  0.66630973  0.41573059  1
  O  O51  1  0.21075811  0.02099959  0.30402027  1
  O  O52  1  0.80934023  0.78450477  0.29858748  1
  O  O53  1  0.98691998  0.20096371  0.30472788  1
  O  O54  1  0.21604535  0.18639548  0.79898902  1
  O  O55  1  0.97871867  0.78452524  0.80408766  1
  O  O56  1  0.81151420  0.02449582  0.80645721  1
  O  O57  1  0.78099457  0.97412833  0.69307702  1
  O  O58  1  0.20099062  0.22591216  0.69278528  1
  O  O59  1  0.02790344  0.80643455  0.69701828  1
  O  O60  1  0.77208362  0.78997628  0.19173302  1
  O  O61  1  0.02276489  0.22154458  0.19690469  1
  O  O62  1  0.19136805  0.97770308  0.19685030  1
  O  O63  1  0.88965842  0.36276669  0.63614685  1
  O  O64  1  0.47339573  0.11422134  0.63969817  1
  O  O65  1  0.64420295  0.53514271  0.64090423  1
  O  O66  1  0.88242218  0.52166620  0.13985599  1
  O  O67  1  0.63487408  0.11609661  0.13211238  1
  O  O68  1  0.46894872  0.35657399  0.14102280  1
  O  O69  1  0.44969633  0.30155750  0.03483040  1
  O  O70  1  0.85565810  0.54970669  0.02693209  1
  O  O71  1  0.69038397  0.13526947  0.02593980  1
  O  O72  1  0.45081658  0.14417510  0.52641788  1
  O  O73  1  0.69443487  0.54674563  0.53441446  1
  O  O74  1  0.86069293  0.31293904  0.52905444  1
  O  O75  1  0.55427940  0.68775109  0.97016374  1
  O  O76  1  0.12904667  0.44886256  0.97124280  1
  O  O77  1  0.31331819  0.85971464  0.97059477  1
  O  O78  1  0.56111824  0.87650154  0.47461961  1
  O  O79  1  0.31018126  0.44456479  0.46969258  1
  O  O80  1  0.14183240  0.68899579  0.46972799  1
  O  O81  1  0.12271136  0.64557908  0.36257422  1
  O  O82  1  0.52404877  0.88248639  0.36786360  1
  O  O83  1  0.34622619  0.46582798  0.36191694  1
  O  O84  1  0.11169272  0.46665023  0.86325814  1
  O  O85  1  0.35358041  0.88015333  0.86330444  1
  O  O86  1  0.53766740  0.65332366  0.86225566  1
  O  O87  1  0.02520484  0.82572641  0.41184897  1
  O  O88  1  0.81310080  -0.00029206  0.41345916  1
  O  O89  1  0.16990594  0.18907484  0.41255407  1
  O  O90  1  0.00253871  0.18721879  0.91501212  1
  O  O91  1  0.17379382  0.97526843  0.91361446  1
  O  O92  1  0.81217131  0.82773396  0.91408332  1
  O  O93  1  0.98109221  0.17628663  0.58676764  1
  O  O94  1  0.17717988  0.00879080  0.58544606  1
  O  O95  1  0.82039047  0.80888007  0.58759038  1
  O  O96  1  0.98987600  0.82167893  0.08699581  1
  O  O97  1  0.82544191  0.02260853  0.08750819  1
  O  O98  1  0.19015026  0.18188669  0.08988318  1
  O  O99  1  0.68034719  0.16713019  0.74810663  1
  O  O100  1  0.47760542  0.32702446  0.74502776  1
  O  O101  1  0.84179424  0.52817502  0.74650592  1
  O  O102  1  0.68307166  0.52060459  0.24656776  1
  O  O103  1  0.85302639  0.33063905  0.24879729  1
  O  O104  1  0.46681383  0.15913597  0.24719668  1
  O  O105  1  0.66376909  0.51785693  0.91858868  1
  O  O106  1  0.85473103  0.34989082  0.91944373  1
  O  O107  1  0.49255764  0.13530992  0.91992568  1
  O  O108  1  0.65125010  0.14635051  0.41999359  1
  O  O109  1  0.48031799  0.33596215  0.41771275  1
  O  O110  1  0.86669353  0.50705201  0.41945090  1
  O  O111  1  0.35532958  0.49152157  0.07939592  1
  O  O112  1  0.15462020  0.65561756  0.07987362  1
  O  O113  1  0.51546281  0.85663208  0.07715696  1
  O  O114  1  0.34354405  0.84446115  0.57935368  1
  O  O115  1  0.50911618  0.64630368  0.57899001  1
  O  O116  1  0.14298900  0.48645287  0.57725797  1
  O  O117  1  0.30793180  0.84065948  0.25466780  1
  O  O118  1  0.52041561  0.66686933  0.25306921  1
  O  O119  1  0.16330836  0.47755764  0.25395945  1
  O  O120  1  0.31216666  0.47148173  0.75472103  1
  O  O121  1  0.15218692  0.67634163  0.75555198  1
  O  O122  1  0.51171271  0.83524515  0.75385266  1
