# generated using pymatgen
data_Na6Ca4Ta4Si5S7O48
_symmetry_space_group_name_H-M   'P 1'
_cell_length_a   18.26144839
_cell_length_b   9.12245083
_cell_length_c   23.17573313
_cell_angle_alpha   89.98707745
_cell_angle_beta   90.18754946
_cell_angle_gamma   120.01537239
_symmetry_Int_Tables_number   1
_chemical_formula_structural   Na6Ca4Ta4Si5S7O48
_chemical_formula_sum   'Na18 Ca12 Ta12 Si15 S21 O144'
_cell_volume   3343.03301918
_cell_formula_units_Z   3
loop_
 _symmetry_equiv_pos_site_id
 _symmetry_equiv_pos_as_xyz
  1  'x, y, z'
loop_
 _atom_site_type_symbol
 _atom_site_label
 _atom_site_symmetry_multiplicity
 _atom_site_fract_x
 _atom_site_fract_y
 _atom_site_fract_z
 _atom_site_occupancy
  Na  Na0  1  0.00038637  0.61528951  0.24965593  1
  Na  Na1  1  0.50036107  0.61320190  0.25016459  1
  Na  Na2  1  0.00120891  0.37983107  0.75016574  1
  Na  Na3  1  0.50022515  0.38417051  0.74947063  1
  Na  Na4  1  0.33098659  0.97252723  0.58033552  1
  Na  Na5  1  0.83034709  0.68977159  0.08414635  1
  Na  Na6  1  0.98916053  0.97578634  0.49412606  1
  Na  Na7  1  0.50287087  0.99874695  0.49811205  1
  Na  Na8  1  0.00397684  0.00525543  0.00351417  1
  Na  Na9  1  0.48788407  0.99745570  0.99923754  1
  Na  Na10  1  0.32536847  0.35307865  0.83066295  1
  Na  Na11  1  0.81598868  0.31162862  0.82816693  1
  Na  Na12  1  0.32770861  0.32151730  0.32104670  1
  Na  Na13  1  0.82346996  0.29518204  0.32831511  1
  Na  Na14  1  0.17310743  0.68574894  0.17030979  1
  Na  Na15  1  0.66703234  0.68544483  0.17302647  1
  Na  Na16  1  0.18011704  0.64627888  0.66404918  1
  Na  Na17  1  0.66884712  0.65542578  0.66878613  1
  Ca  Ca18  1  0.32926107  0.33950306  0.68831209  1
  Ca  Ca19  1  0.82419667  0.32501304  0.69245432  1
  Ca  Ca20  1  0.32834412  0.32324375  0.19350132  1
  Ca  Ca21  1  0.82816281  0.31786110  0.18878286  1
  Ca  Ca22  1  0.17244720  0.67225162  0.01540981  1
  Ca  Ca23  1  0.66197803  0.66380056  0.01232798  1
  Ca  Ca24  1  0.16283975  0.66201504  0.51082943  1
  Ca  Ca25  1  0.67214792  0.67239598  0.51417822  1
  Ca  Ca26  1  0.16881237  0.67550620  0.31332663  1
  Ca  Ca27  1  0.67224654  0.68031131  0.31394552  1
  Ca  Ca28  1  0.17777904  0.66569195  0.81653331  1
  Ca  Ca29  1  0.66642271  0.66027122  0.81345192  1
  Ta  Ta30  1  0.00282032  0.00015949  0.35543469  1
  Ta  Ta31  1  0.49828433  0.00132538  0.34616459  1
  Ta  Ta32  1  0.99896882  0.00726154  0.85007940  1
  Ta  Ta33  1  0.50260595  0.00461881  0.85598971  1
  Ta  Ta34  1  0.99837981  0.00771619  0.64707651  1
  Ta  Ta35  1  0.50401691  0.00664479  0.64117588  1
  Ta  Ta36  1  0.00413562  0.00184986  0.14191254  1
  Ta  Ta37  1  0.49825758  0.00174271  0.15146738  1
  Ta  Ta38  1  0.33777067  0.33815298  0.98047721  1
  Ta  Ta39  1  0.83681818  0.33171357  0.98995293  1
  Ta  Ta40  1  0.33915008  0.34608178  0.48791902  1
  Ta  Ta41  1  0.83461054  0.33497403  0.47822714  1
  Si  Si42  1  0.14193308  0.99778914  0.24983680  1
  Si  Si43  1  0.64574265  0.00296755  0.25005485  1
  Si  Si44  1  0.35117589  0.70876588  0.24917425  1
  Si  Si45  1  0.50478000  0.29848636  0.24924410  1
  Si  Si46  1  0.14664339  0.29211705  0.74982886  1
  Si  Si47  1  0.64200165  0.28553085  0.74993401  1
  Si  Si48  1  0.85164508  0.99565287  0.74927400  1
  Si  Si49  1  0.48574173  0.34296775  0.59054134  1
  Si  Si50  1  0.33142675  0.63303486  0.58718279  1
  Si  Si51  1  0.98574612  0.63029723  0.09083681  1
  Si  Si52  1  0.83227753  0.02916111  0.08726781  1
  Si  Si53  1  0.31913135  0.66767283  0.91698197  1
  Si  Si54  1  0.51563817  0.36613664  0.91335103  1
  Si  Si55  1  0.81929801  0.96614159  0.41712129  1
  Si  Si56  1  0.01617469  0.66644929  0.41383786  1
  S  S57  1  0.86196215  0.72780318  0.24844425  1
  S  S58  1  0.00108494  0.27892490  0.24929371  1
  S  S59  1  0.00309945  0.72572585  0.74941822  1
  S  S60  1  0.50093850  0.72320247  0.74912595  1
  S  S61  1  0.36133061  0.99582372  0.74832706  1
  S  S62  1  0.97648452  0.32484154  0.58548973  1
  S  S63  1  0.18350426  0.04453213  0.58242931  1
  S  S64  1  0.68596253  0.04549891  0.58287322  1
  S  S65  1  0.84012552  0.63221307  0.58524626  1
  S  S66  1  0.47614216  0.63126686  0.08420998  1
  S  S67  1  0.34005542  0.04704211  0.08376330  1
  S  S68  1  0.18655405  0.32596041  0.08305028  1
  S  S69  1  0.68348191  0.32126467  0.08164605  1
  S  S70  1  0.82479177  0.66404247  0.91765075  1
  S  S71  1  0.00865429  0.35622864  0.91549356  1
  S  S72  1  0.16526249  0.97598685  0.91714186  1
  S  S73  1  0.67121495  0.98384695  0.91660169  1
  S  S74  1  0.32477246  0.98460552  0.41976140  1
  S  S75  1  0.17091636  0.35796891  0.41740631  1
  S  S76  1  0.66392091  0.35233974  0.41840150  1
  S  S77  1  0.50979198  0.66613730  0.41748544  1
  O  O78  1  0.08342880  0.00158856  0.30476098  1
  O  O79  1  0.58532509  0.99735923  0.30680142  1
  O  O80  1  0.40946431  0.82625075  0.30681822  1
  O  O81  1  0.91150935  0.82701756  0.30017140  1
  O  O82  1  0.50126052  0.17944085  0.30641750  1
  O  O83  1  0.99742054  0.18035825  0.30188938  1
  O  O84  1  0.08422681  0.17246226  0.80597229  1
  O  O85  1  0.58431447  0.16387948  0.80466039  1
  O  O86  1  0.49754505  0.81417798  0.80166433  1
  O  O87  1  0.99847276  0.81681778  0.80263546  1
  O  O88  1  0.40991240  0.99343233  0.80004293  1
  O  O89  1  0.91167578  0.99261941  0.80570588  1
  O  O90  1  0.40441542  0.98517330  0.69358554  1
  O  O91  1  0.91097128  0.98925717  0.69182864  1
  O  O92  1  0.08486365  0.17243047  0.69209124  1
  O  O93  1  0.58451563  0.16801427  0.69195682  1
  O  O94  1  0.00618336  0.82417554  0.69601239  1
  O  O95  1  0.49954529  0.81710420  0.69595867  1
  O  O96  1  0.40911462  0.83177089  0.19163824  1
  O  O97  1  0.90547198  0.82444567  0.19346325  1
  O  O98  1  0.99983334  0.18196683  0.19612626  1
  O  O99  1  0.50451884  0.18339392  0.19123118  1
  O  O100  1  0.08318141  0.99728519  0.19201840  1
  O  O101  1  0.58586474  0.99723269  0.19148848  1
  O  O102  1  0.43938580  0.33994762  0.64851954  1
  O  O103  1  0.94013813  0.34111681  0.63948473  1
  O  O104  1  0.23218768  0.11715399  0.63512153  1
  O  O105  1  0.73337420  0.11974895  0.63561588  1
  O  O106  1  0.31223338  0.51790168  0.64174193  1
  O  O107  1  0.83448841  0.53891381  0.63754116  1
  O  O108  1  0.43846218  0.53917239  0.13717331  1
  O  O109  1  0.93882494  0.53867499  0.14830967  1
  O  O110  1  0.33437861  0.12833675  0.13586206  1
  O  O111  1  0.81430478  0.11102837  0.14054797  1
  O  O112  1  0.23371140  0.34575920  0.13536604  1
  O  O113  1  0.73310262  0.34732734  0.13360897  1
  O  O114  1  0.22814257  0.29673599  0.03141460  1
  O  O115  1  0.73236907  0.30293764  0.02930667  1
  O  O116  1  0.41860623  0.52871460  0.03291666  1
  O  O117  1  0.91360808  0.51951224  0.03298768  1
  O  O118  1  0.34567418  0.15441546  0.03158507  1
  O  O119  1  0.84332183  0.16226017  0.02839716  1
  O  O120  1  0.22859765  0.15716564  0.53073585  1
  O  O121  1  0.72862103  0.15975590  0.53215176  1
  O  O122  1  0.34214533  0.52327505  0.52926466  1
  O  O123  1  0.84858204  0.54284389  0.53323256  1
  O  O124  1  0.41384354  0.30916997  0.53358552  1
  O  O125  1  0.91999581  0.30239902  0.53501130  1
  O  O126  1  0.28995474  0.72406123  0.97280983  1
  O  O127  1  0.79459835  0.70167868  0.97110858  1
  O  O128  1  0.06248354  0.42825673  0.96562723  1
  O  O129  1  0.57376337  0.43263567  0.96879346  1
  O  O130  1  0.14595360  0.86947187  0.96789314  1
  O  O131  1  0.65467907  0.88338729  0.96869233  1
  O  O132  1  0.29132149  0.88632174  0.47333660  1
  O  O133  1  0.79227127  0.85910722  0.47504729  1
  O  O134  1  0.15315267  0.42427492  0.46951785  1
  O  O135  1  0.64841156  0.42482330  0.46963460  1
  O  O136  1  0.07164071  0.71245789  0.47065349  1
  O  O137  1  0.56245204  0.69344294  0.46812436  1
  O  O138  1  0.04053350  0.61138272  0.35498664  1
  O  O139  1  0.54051686  0.63118631  0.36408356  1
  O  O140  1  0.27207639  0.90593749  0.36916541  1
  O  O141  1  0.76079934  0.90944531  0.36136152  1
  O  O142  1  0.18842679  0.46243934  0.36638244  1
  O  O143  1  0.68250755  0.45233528  0.36610437  1
  O  O144  1  0.04103825  0.45074941  0.86154368  1
  O  O145  1  0.53963209  0.46796213  0.85393715  1
  O  O146  1  0.18173602  0.90852326  0.86471098  1
  O  O147  1  0.68834524  0.91439037  0.86520343  1
  O  O148  1  0.26168147  0.60781318  0.86022713  1
  O  O149  1  0.77200148  0.63896142  0.86721562  1
  O  O150  1  0.99578063  0.82672946  0.40393263  1
  O  O151  1  0.49427141  0.81307623  0.41175469  1
  O  O152  1  0.41317033  0.01114700  0.41198735  1
  O  O153  1  0.91883114  0.01671497  0.40165197  1
  O  O154  1  0.09402046  0.18266479  0.40804861  1
  O  O155  1  0.59068305  0.17411608  0.41145559  1
  O  O156  1  0.99508493  0.17518566  0.90809863  1
  O  O157  1  0.49546853  0.16447492  0.90313285  1
  O  O158  1  0.08942950  0.00286969  0.90742116  1
  O  O159  1  0.59401822  0.00425071  0.90755201  1
  O  O160  1  0.41829437  0.81896332  0.90079669  1
  O  O161  1  0.91455935  0.81488969  0.90749165  1
  O  O162  1  0.48364900  0.15040679  0.59021967  1
  O  O163  1  0.98193570  0.15922243  0.58797038  1
  O  O164  1  0.09696362  0.03011376  0.58591483  1
  O  O165  1  0.59891015  0.03370069  0.58646256  1
  O  O166  1  0.42506943  0.81626827  0.59099595  1
  O  O167  1  0.92329695  0.80645312  0.58850542  1
  O  O168  1  0.47982008  0.80050112  0.08304223  1
  O  O169  1  0.98347762  0.81735992  0.08971708  1
  O  O170  1  0.42155290  0.03838747  0.08380484  1
  O  O171  1  0.92587998  0.03456537  0.09024149  1
  O  O172  1  0.09880472  0.16309296  0.08642503  1
  O  O173  1  0.59958971  0.16323395  0.08220759  1
  O  O174  1  0.36035587  0.15528052  0.75031637  1
  O  O175  1  0.86492707  0.18285966  0.75306680  1
  O  O176  1  0.23194384  0.29008051  0.75647450  1
  O  O177  1  0.73248631  0.30035003  0.75514121  1
  O  O178  1  0.42619307  0.55191983  0.75083181  1
  O  O179  1  0.92700221  0.55801231  0.74881351  1
  O  O180  1  0.36247981  0.54689189  0.25155264  1
  O  O181  1  0.86143842  0.56666997  0.25029679  1
  O  O182  1  0.42098376  0.31054621  0.25288035  1
  O  O183  1  0.92625492  0.29980831  0.25082971  1
  O  O184  1  0.22970609  0.16654345  0.25429740  1
  O  O185  1  0.73191596  0.17650410  0.25590602  1
  O  O186  1  0.33043247  0.49650500  0.93439187  1
  O  O187  1  0.83458884  0.50981475  0.92516770  1
  O  O188  1  0.41685679  0.32861108  0.93326222  1
  O  O189  1  0.92123225  0.33273123  0.92557879  1
  O  O190  1  0.24044321  0.15095906  0.92846972  1
  O  O191  1  0.74539978  0.16261863  0.92600334  1
  O  O192  1  0.33332961  0.15810280  0.42811067  1
  O  O193  1  0.83121705  0.16303791  0.43521908  1
  O  O194  1  0.24471679  0.32795325  0.42822762  1
  O  O195  1  0.74184614  0.33122023  0.43039371  1
  O  O196  1  0.42155082  0.50702127  0.42863425  1
  O  O197  1  0.91719889  0.50491453  0.43426093  1
  O  O198  1  0.17070456  0.46546166  0.07409114  1
  O  O199  1  0.67695936  0.47253688  0.07127470  1
  O  O200  1  0.07644563  0.66041077  0.07665576  1
  O  O201  1  0.56055045  0.65497410  0.07509271  1
  O  O202  1  0.26734860  0.87695731  0.07768992  1
  O  O203  1  0.76197552  0.83648131  0.07425811  1
  O  O204  1  0.17413307  0.87680869  0.57386796  1
  O  O205  1  0.67089173  0.87487930  0.57444602  1
  O  O206  1  0.26089040  0.68630958  0.57579470  1
  O  O207  1  0.76918886  0.66155641  0.57962618  1
  O  O208  1  0.06239862  0.46469106  0.57731273  1
  O  O209  1  0.57771014  0.49334631  0.57800123  1
  O  O210  1  0.13644833  0.81718478  0.24632246  1
  O  O211  1  0.64032856  0.82276397  0.24727973  1
  O  O212  1  0.26199185  0.69718111  0.24693585  1
  O  O213  1  0.77814989  0.70825115  0.24819076  1
  O  O214  1  0.07917767  0.44317795  0.24850442  1
  O  O215  1  0.59035801  0.47677736  0.24746638  1
  O  O216  1  0.13890471  0.46000534  0.74616895  1
  O  O217  1  0.63726061  0.45593123  0.74615898  1
  O  O218  1  0.07986066  0.71295934  0.75139747  1
  O  O219  1  0.57911547  0.71491595  0.74810574  1
  O  O220  1  0.27597643  0.84776781  0.74780892  1
  O  O221  1  0.76281135  0.83014953  0.74672514  1
