# generated using pymatgen
data_Na3MgCu2SbO6
_symmetry_space_group_name_H-M   'P 1'
_cell_length_a   6.43537233
_cell_length_b   6.43537157
_cell_length_c   5.66965590
_cell_angle_alpha   93.65805575
_cell_angle_beta   93.65804672
_cell_angle_gamma   128.53038619
_symmetry_Int_Tables_number   1
_chemical_formula_structural   Na3MgCu2SbO6
_chemical_formula_sum   'Na3 Mg1 Cu2 Sb1 O6'
_cell_volume   181.68760577
_cell_formula_units_Z   1
loop_
 _symmetry_equiv_pos_site_id
 _symmetry_equiv_pos_as_xyz
  1  'x, y, z'
loop_
 _atom_site_type_symbol
 _atom_site_label
 _atom_site_symmetry_multiplicity
 _atom_site_fract_x
 _atom_site_fract_y
 _atom_site_fract_z
 _atom_site_occupancy
  Na  Na0  1  0.89754936  0.18249300  0.48216845  1
  Na  Na1  1  0.18249300  0.89754936  0.48216845  1
  Na  Na2  1  0.53890902  0.53890903  0.47622060  1
  Mg  Mg3  1  0.54367135  0.54367135  0.97710413  1
  Cu  Cu4  1  0.04041503  0.54116900  0.98196340  1
  Cu  Cu5  1  0.54116900  0.04041503  0.98196340  1
  Sb  Sb6  1  0.04295335  0.04295335  0.98163352  1
  O  O7  1  0.17552543  0.40514093  0.15648268  1
  O  O8  1  0.24849150  0.24849150  0.72291679  1
  O  O9  1  0.83504391  0.83504391  0.23851682  1
  O  O10  1  0.40514093  0.17552543  0.15648268  1
  O  O11  1  0.90748252  0.67865558  0.80618955  1
  O  O12  1  0.67865558  0.90748252  0.80618955  1
