# generated using pymatgen
data_Ho2MgV2O7
_symmetry_space_group_name_H-M   'P 1'
_cell_length_a   5.90976371
_cell_length_b   5.90976388
_cell_length_c   5.46146535
_cell_angle_alpha   83.00726811
_cell_angle_beta   96.99267989
_cell_angle_gamma   66.04984225
_symmetry_Int_Tables_number   1
_chemical_formula_structural   Ho2MgV2O7
_chemical_formula_sum   'Ho2 Mg1 V2 O7'
_cell_volume   169.91533086
_cell_formula_units_Z   1
loop_
 _symmetry_equiv_pos_site_id
 _symmetry_equiv_pos_as_xyz
  1  'x, y, z'
loop_
 _atom_site_type_symbol
 _atom_site_label
 _atom_site_symmetry_multiplicity
 _atom_site_fract_x
 _atom_site_fract_y
 _atom_site_fract_z
 _atom_site_occupancy
  Ho  Ho0  1  0.33099300  0.33099200  0.50000000  1
  Ho  Ho1  1  0.68405200  0.68405100  0.50000000  1
  Mg  Mg2  1  0.21221400  0.21221800  0.00000200  1
  V  V3  1  0.25923800  0.73985100  0.88452800  1
  V  V4  1  0.73984700  0.25924000  0.11547000  1
  O  O5  1  0.07022300  0.54958700  0.74593300  1
  O  O6  1  0.39715400  0.96641200  0.72699800  1
  O  O7  1  0.44969500  0.56517400  0.22910900  1
  O  O8  1  0.56517500  0.44969600  0.77089300  1
  O  O9  1  0.01499100  0.01498700  0.00000000  1
  O  O10  1  0.54958700  0.07022400  0.25406800  1
  O  O11  1  0.96641500  0.39715100  0.27300100  1
