# generated using pymatgen
data_Na6Hf4Ga4Si5S7O48
_symmetry_space_group_name_H-M   'P 1'
_cell_length_a   17.68263801
_cell_length_b   8.86386806
_cell_length_c   22.75376214
_cell_angle_alpha   90.00153337
_cell_angle_beta   89.79031139
_cell_angle_gamma   120.21828244
_symmetry_Int_Tables_number   1
_chemical_formula_structural   Na6Hf4Ga4Si5S7O48
_chemical_formula_sum   'Na18 Hf12 Ga12 Si15 S21 O144'
_cell_volume   3081.70351368
_cell_formula_units_Z   3
loop_
 _symmetry_equiv_pos_site_id
 _symmetry_equiv_pos_as_xyz
  1  'x, y, z'
loop_
 _atom_site_type_symbol
 _atom_site_label
 _atom_site_symmetry_multiplicity
 _atom_site_fract_x
 _atom_site_fract_y
 _atom_site_fract_z
 _atom_site_occupancy
  Na  Na0  1  0.00036556  0.62823724  0.25469644  1
  Na  Na1  1  0.49542212  0.63704895  0.25129470  1
  Na  Na2  1  0.99552783  0.35853202  0.74966678  1
  Na  Na3  1  0.50157950  0.36549448  0.75240645  1
  Na  Na4  1  0.66503786  0.29902021  0.91648577  1
  Na  Na5  1  0.16606748  0.02884442  0.42527924  1
  Na  Na6  1  0.00186389  0.99589996  0.50213029  1
  Na  Na7  1  0.50586028  0.99615398  0.50285397  1
  Na  Na8  1  0.00655490  0.01312191  0.99764779  1
  Na  Na9  1  0.50297222  0.01048895  0.99689787  1
  Na  Na10  1  0.33083888  0.32337491  0.83395205  1
  Na  Na11  1  0.82997425  0.32830975  0.82511701  1
  Na  Na12  1  0.33722644  0.34288157  0.32938596  1
  Na  Na13  1  0.82774256  0.33556989  0.33615353  1
  Na  Na14  1  0.18118620  0.66081152  0.16930563  1
  Na  Na15  1  0.67449605  0.65954629  0.16511415  1
  Na  Na16  1  0.17496875  0.68964543  0.66733016  1
  Na  Na17  1  0.67986242  0.68911963  0.67459775  1
  Hf  Hf18  1  0.49835511  0.01175574  0.35044497  1
  Hf  Hf19  1  0.99870021  0.98402237  0.85014550  1
  Hf  Hf20  1  -0.00008644  0.98926486  0.64974928  1
  Hf  Hf21  1  0.50484556  0.99858818  0.64486164  1
  Hf  Hf22  1  0.99984796  0.00960661  0.14197647  1
  Hf  Hf23  1  0.49927801  0.01051623  0.14903741  1
  Hf  Hf24  1  0.32934261  0.32525205  0.97472175  1
  Hf  Hf25  1  0.83094806  0.33658970  0.47595545  1
  Hf  Hf26  1  0.16629717  0.66308165  0.01939768  1
  Hf  Hf27  1  0.66592259  0.65690473  0.02192978  1
  Hf  Hf28  1  0.16510326  0.67450907  0.52368988  1
  Hf  Hf29  1  0.66607481  0.66748249  0.52070178  1
  Ga  Ga30  1  0.99677244  0.98804727  0.35234359  1
  Ga  Ga31  1  0.50387350  0.02116436  0.84970752  1
  Ga  Ga32  1  0.31995330  0.33227607  0.67617382  1
  Ga  Ga33  1  0.81910807  0.30417293  0.69785122  1
  Ga  Ga34  1  0.33168035  0.35242427  0.19088041  1
  Ga  Ga35  1  0.81741149  0.30756413  0.17275997  1
  Ga  Ga36  1  0.82503964  0.30628765  0.98794232  1
  Ga  Ga37  1  0.33015060  0.34498996  0.49552844  1
  Ga  Ga38  1  0.17155101  0.66454466  0.31835447  1
  Ga  Ga39  1  0.65970857  0.63120513  0.31571297  1
  Ga  Ga40  1  0.16415305  0.69476737  0.81380735  1
  Ga  Ga41  1  0.66831391  0.65451994  0.81065989  1
  Si  Si42  1  0.34704639  0.70549650  0.25237554  1
  Si  Si43  1  0.49804204  0.30408782  0.24791458  1
  Si  Si44  1  0.64493070  0.29341865  0.75219451  1
  Si  Si45  1  0.00015741  0.69364927  0.74766519  1
  Si  Si46  1  0.84882009  0.99022083  0.75253325  1
  Si  Si47  1  0.18745188  0.04848928  0.58261558  1
  Si  Si48  1  0.69505691  0.05070607  0.58540846  1
  Si  Si49  1  0.33360563  0.62538256  0.58303499  1
  Si  Si50  1  0.83170075  0.04449803  0.08261391  1
  Si  Si51  1  0.19503931  0.34024848  0.08618406  1
  Si  Si52  1  0.68731886  0.32885323  0.08189729  1
  Si  Si53  1  0.52302352  0.37791035  0.91114857  1
  Si  Si54  1  0.16304388  0.95416339  0.91677805  1
  Si  Si55  1  0.66436394  0.37244909  0.41618756  1
  Si  Si56  1  0.02454522  0.66939121  0.40934289  1
  S  S57  1  0.14484371  0.00063461  0.25162071  1
  S  S58  1  0.65146355  0.00446732  0.25130104  1
  S  S59  1  0.85376564  0.70743364  0.25113600  1
  S  S60  1  0.99761801  0.28649615  0.25301340  1
  S  S61  1  0.15168232  0.29901087  0.75150109  1
  S  S62  1  0.49548227  0.70491701  0.75277004  1
  S  S63  1  0.35248182  0.99896567  0.75066361  1
  S  S64  1  0.47552991  0.33309880  0.58439116  1
  S  S65  1  0.97594845  0.32965053  0.58426730  1
  S  S66  1  0.83338603  0.62176572  0.58418870  1
  S  S67  1  0.47693551  0.62304890  0.08443525  1
  S  S68  1  0.97608145  0.61670360  0.08528959  1
  S  S69  1  0.33241879  0.04600468  0.08487949  1
  S  S70  1  0.31266183  0.67342364  0.91155472  1
  S  S71  1  0.81346937  0.66168829  0.91784777  1
  S  S72  1  0.01642962  0.37562580  0.91587623  1
  S  S73  1  0.66703856  0.95723363  0.91504694  1
  S  S74  1  0.31266286  0.96265503  0.41701912  1
  S  S75  1  0.81196322  0.95195762  0.41166473  1
  S  S76  1  0.16660806  0.37191439  0.41401536  1
  S  S77  1  0.51696924  0.65803784  0.41563267  1
  O  O78  1  0.10458826  0.02735362  0.30590558  1
  O  O79  1  0.60824968  0.02875040  0.30380574  1
  O  O80  1  0.41380412  0.79655313  0.30792508  1
  O  O81  1  0.91080066  0.79129273  0.30371430  1
  O  O82  1  0.48533436  0.18445187  0.30587884  1
  O  O83  1  0.98662728  0.17797574  0.30595215  1
  O  O84  1  0.10860877  0.18790440  0.80413992  1
  O  O85  1  0.60483627  0.17471941  0.81237601  1
  O  O86  1  0.48061159  0.78551223  0.80521636  1
  O  O87  1  0.98799081  0.78873793  0.80582141  1
  O  O88  1  0.40741376  0.02698762  0.80385743  1
  O  O89  1  0.91600864  0.03075758  0.80807468  1
  O  O90  1  0.39238586  0.97477584  0.69717793  1
  O  O91  1  0.89820741  0.96559789  0.69451263  1
  O  O92  1  0.09567315  0.21845368  0.69865175  1
  O  O93  1  0.57675942  0.19651748  0.69780725  1
  O  O94  1  0.02281898  0.82863726  0.69269654  1
  O  O95  1  0.50364133  0.80851483  0.69891608  1
  O  O96  1  0.39632507  0.82544824  0.19416019  1
  O  O97  1  0.89748974  0.81339339  0.19814254  1
  O  O98  1  0.00668539  0.19916879  0.19978882  1
  O  O99  1  0.52033319  0.21609901  0.19253709  1
  O  O100  1  0.08595247  0.97248323  0.20088299  1
  O  O101  1  0.59522349  0.97269093  0.19867276  1
  O  O102  1  0.43789091  0.35894707  0.63886842  1
  O  O103  1  0.94145540  0.36048259  0.63801709  1
  O  O104  1  0.24929775  0.12875806  0.64006539  1
  O  O105  1  0.75469524  0.14171790  0.64180532  1
  O  O106  1  0.31983303  0.51352403  0.64258250  1
  O  O107  1  0.82242292  0.52236729  0.63662561  1
  O  O108  1  0.44210356  0.52188195  0.13961342  1
  O  O109  1  0.93864417  0.51596391  0.14068938  1
  O  O110  1  0.32144930  0.12391627  0.13779981  1
  O  O111  1  0.82115408  0.12499444  0.14443742  1
  O  O112  1  0.25141638  0.36129073  0.14395199  1
  O  O113  1  0.74726692  0.37459924  0.14115862  1
  O  O114  1  0.23717237  0.31394756  0.02664095  1
  O  O115  1  0.73073200  0.31015645  0.02044346  1
  O  O116  1  0.42363350  0.53663795  0.03227861  1
  O  O117  1  0.92337362  0.53904348  0.03266004  1
  O  O118  1  0.34522421  0.14948210  0.03063782  1
  O  O119  1  0.85759775  0.16963345  0.02525701  1
  O  O120  1  0.23019930  0.14971717  0.51935143  1
  O  O121  1  0.73727285  0.16071755  0.52497494  1
  O  O122  1  0.35834300  0.55314160  0.52384700  1
  O  O123  1  0.84610099  0.54428500  0.52931194  1
  O  O124  1  0.42336885  0.30941780  0.53066438  1
  O  O125  1  0.92427646  0.31118275  0.53062345  1
  O  O126  1  0.27156337  0.69573512  0.96656145  1
  O  O127  1  0.77361767  0.68955252  0.97132499  1
  O  O128  1  0.07345518  0.46290746  0.96863101  1
  O  O129  1  0.58740401  0.46551006  0.96813451  1
  O  O130  1  0.15309721  0.83785176  0.97518090  1
  O  O131  1  0.65961760  0.85781360  0.96926069  1
  O  O132  1  0.27218647  0.85448004  0.46991837  1
  O  O133  1  0.77202058  0.84725039  0.46580689  1
  O  O134  1  0.15531151  0.45369483  0.46686011  1
  O  O135  1  0.65333960  0.46921172  0.47355808  1
  O  O136  1  0.08968081  0.71141032  0.46520335  1
  O  O137  1  0.57392260  0.68436349  0.46752552  1
  O  O138  1  0.07041186  0.64615289  0.34934304  1
  O  O139  1  0.55928154  0.64352397  0.36032770  1
  O  O140  1  0.25734725  0.88230874  0.36414534  1
  O  O141  1  0.75710373  0.87169837  0.35938662  1
  O  O142  1  0.18079042  0.47923973  0.36057870  1
  O  O143  1  0.68503685  0.49428451  0.35823858  1
  O  O144  1  0.05915010  0.47556972  0.86150784  1
  O  O145  1  0.56825067  0.49600737  0.85288918  1
  O  O146  1  0.18361613  0.87237026  0.85986883  1
  O  O147  1  0.68019824  0.87831792  0.86254691  1
  O  O148  1  0.25621301  0.64087047  0.86009325  1
  O  O149  1  0.75876209  0.63150853  0.86546196  1
  O  O150  1  0.01660605  0.84970859  0.40485236  1
  O  O151  1  0.50846947  0.81609686  0.41218752  1
  O  O152  1  0.39921346  0.97457614  0.41141964  1
  O  O153  1  0.90106478  0.97147080  0.40666379  1
  O  O154  1  0.08526996  0.19484420  0.40780395  1
  O  O155  1  0.57886471  0.17683087  0.41188601  1
  O  O156  1  0.00763248  0.19997025  0.91342480  1
  O  O157  1  0.51235505  0.18013507  0.90869134  1
  O  O158  1  0.07851303  0.98040659  0.91346151  1
  O  O159  1  0.58615496  0.97220544  0.91247522  1
  O  O160  1  0.40082602  0.83044511  0.90641040  1
  O  O161  1  0.90048329  0.82289632  0.91278835  1
  O  O162  1  0.48518809  0.17682409  0.58819140  1
  O  O163  1  0.98591230  0.17291879  0.58762227  1
  O  O164  1  0.09259383  0.03714462  0.58663534  1
  O  O165  1  0.59712250  0.02803538  0.59025475  1
  O  O166  1  0.41575566  0.82294135  0.58978098  1
  O  O167  1  0.91211442  0.80227717  0.58631832  1
  O  O168  1  0.48583960  0.79804381  0.08936458  1
  O  O169  1  0.98829576  0.79545865  0.09204482  1
  O  O170  1  0.41100478  0.02316045  0.08768512  1
  O  O171  1  0.91582775  0.01369944  0.08929859  1
  O  O172  1  0.09687006  0.16477414  0.09226920  1
  O  O173  1  0.59222118  0.14919924  0.08791145  1
  O  O174  1  0.34673165  0.16174877  0.74595758  1
  O  O175  1  0.84822119  0.17179975  0.74785382  1
  O  O176  1  0.23862112  0.31254067  0.74587922  1
  O  O177  1  0.74198406  0.32021084  0.74798190  1
  O  O178  1  0.41888143  0.52141516  0.74657993  1
  O  O179  1  0.91555672  0.50380007  0.73801289  1
  O  O180  1  0.34230534  0.51672001  0.24814828  1
  O  O181  1  0.84804941  0.53408490  0.24675712  1
  O  O182  1  0.41134039  0.32077056  0.23896891  1
  O  O183  1  0.92059736  0.31089966  0.24836665  1
  O  O184  1  0.23232278  0.15319831  0.24586631  1
  O  O185  1  0.73875667  0.16556497  0.24543929  1
  O  O186  1  0.32252598  0.51705104  0.91977261  1
  O  O187  1  0.82386193  0.50614587  0.92436469  1
  O  O188  1  0.42810281  0.36244898  0.92085315  1
  O  O189  1  0.93091181  0.36683799  0.92282418  1
  O  O190  1  0.25011828  0.14925942  0.91984089  1
  O  O191  1  0.74512834  0.14238153  0.91989304  1
  O  O192  1  0.32311986  0.13832537  0.42258718  1
  O  O193  1  0.82363075  0.12888854  0.41902594  1
  O  O194  1  0.24313950  0.34478353  0.41836366  1
  O  O195  1  0.75119638  0.35194180  0.41980627  1
  O  O196  1  0.43133851  0.49564984  0.42181107  1
  O  O197  1  0.92972598  0.49568557  0.41804341  1
  O  O198  1  0.18016420  0.50864198  0.07958934  1
  O  O199  1  0.67471728  0.49957697  0.07866991  1
  O  O200  1  0.06547003  0.63819018  0.07934705  1
  O  O201  1  0.56574256  0.64562594  0.07678363  1
  O  O202  1  0.25392999  0.86699223  0.07790197  1
  O  O203  1  0.74338822  0.85668164  0.07556530  1
  O  O204  1  0.17512128  0.85198397  0.57869846  1
  O  O205  1  0.67997968  0.85172508  0.57745072  1
  O  O206  1  0.24363575  0.63139900  0.57388948  1
  O  O207  1  0.75489830  0.64338119  0.57640218  1
  O  O208  1  0.06580351  0.48568649  0.57519274  1
  O  O209  1  0.56462313  0.49157165  0.57775409  1
  O  O210  1  0.14961851  0.83828798  0.25482783  1
  O  O211  1  0.65952579  0.84735084  0.25867639  1
  O  O212  1  0.25076577  0.68875296  0.26087708  1
  O  O213  1  0.76786150  0.69533309  0.25634154  1
  O  O214  1  0.07779190  0.46093551  0.25518344  1
  O  O215  1  0.58196202  0.50620007  0.25529360  1
  O  O216  1  0.15966626  0.47218366  0.75876211  1
  O  O217  1  0.64801196  0.48139208  0.75396549  1
  O  O218  1  0.08512125  0.66281745  0.75480739  1
  O  O219  1  0.57590121  0.69430574  0.75530311  1
  O  O220  1  0.26503982  0.83980924  0.75633925  1
  O  O221  1  0.75207508  0.82273819  0.76133983  1
