# generated using pymatgen
data_Na2TeO4
_symmetry_space_group_name_H-M   'P 1'
_cell_length_a   5.20042247
_cell_length_b   5.70646932
_cell_length_c   12.12743457
_cell_angle_alpha   90.00000000
_cell_angle_beta   90.00000000
_cell_angle_gamma   90.00000000
_symmetry_Int_Tables_number   1
_chemical_formula_structural   Na2TeO4
_chemical_formula_sum   'Na8 Te4 O16'
_cell_volume   359.89437015
_cell_formula_units_Z   4
loop_
 _symmetry_equiv_pos_site_id
 _symmetry_equiv_pos_as_xyz
  1  'x, y, z'
loop_
 _atom_site_type_symbol
 _atom_site_label
 _atom_site_symmetry_multiplicity
 _atom_site_fract_x
 _atom_site_fract_y
 _atom_site_fract_z
 _atom_site_occupancy
  Na  Na0  1  0.75000000  0.00000000  0.64195247  1
  Na  Na1  1  0.25000000  0.50000000  0.85804753  1
  Na  Na2  1  0.25000000  0.00000000  0.35804753  1
  Na  Na3  1  0.75000000  0.50000000  0.14195247  1
  Na  Na4  1  0.75000000  0.00000000  0.22480962  1
  Na  Na5  1  0.25000000  0.50000000  0.27519038  1
  Na  Na6  1  0.25000000  0.00000000  0.77519038  1
  Na  Na7  1  0.75000000  0.50000000  0.72480962  1
  Te  Te8  1  0.75000000  0.00000000  0.92827164  1
  Te  Te9  1  0.25000000  0.50000000  0.57172836  1
  Te  Te10  1  0.25000000  0.00000000  0.07172836  1
  Te  Te11  1  0.75000000  0.50000000  0.42827164  1
  O  O12  1  0.11115481  0.29695648  0.67443133  1
  O  O13  1  0.61115481  0.20304352  0.82556867  1
  O  O14  1  0.88884519  0.79695648  0.82556867  1
  O  O15  1  0.38884519  0.70304352  0.67443133  1
  O  O16  1  0.88884519  0.70304352  0.32556867  1
  O  O17  1  0.38884519  0.79695648  0.17443133  1
  O  O18  1  0.11115481  0.20304352  0.17443133  1
  O  O19  1  0.61115481  0.29695648  0.32556867  1
  O  O20  1  0.07183300  0.32027006  0.44945666  1
  O  O21  1  0.57183300  0.17972994  0.05054334  1
  O  O22  1  0.92816700  0.82027006  0.05054334  1
  O  O23  1  0.42816700  0.67972994  0.44945666  1
  O  O24  1  0.57183300  0.32027006  0.55054334  1
  O  O25  1  0.07183300  0.17972994  0.94945666  1
  O  O26  1  0.42816700  0.82027006  0.94945666  1
  O  O27  1  0.92816700  0.67972994  0.55054334  1
