# generated using pymatgen
data_Na5Y3Ge(PO4)6
_symmetry_space_group_name_H-M   'P 1'
_cell_length_a   9.14195073
_cell_length_b   9.14096262
_cell_length_c   23.00179862
_cell_angle_alpha   89.98193077
_cell_angle_beta   89.96598678
_cell_angle_gamma   120.08161918
_symmetry_Int_Tables_number   1
_chemical_formula_structural   Na5Y3Ge(PO4)6
_chemical_formula_sum   'Na15 Y9 Ge3 P18 O72'
_cell_volume   1663.27967206
_cell_formula_units_Z   3
loop_
 _symmetry_equiv_pos_site_id
 _symmetry_equiv_pos_as_xyz
  1  'x, y, z'
loop_
 _atom_site_type_symbol
 _atom_site_label
 _atom_site_symmetry_multiplicity
 _atom_site_fract_x
 _atom_site_fract_y
 _atom_site_fract_z
 _atom_site_occupancy
  Na  Na0  1  0.64082171  0.00133035  0.25624672  1
  Na  Na1  1  0.36157847  0.36100320  0.25745990  1
  Na  Na2  1  0.99752434  0.63772566  0.25630906  1
  Na  Na3  1  0.64618813  0.64729288  0.75382860  1
  Na  Na4  1  -0.00011110  0.35914544  0.75433808  1
  Na  Na5  1  0.03507256  0.70045646  0.57853693  1
  Na  Na6  1  0.66207068  0.96400494  0.57842988  1
  Na  Na7  1  0.66268210  0.69888470  0.07807645  1
  Na  Na8  1  0.03565883  0.33372101  0.07792682  1
  Na  Na9  1  0.01333671  0.01395003  0.49635063  1
  Na  Na10  1  0.01461766  0.99940909  0.99448448  1
  Na  Na11  1  0.65516054  0.32147044  0.83911645  1
  Na  Na12  1  0.66693836  0.33338486  0.34559045  1
  Na  Na13  1  0.33355489  0.68073644  0.16758299  1
  Na  Na14  1  0.33423796  0.66800082  0.66973725  1
  Y  Y15  1  0.99731713  0.99816197  0.35737060  1
  Y  Y16  1  0.00129852  0.99950169  0.85511284  1
  Y  Y17  1  0.01238236  0.00893711  0.64990118  1
  Y  Y18  1  0.00928138  0.99927981  0.14443495  1
  Y  Y19  1  0.65431147  0.32562664  0.68653400  1
  Y  Y20  1  0.66180999  0.32841247  0.18172393  1
  Y  Y21  1  0.33269335  0.67381329  0.01347771  1
  Y  Y22  1  0.33202227  0.65662955  0.51436649  1
  Y  Y23  1  0.33324394  0.66472003  0.32901379  1
  Ge  Ge24  1  0.66406028  0.33135596  0.97714445  1
  Ge  Ge25  1  0.66344694  0.33241786  0.48266348  1
  Ge  Ge26  1  0.33367558  0.67481226  0.82242886  1
  P  P27  1  0.29723245  0.99377502  0.25152092  1
  P  P28  1  0.69778957  0.70287341  0.24762152  1
  P  P29  1  0.00522318  0.30202573  0.24788102  1
  P  P30  1  0.29919175  0.31906175  0.75633859  1
  P  P31  1  0.01716701  0.70248406  0.75242980  1
  P  P32  1  0.68644426  0.98428125  0.75319064  1
  P  P33  1  0.94584371  0.32898325  0.58123050  1
  P  P34  1  0.37740781  0.04693475  0.57709684  1
  P  P35  1  0.67158277  0.62331269  0.58126683  1
  P  P36  1  0.94697313  0.61671016  0.07738112  1
  P  P37  1  0.67094345  0.04754040  0.07791016  1
  P  P38  1  0.37856516  0.33066175  0.07616119  1
  P  P39  1  0.62137148  0.64689078  0.91745560  1
  P  P40  1  0.02492328  0.37802785  0.91778620  1
  P  P41  1  0.35350734  0.97537081  0.91618138  1
  P  P42  1  0.63911643  0.99123239  0.42186216  1
  P  P43  1  0.35228627  0.35849918  0.41864403  1
  P  P44  1  0.00858227  0.64823419  0.42209895  1
  O  O45  1  0.20995856  0.02055870  0.30326123  1
  O  O46  1  0.81626891  0.79454600  0.29827180  1
  O  O47  1  0.97970690  0.18389510  0.29852966  1
  O  O48  1  0.21346672  0.20449941  0.80736863  1
  O  O49  1  0.97904111  0.79028198  0.80116510  1
  O  O50  1  0.81020242  0.01517769  0.80214040  1
  O  O51  1  0.75446791  0.94717939  0.69574051  1
  O  O52  1  0.19128230  0.24402953  0.70038218  1
  O  O53  1  0.04595043  0.79974505  0.69409849  1
  O  O54  1  0.77376036  0.80102149  0.18980360  1
  O  O55  1  0.02861360  0.22671058  0.19014907  1
  O  O56  1  0.19312516  0.96872765  0.19546009  1
  O  O57  1  0.87413229  0.35069244  0.63910103  1
  O  O58  1  0.47870609  0.12296329  0.63281014  1
  O  O59  1  0.65276445  0.53322203  0.63948880  1
  O  O60  1  0.87662846  0.52778060  0.13613548  1
  O  O61  1  0.65382901  0.11690660  0.13683959  1
  O  O62  1  0.46871528  0.34966087  0.13459108  1
  O  O63  1  0.47852151  0.31357757  0.02416632  1
  O  O64  1  0.82470485  0.51694596  0.02596575  1
  O  O65  1  0.68942221  0.16844227  0.02655569  1
  O  O66  1  0.47084718  0.16035598  0.52383955  1
  O  O67  1  0.69095881  0.52296741  0.52954781  1
  O  O68  1  0.82415344  0.30414858  0.52948126  1
  O  O69  1  0.54725036  0.67065225  0.97374061  1
  O  O70  1  0.12306915  0.45086552  0.97412166  1
  O  O71  1  0.32693996  0.87509565  0.97157830  1
  O  O72  1  0.54939528  0.87816192  0.47443210  1
  O  O73  1  0.32751320  0.45462819  0.46820615  1
  O  O74  1  0.12172709  0.67255954  0.47461545  1
  O  O75  1  0.08778767  0.62412530  0.36498892  1
  O  O76  1  0.53700159  0.91046442  0.36470679  1
  O  O77  1  0.37639841  0.45574685  0.36010269  1
  O  O78  1  0.12109680  0.49762581  0.86332481  1
  O  O79  1  0.37838096  0.87999803  0.86218109  1
  O  O80  1  0.50443259  0.62728294  0.86279563  1
  O  O81  1  0.98391526  0.80166680  0.41741731  1
  O  O82  1  0.81768724  0.01611977  0.41763985  1
  O  O83  1  0.19852711  0.18021319  0.41622928  1
  O  O84  1  0.00103350  0.20174704  0.90992036  1
  O  O85  1  0.20145860  0.99926437  0.90880693  1
  O  O86  1  0.79873518  0.79947557  0.91035375  1
  O  O87  1  0.95659479  0.16438128  0.58326664  1
  O  O88  1  0.19709000  0.02339453  0.58059190  1
  O  O89  1  0.83875265  0.79986067  0.58239206  1
  O  O90  1  0.95785155  0.79153896  0.07745559  1
  O  O91  1  0.83722162  0.03813317  0.07758511  1
  O  O92  1  0.19736003  0.17567925  0.07638082  1
  O  O93  1  0.66841800  0.14237082  0.74870408  1
  O  O94  1  0.48204856  0.35436139  0.75032350  1
  O  O95  1  0.86220214  0.51977429  0.74799088  1
  O  O96  1  0.67468329  0.52251309  0.24598602  1
  O  O97  1  0.84711378  0.32370849  0.24624969  1
  O  O98  1  0.47666870  0.15204239  0.24786274  1
  O  O99  1  0.63219746  0.47959922  0.92119612  1
  O  O100  1  0.84629906  0.36633479  0.92204098  1
  O  O101  1  0.52058968  0.15314031  0.92127285  1
  O  O102  1  0.64905502  0.16609169  0.42783385  1
  O  O103  1  0.51852146  0.35304001  0.42740452  1
  O  O104  1  0.83398276  0.48250980  0.42910303  1
  O  O105  1  0.36242631  0.49225429  0.07376104  1
  O  O106  1  0.12134247  0.62960711  0.07394228  1
  O  O107  1  0.52095757  0.86458094  0.07518737  1
  O  O108  1  0.35713000  0.86755814  0.57383718  1
  O  O109  1  0.52218490  0.65661128  0.57638185  1
  O  O110  1  0.12085909  0.48951530  0.57564289  1
  O  O111  1  0.31508017  0.83360283  0.25695641  1
  O  O112  1  0.52142851  0.68805208  0.25482345  1
  O  O113  1  0.16557876  0.47981728  0.25489591  1
  O  O114  1  0.30865954  0.49710007  0.76404196  1
  O  O115  1  0.17873580  0.68440735  0.76388253  1
  O  O116  1  0.51033003  0.81623746  0.76403937  1
