# generated using pymatgen
data_Na14Ca5Zr3(PO4)12
_symmetry_space_group_name_H-M   'P 1'
_cell_length_a   18.67580380
_cell_length_b   9.34694029
_cell_length_c   22.74036201
_cell_angle_alpha   90.05708691
_cell_angle_beta   89.98335507
_cell_angle_gamma   119.85851903
_symmetry_Int_Tables_number   1
_chemical_formula_structural   Na14Ca5Zr3(PO4)12
_chemical_formula_sum   'Na42 Ca15 Zr9 P36 O144'
_cell_volume   3442.65846752
_cell_formula_units_Z   3
loop_
 _symmetry_equiv_pos_site_id
 _symmetry_equiv_pos_as_xyz
  1  'x, y, z'
loop_
 _atom_site_type_symbol
 _atom_site_label
 _atom_site_symmetry_multiplicity
 _atom_site_fract_x
 _atom_site_fract_y
 _atom_site_fract_z
 _atom_site_occupancy
  Na  Na0  1  0.18553318  0.35674760  0.24372316  1
  Na  Na1  1  0.68621603  0.35850112  0.24438427  1
  Na  Na2  1  0.99313892  0.63602990  0.24519277  1
  Na  Na3  1  0.49355011  0.63569325  0.24390972  1
  Na  Na4  1  0.32034505  0.62692621  0.74435500  1
  Na  Na5  1  0.82123362  0.62852522  0.74556452  1
  Na  Na6  1  0.18109853  0.01377283  0.74497614  1
  Na  Na7  1  0.68096229  0.01296045  0.74382364  1
  Na  Na8  1  0.16020967  0.34413820  0.57758174  1
  Na  Na9  1  0.66069614  0.34508797  0.57740577  1
  Na  Na10  1  0.01163590  0.68007381  0.57816531  1
  Na  Na11  1  0.51171854  0.67948282  0.57804802  1
  Na  Na12  1  0.32687953  0.97309280  0.57720716  1
  Na  Na13  1  0.82732734  0.97288684  0.57816360  1
  Na  Na14  1  0.15618871  0.97261439  0.07718677  1
  Na  Na15  1  0.65752014  0.96815550  0.07946500  1
  Na  Na16  1  0.32771580  0.67704151  0.07795276  1
  Na  Na17  1  0.01555675  0.34856343  0.07975272  1
  Na  Na18  1  0.51427441  0.34876800  0.07580445  1
  Na  Na19  1  0.48202429  0.67096596  0.91670101  1
  Na  Na20  1  0.99197354  0.68088615  0.91104000  1
  Na  Na21  1  0.35293100  0.03690260  0.91620598  1
  Na  Na22  1  0.16481679  0.28958019  0.91612376  1
  Na  Na23  1  0.66163468  0.29747041  0.91129332  1
  Na  Na24  1  0.48211666  0.29470217  0.41661226  1
  Na  Na25  1  0.98203212  0.29449930  0.41631640  1
  Na  Na26  1  0.16423980  0.03726774  0.41594323  1
  Na  Na27  1  0.66449406  0.03760162  0.41600547  1
  Na  Na28  1  0.35339280  0.66724804  0.41578574  1
  Na  Na29  1  0.85355094  0.66754595  0.41535528  1
  Na  Na30  1  0.99970777  0.00057626  0.49389798  1
  Na  Na31  1  0.49986256  0.00081383  0.49377822  1
  Na  Na32  1  0.98156912  0.98429804  0.99394248  1
  Na  Na33  1  0.49952010  0.99987258  0.99512244  1
  Na  Na34  1  0.34122838  0.33280480  0.83201931  1
  Na  Na35  1  0.84404769  0.31902046  0.82783140  1
  Na  Na36  1  0.33331506  0.31682472  0.33212557  1
  Na  Na37  1  0.83370663  0.31669248  0.33226700  1
  Na  Na38  1  0.17411136  0.67987074  0.16375789  1
  Na  Na39  1  0.68234409  0.68253747  0.16026043  1
  Na  Na40  1  0.15944579  0.65361532  0.66264803  1
  Na  Na41  1  0.65991833  0.65341130  0.66318415  1
  Ca  Ca42  1  0.99740294  0.00090660  0.34608778  1
  Ca  Ca43  1  0.49768769  0.00106160  0.34648661  1
  Ca  Ca44  1  0.99560506  0.00403941  0.85002223  1
  Ca  Ca45  1  0.49969537  0.00457409  0.84701870  1
  Ca  Ca46  1  0.33728291  0.33216172  0.68277045  1
  Ca  Ca47  1  0.83744451  0.33357537  0.68192046  1
  Ca  Ca48  1  0.33353808  0.32443611  0.18232262  1
  Ca  Ca49  1  0.83368266  0.33037833  0.18335096  1
  Ca  Ca50  1  0.33305551  0.33216059  0.98506179  1
  Ca  Ca51  1  0.33389717  0.33355986  0.48506684  1
  Ca  Ca52  1  0.83387454  0.33348230  0.48496570  1
  Ca  Ca53  1  0.16746449  0.66755988  0.01522443  1
  Ca  Ca54  1  0.67083779  0.66681595  0.01614018  1
  Ca  Ca55  1  0.16726716  0.66796649  0.51472092  1
  Ca  Ca56  1  0.66742652  0.66826008  0.51476021  1
  Zr  Zr57  1  0.99927241  0.00471553  0.65393115  1
  Zr  Zr58  1  0.50018003  0.00506861  0.65460065  1
  Zr  Zr59  1  0.99302227  0.99380250  0.15038558  1
  Zr  Zr60  1  0.49983093  0.00074230  0.15275656  1
  Zr  Zr61  1  0.83312533  0.33209764  0.98284642  1
  Zr  Zr62  1  0.16913561  0.67147409  0.31451919  1
  Zr  Zr63  1  0.66942497  0.67234730  0.31508114  1
  Zr  Zr64  1  0.16230752  0.66039293  0.81585532  1
  Zr  Zr65  1  0.66841383  0.66696370  0.81696114  1
  P  P66  1  0.14592451  0.99120512  0.25060214  1
  P  P67  1  0.64909070  0.99404096  0.25326955  1
  P  P68  1  0.34735901  0.69880844  0.25158389  1
  P  P69  1  0.84676333  0.69924100  0.25321179  1
  P  P70  1  0.00487174  0.30900869  0.25202831  1
  P  P71  1  0.50590618  0.31155660  0.25221591  1
  P  P72  1  0.14993727  0.30443245  0.75341073  1
  P  P73  1  0.65197319  0.30948573  0.75288028  1
  P  P74  1  0.00307392  0.70428709  0.75328577  1
  P  P75  1  0.50442761  0.70341974  0.75401462  1
  P  P76  1  0.34346956  0.98849022  0.75379784  1
  P  P77  1  0.84458986  0.99061885  0.75061241  1
  P  P78  1  0.48685560  0.32652978  0.58182597  1
  P  P79  1  0.98707009  0.32696298  0.58164302  1
  P  P80  1  0.17550048  0.02686556  0.58618007  1
  P  P81  1  0.67553310  0.02684170  0.58618325  1
  P  P82  1  0.33728784  0.64762857  0.58677358  1
  P  P83  1  0.83729756  0.64752040  0.58640352  1
  P  P84  1  0.48627517  0.64564540  0.08594339  1
  P  P85  1  0.98123484  0.64039513  0.08459413  1
  P  P86  1  0.33746844  0.02733845  0.08169639  1
  P  P87  1  0.83650172  0.04049348  0.08396912  1
  P  P88  1  0.17617550  0.32391573  0.08663270  1
  P  P89  1  0.67978750  0.32306302  0.08611062  1
  P  P90  1  0.31490234  0.66225850  0.91580243  1
  P  P91  1  0.81532856  0.65484138  0.91580062  1
  P  P92  1  0.01489067  0.37066922  0.92080298  1
  P  P93  1  0.51744277  0.37302187  0.91849402  1
  P  P94  1  0.16853285  0.96900061  0.91550492  1
  P  P95  1  0.67000090  0.96921233  0.91873812  1
  P  P96  1  0.31546559  0.96699318  0.41795389  1
  P  P97  1  0.81579518  0.96762546  0.41821410  1
  P  P98  1  0.16831736  0.36957612  0.41545994  1
  P  P99  1  0.66829773  0.36955010  0.41561637  1
  P  P100  1  0.01665921  0.66451869  0.41539033  1
  P  P101  1  0.51643952  0.66420808  0.41552309  1
  O  O102  1  0.10861810  0.00871579  0.30783881  1
  O  O103  1  0.61003588  0.00947384  0.30998487  1
  O  O104  1  0.39490192  0.77096394  0.30832923  1
  O  O105  1  0.89297795  0.76856214  0.31067411  1
  O  O106  1  0.49700318  0.22036030  0.30939289  1
  O  O107  1  0.99698543  0.22097348  0.30977437  1
  O  O108  1  0.11284964  0.20649099  0.80923458  1
  O  O109  1  0.61509767  0.21225789  0.80928884  1
  O  O110  1  0.49491770  0.77890877  0.81089275  1
  O  O111  1  0.99627426  0.78346731  0.80987375  1
  O  O112  1  0.38892241  0.00594455  0.81111889  1
  O  O113  1  0.89471150  0.00806902  0.80479264  1
  O  O114  1  0.39525264  0.97473415  0.70082945  1
  O  O115  1  0.89110695  0.97524275  0.69458382  1
  O  O116  1  0.09365182  0.20799231  0.69897193  1
  O  O117  1  0.59451130  0.21074815  0.69925013  1
  O  O118  1  0.01280125  0.82351471  0.70023774  1
  O  O119  1  0.51563202  0.82536393  0.70132686  1
  O  O120  1  0.39773939  0.81413746  0.19815287  1
  O  O121  1  0.89782412  0.81768479  0.20092815  1
  O  O122  1  0.00979636  0.20332778  0.19898137  1
  O  O123  1  0.51365814  0.20915242  0.19880503  1
  O  O124  1  0.08482024  0.96847839  0.19784338  1
  O  O125  1  0.58896532  0.97424986  0.20021697  1
  O  O126  1  0.44094617  0.35590142  0.63119562  1
  O  O127  1  0.94139958  0.35587266  0.63119677  1
  O  O128  1  0.22910528  0.11062577  0.64019865  1
  O  O129  1  0.72901487  0.11078685  0.64014592  1
  O  O130  1  0.32510723  0.53973279  0.64064882  1
  O  O131  1  0.82526385  0.54057993  0.64046782  1
  O  O132  1  0.44381599  0.53925559  0.13983756  1
  O  O133  1  0.94464282  0.54175152  0.14043556  1
  O  O134  1  0.32295544  0.11845608  0.13120622  1
  O  O135  1  0.82576923  0.11942755  0.13864040  1
  O  O136  1  0.23039479  0.34998197  0.14049389  1
  O  O137  1  0.72540179  0.34008276  0.14316331  1
  O  O138  1  0.21278715  0.29282211  0.03031386  1
  O  O139  1  0.72961462  0.30528260  0.03209472  1
  O  O140  1  0.43389160  0.57330964  0.02959902  1
  O  O141  1  0.92541619  0.54198867  0.02976514  1
  O  O142  1  0.35410217  0.12187380  0.02299724  1
  O  O143  1  0.84891993  0.16063935  0.03020644  1
  O  O144  1  0.21273480  0.13136302  0.53003582  1
  O  O145  1  0.71238450  0.13123276  0.52997980  1
  O  O146  1  0.35390886  0.57565172  0.53046771  1
  O  O147  1  0.85326310  0.57413192  0.53017450  1
  O  O148  1  0.43864303  0.29051658  0.52329750  1
  O  O149  1  0.93868685  0.29134077  0.52322374  1
  O  O150  1  0.27648501  0.67472591  0.97372507  1
  O  O151  1  0.77249458  0.67088411  0.96936005  1
  O  O152  1  0.05992442  0.44585123  0.97844572  1
  O  O153  1  0.55987966  0.44604818  0.97704808  1
  O  O154  1  0.16146677  0.87538664  0.97259633  1
  O  O155  1  0.65752957  0.87029027  0.97451183  1
  O  O156  1  0.27846125  0.88134651  0.47651481  1
  O  O157  1  0.77861019  0.88166072  0.47668969  1
  O  O158  1  0.16302126  0.44918071  0.47298150  1
  O  O159  1  0.66288612  0.44911813  0.47310144  1
  O  O160  1  0.06262001  0.67691958  0.47264037  1
  O  O161  1  0.56238180  0.67688419  0.47282438  1
  O  O162  1  0.07058709  0.66172968  0.36125642  1
  O  O163  1  0.57034839  0.66155350  0.36155784  1
  O  O164  1  0.25797464  0.85253869  0.36616990  1
  O  O165  1  0.75832939  0.85327679  0.36649845  1
  O  O166  1  0.16977873  0.48102179  0.36183833  1
  O  O167  1  0.66968657  0.48047948  0.36197801  1
  O  O168  1  0.06537997  0.49139220  0.86824671  1
  O  O169  1  0.57605616  0.49145606  0.86767358  1
  O  O170  1  0.16955039  0.86006969  0.86159785  1
  O  O171  1  0.67914227  0.87469386  0.86370980  1
  O  O172  1  0.25710590  0.65705898  0.86308219  1
  O  O173  1  0.76277881  0.64016477  0.85869583  1
  O  O174  1  0.00568350  0.81760785  0.41262500  1
  O  O175  1  0.50496885  0.81681118  0.41279539  1
  O  O176  1  0.40261941  0.98831401  0.41359650  1
  O  O177  1  0.90297159  0.98918488  0.41384363  1
  O  O178  1  0.09181437  0.19503426  0.41246953  1
  O  O179  1  0.59157650  0.19502915  0.41270315  1
  O  O180  1  0.00660090  0.20197118  0.91375924  1
  O  O181  1  0.50755066  0.19929577  0.91298242  1
  O  O182  1  0.09253708  0.99192774  0.91225742  1
  O  O183  1  0.59498192  0.99580870  0.91239009  1
  O  O184  1  0.40210922  0.81587798  0.91201945  1
  O  O185  1  0.90497158  0.79373960  0.91234972  1
  O  O186  1  0.49347801  0.16595628  0.59360065  1
  O  O187  1  0.99442707  0.16707662  0.59269700  1
  O  O188  1  0.08740253  0.01175540  0.59299182  1
  O  O189  1  0.58739479  0.01188920  0.59328712  1
  O  O190  1  0.41706242  0.82403805  0.59466078  1
  O  O191  1  0.91756297  0.82334247  0.59343553  1
  O  O192  1  0.49337539  0.82147130  0.09310745  1
  O  O193  1  0.98754021  0.81486059  0.08672358  1
  O  O194  1  0.41898548  0.01652902  0.09254192  1
  O  O195  1  0.91969439  0.03598951  0.08654031  1
  O  O196  1  0.08848348  0.16273950  0.09440214  1
  O  O197  1  0.59461695  0.15316345  0.08652128  1
  O  O198  1  0.32470157  0.12859636  0.74674444  1
  O  O199  1  0.82483243  0.13006326  0.74595210  1
  O  O200  1  0.23763241  0.33100802  0.74601239  1
  O  O201  1  0.73882917  0.33289212  0.74563016  1
  O  O202  1  0.42849979  0.53460539  0.74543024  1
  O  O203  1  0.92678869  0.53472229  0.74647084  1
  O  O204  1  0.33488628  0.52466370  0.24428523  1
  O  O205  1  0.83508527  0.52611424  0.24529414  1
  O  O206  1  0.43531107  0.34786024  0.24548258  1
  O  O207  1  0.93558781  0.34965393  0.24599892  1
  O  O208  1  0.23054355  0.14361890  0.24307063  1
  O  O209  1  0.73346056  0.14669451  0.24634653  1
  O  O210  1  0.31824849  0.50099968  0.91127542  1
  O  O211  1  0.81487790  0.48364373  0.91868102  1
  O  O212  1  0.43408713  0.36788942  0.91198789  1
  O  O213  1  0.92980868  0.36917627  0.92053128  1
  O  O214  1  0.25010701  0.13492174  0.91149956  1
  O  O215  1  0.75001579  0.14500563  0.92177736  1
  O  O216  1  0.31703025  0.13295306  0.41223296  1
  O  O217  1  0.81721654  0.13345605  0.41244190  1
  O  O218  1  0.24931330  0.36310917  0.41128310  1
  O  O219  1  0.74915108  0.36266234  0.41145165  1
  O  O220  1  0.43272511  0.50201213  0.41154869  1
  O  O221  1  0.93295540  0.50250809  0.41139161  1
  O  O222  1  0.16278806  0.47451415  0.08299843  1
  O  O223  1  0.66008640  0.46234737  0.07940041  1
  O  O224  1  0.07003346  0.66979078  0.07845425  1
  O  O225  1  0.57460775  0.67194993  0.08278512  1
  O  O226  1  0.26403366  0.84807978  0.08123323  1
  O  O227  1  0.76153333  0.86990758  0.07661626  1
  O  O228  1  0.16160169  0.84947287  0.58280186  1
  O  O229  1  0.66135745  0.84931080  0.58285202  1
  O  O230  1  0.26203978  0.67404716  0.58286166  1
  O  O231  1  0.76211695  0.67419177  0.58271001  1
  O  O232  1  0.07630780  0.47460557  0.58053319  1
  O  O233  1  0.57607719  0.47380954  0.58060769  1
  O  O234  1  0.14943956  0.82551758  0.25085548  1
  O  O235  1  0.65139394  0.82774260  0.25239137  1
  O  O236  1  0.26013709  0.68593511  0.25180799  1
  O  O237  1  0.75964625  0.68577417  0.25248898  1
  O  O238  1  0.09065093  0.47770717  0.25017884  1
  O  O239  1  0.59055561  0.48058253  0.25110893  1
  O  O240  1  0.15603931  0.47854210  0.75468044  1
  O  O241  1  0.65867501  0.48372269  0.75387872  1
  O  O242  1  0.08590185  0.69736549  0.75241022  1
  O  O243  1  0.58794646  0.69948993  0.75501384  1
  O  O244  1  0.25889796  0.81842570  0.75245512  1
  O  O245  1  0.75986709  0.82068588  0.75199383  1
