# generated using pymatgen
data_Na14Sc6Nb2Si9(SO16)3
_symmetry_space_group_name_H-M   'P 1'
_cell_length_a   18.42515165
_cell_length_b   9.21371689
_cell_length_c   22.46620265
_cell_angle_alpha   90.02698340
_cell_angle_beta   89.79291146
_cell_angle_gamma   119.95579935
_symmetry_Int_Tables_number   1
_chemical_formula_structural   Na14Sc6Nb2Si9(SO16)3
_chemical_formula_sum   'Na42 Sc18 Nb6 Si27 S9 O144'
_cell_volume   3304.42688878
_cell_formula_units_Z   3
loop_
 _symmetry_equiv_pos_site_id
 _symmetry_equiv_pos_as_xyz
  1  'x, y, z'
loop_
 _atom_site_type_symbol
 _atom_site_label
 _atom_site_symmetry_multiplicity
 _atom_site_fract_x
 _atom_site_fract_y
 _atom_site_fract_z
 _atom_site_occupancy
  Na  Na0  1  0.81282056  0.00478794  0.24311413  1
  Na  Na1  1  0.69023960  0.37257346  0.24234753  1
  Na  Na2  1  0.49983555  0.62123134  0.24497547  1
  Na  Na3  1  0.31134288  0.61930365  0.74249883  1
  Na  Na4  1  0.99395910  0.36535232  0.74699417  1
  Na  Na5  1  0.18780489  0.00758194  0.74176833  1
  Na  Na6  1  0.15354160  0.33835220  0.58415331  1
  Na  Na7  1  0.66022826  0.34676517  0.58906480  1
  Na  Na8  1  0.01640099  0.69260504  0.58487450  1
  Na  Na9  1  0.51235189  0.67936014  0.58383267  1
  Na  Na10  1  0.32452356  0.97425897  0.58721263  1
  Na  Na11  1  0.83040037  0.97240353  0.59020729  1
  Na  Na12  1  0.15725163  0.97122684  0.08431861  1
  Na  Na13  1  0.65814755  0.96862595  0.07825605  1
  Na  Na14  1  0.32962340  0.68675804  0.08448643  1
  Na  Na15  1  0.82722687  0.68317224  0.08259432  1
  Na  Na16  1  0.01209524  0.34342284  0.07972486  1
  Na  Na17  1  0.51636956  0.34608686  0.07728538  1
  Na  Na18  1  0.48832875  0.67053989  0.91590270  1
  Na  Na19  1  0.98086222  0.65383176  0.90907597  1
  Na  Na20  1  0.35800846  0.05218466  0.91194340  1
  Na  Na21  1  0.85462775  0.05228637  0.91277755  1
  Na  Na22  1  0.16181482  0.29879726  0.91659488  1
  Na  Na23  1  0.66503709  0.29150173  0.92371892  1
  Na  Na24  1  0.48164216  0.31017595  0.41561839  1
  Na  Na25  1  0.98680118  0.30204610  0.42207948  1
  Na  Na26  1  0.16261967  0.03762524  0.42891317  1
  Na  Na27  1  0.66239323  0.01983261  0.42333777  1
  Na  Na28  1  0.35296532  0.65454703  0.42401417  1
  Na  Na29  1  0.85719541  0.66505529  0.41624525  1
  Na  Na30  1  0.00556124  0.00185848  0.50335540  1
  Na  Na31  1  0.50280116  0.99051703  0.50262947  1
  Na  Na32  1  0.00168469  0.01314808  0.99781010  1
  Na  Na33  1  0.50516910  0.00898695  0.99478342  1
  Na  Na34  1  0.34669797  0.33744443  0.82232779  1
  Na  Na35  1  0.83361751  0.32316171  0.82706552  1
  Na  Na36  1  0.33364227  0.33076087  0.33335051  1
  Na  Na37  1  0.84724427  0.35681465  0.32373773  1
  Na  Na38  1  0.16479741  0.66489623  0.16075081  1
  Na  Na39  1  0.66908161  0.66698517  0.16369294  1
  Na  Na40  1  0.16631257  0.66823787  0.66518169  1
  Na  Na41  1  0.67052217  0.67125397  0.66428877  1
  Sc  Sc42  1  0.00035911  0.99818629  0.35094111  1
  Sc  Sc43  1  0.50307132  0.00282493  0.34890777  1
  Sc  Sc44  1  0.99853834  0.00560126  0.84635594  1
  Sc  Sc45  1  0.50063006  0.00384280  0.84985467  1
  Sc  Sc46  1  0.33610109  0.33361689  0.68447059  1
  Sc  Sc47  1  0.83443488  0.33605579  0.68354080  1
  Sc  Sc48  1  0.33327260  0.32210844  0.18169362  1
  Sc  Sc49  1  0.83645312  0.33765179  0.18564769  1
  Sc  Sc50  1  0.33907671  0.33577254  0.98727160  1
  Sc  Sc51  1  0.83650075  0.32918007  0.98378746  1
  Sc  Sc52  1  0.33553698  0.34178164  0.48587012  1
  Sc  Sc53  1  0.83801716  0.34008028  0.48807552  1
  Sc  Sc54  1  0.16219398  0.65178656  0.02150814  1
  Sc  Sc55  1  0.66111908  0.66488457  0.02067004  1
  Sc  Sc56  1  0.16080099  0.65767303  0.52247597  1
  Sc  Sc57  1  0.66244665  0.67247916  0.52246418  1
  Sc  Sc58  1  0.65946385  0.66194648  0.30614138  1
  Sc  Sc59  1  0.15863503  0.65521709  0.80617087  1
  Nb  Nb60  1  0.99726914  0.99512415  0.64988523  1
  Nb  Nb61  1  0.49623964  0.99113049  0.64666723  1
  Nb  Nb62  1  0.99619109  0.00221467  0.14600409  1
  Nb  Nb63  1  0.50546319  0.01409505  0.14501035  1
  Nb  Nb64  1  0.15761807  0.64576176  0.31357158  1
  Nb  Nb65  1  0.66111626  0.68024770  0.81066248  1
  Si  Si66  1  0.64724192  0.00117878  0.25109918  1
  Si  Si67  1  0.85366673  0.70623866  0.25402074  1
  Si  Si68  1  0.00036653  0.29216144  0.25249213  1
  Si  Si69  1  0.49414014  0.28931597  0.25441323  1
  Si  Si70  1  0.14730503  0.29218337  0.75150991  1
  Si  Si71  1  0.99570462  0.70165382  0.75443705  1
  Si  Si72  1  0.49832268  0.70731487  0.75245836  1
  Si  Si73  1  0.35281910  0.00095341  0.75412933  1
  Si  Si74  1  0.84938606  0.99763422  0.75195721  1
  Si  Si75  1  0.47972073  0.32983346  0.58038261  1
  Si  Si76  1  0.98056767  0.32980905  0.58439673  1
  Si  Si77  1  0.18525068  0.04093638  0.58319481  1
  Si  Si78  1  0.68751352  0.04459657  0.58212663  1
  Si  Si79  1  0.33222841  0.62770203  0.58418161  1
  Si  Si80  1  0.83377628  0.62951357  0.58124153  1
  Si  Si81  1  0.47973539  0.62936139  0.08620887  1
  Si  Si82  1  0.97945406  0.62825292  0.08152725  1
  Si  Si83  1  0.33353504  0.03600523  0.08155586  1
  Si  Si84  1  0.83199270  0.03789762  0.08477761  1
  Si  Si85  1  0.18862104  0.33071324  0.08373129  1
  Si  Si86  1  0.68952309  0.33721759  0.08321880  1
  Si  Si87  1  0.01854742  0.36820929  0.91659887  1
  Si  Si88  1  0.51946145  0.37357128  0.91756865  1
  Si  Si89  1  0.66692319  0.96721947  0.91907589  1
  Si  Si90  1  0.16708816  0.36695530  0.41883105  1
  Si  Si91  1  0.01686569  0.66470141  0.41911245  1
  Si  Si92  1  0.51772345  0.66735982  0.41531878  1
  S  S93  1  0.14915749  0.99673387  0.25104026  1
  S  S94  1  0.34988766  0.70735775  0.25099538  1
  S  S95  1  0.64707827  0.29919865  0.75044439  1
  S  S96  1  0.31272233  0.66460995  0.91661603  1
  S  S97  1  0.81107148  0.66639826  0.91623987  1
  S  S98  1  0.16830340  0.96202101  0.91723855  1
  S  S99  1  0.31050480  0.95303078  0.41428296  1
  S  S100  1  0.81218834  0.95998471  0.41538553  1
  S  S101  1  0.66737852  0.37281204  0.41563953  1
  O  O102  1  0.10604058  0.00761933  0.30551276  1
  O  O103  1  0.60035162  0.01986427  0.31000588  1
  O  O104  1  0.40107261  0.79268072  0.30451468  1
  O  O105  1  0.90601923  0.79668998  0.31401792  1
  O  O106  1  0.48699759  0.18482459  0.31472513  1
  O  O107  1  0.99537788  0.18900599  0.31191378  1
  O  O108  1  0.10361761  0.18332714  0.81146522  1
  O  O109  1  0.60493493  0.20023202  0.80482116  1
  O  O110  1  0.49302847  0.79943999  0.81222379  1
  O  O111  1  0.99075242  0.79272636  0.81519312  1
  O  O112  1  0.40517304  0.01624790  0.81436449  1
  O  O113  1  0.90558335  0.02212521  0.81087343  1
  O  O114  1  0.40950998  0.98448168  0.69671181  1
  O  O115  1  0.89939125  0.97705634  0.69282398  1
  O  O116  1  0.08390220  0.18609282  0.69443401  1
  O  O117  1  0.59563803  0.21512284  0.69620744  1
  O  O118  1  0.00458583  0.82565432  0.69616203  1
  O  O119  1  0.51276421  0.83117668  0.69376119  1
  O  O120  1  0.39109194  0.80584148  0.19617913  1
  O  O121  1  0.90986487  0.83675966  0.19675149  1
  O  O122  1  0.01462483  0.19734300  0.19383035  1
  O  O123  1  0.50164309  0.17895989  0.19629171  1
  O  O124  1  0.09809439  0.97374380  0.19678163  1
  O  O125  1  0.58468442  0.98529922  0.19373758  1
  O  O126  1  0.43534366  0.37371004  0.63364033  1
  O  O127  1  0.93745350  0.36287172  0.64154738  1
  O  O128  1  0.24493247  0.12734304  0.64025625  1
  O  O129  1  0.75117728  0.13613147  0.63582133  1
  O  O130  1  0.31619840  0.51328803  0.64198981  1
  O  O131  1  0.81283382  0.49844764  0.63500005  1
  O  O132  1  0.43699091  0.51275692  0.14435390  1
  O  O133  1  0.93543816  0.49784932  0.13563960  1
  O  O134  1  0.31368482  0.12402930  0.13656338  1
  O  O135  1  0.81592411  0.11803055  0.14350041  1
  O  O136  1  0.25121146  0.36635218  0.13889136  1
  O  O137  1  0.74432768  0.36117850  0.14185747  1
  O  O138  1  0.22717584  0.29501704  0.02286766  1
  O  O139  1  0.72633426  0.29415866  0.02399640  1
  O  O140  1  0.42162067  0.54899834  0.02679439  1
  O  O141  1  0.92229616  0.56172870  0.02114455  1
  O  O142  1  0.35718029  0.15557791  0.02214538  1
  O  O143  1  0.85403519  0.15809014  0.02640859  1
  O  O144  1  0.22626940  0.15769496  0.52332877  1
  O  O145  1  0.72431569  0.15278555  0.51998030  1
  O  O146  1  0.35434271  0.55236782  0.52518208  1
  O  O147  1  0.85309698  0.55447519  0.51990700  1
  O  O148  1  0.42290097  0.28424842  0.51957887  1
  O  O149  1  0.92349495  0.29750553  0.52422292  1
  O  O150  1  0.27268655  0.68413164  0.97138838  1
  O  O151  1  0.77190865  0.68357826  0.97191757  1
  O  O152  1  0.07609391  0.45843948  0.97576957  1
  O  O153  1  0.57294166  0.45770954  0.97784214  1
  O  O154  1  0.16353195  0.86445277  0.97133452  1
  O  O155  1  0.65556934  0.85182416  0.97674648  1
  O  O156  1  0.27155671  0.85798853  0.46934191  1
  O  O157  1  0.77195118  0.85954145  0.46966707  1
  O  O158  1  0.15644881  0.46215942  0.47554628  1
  O  O159  1  0.66067980  0.45853498  0.46936882  1
  O  O160  1  0.07448786  0.69007552  0.47628908  1
  O  O161  1  0.57735571  0.69868921  0.47352289  1
  O  O162  1  0.07371803  0.65015055  0.35986698  1
  O  O163  1  0.56559367  0.64753308  0.35633814  1
  O  O164  1  0.25878617  0.86149896  0.36121923  1
  O  O165  1  0.76301492  0.87333311  0.36166645  1
  O  O166  1  0.17471199  0.49538223  0.35932584  1
  O  O167  1  0.67503672  0.47086614  0.36115297  1
  O  O168  1  0.06732280  0.48481221  0.85837188  1
  O  O169  1  0.57681479  0.50072849  0.86086332  1
  O  O170  1  0.17685763  0.87946947  0.86304916  1
  O  O171  1  0.67469650  0.85721291  0.86024722  1
  O  O172  1  0.26346933  0.65305835  0.86320560  1
  O  O173  1  0.75974701  0.65566218  0.86384547  1
  O  O174  1  0.00836124  0.83190582  0.41262757  1
  O  O175  1  0.50303566  0.83279227  0.41264431  1
  O  O176  1  0.39559848  0.97068924  0.41051687  1
  O  O177  1  0.89881151  0.98337613  0.41383411  1
  O  O178  1  0.08330483  0.18257326  0.41303420  1
  O  O179  1  0.58881575  0.20239161  0.41494791  1
  O  O180  1  0.00751178  0.17775178  0.91535077  1
  O  O181  1  0.50924136  0.18652309  0.91259810  1
  O  O182  1  0.09061382  0.97553866  0.91709979  1
  O  O183  1  0.58302190  0.98431075  0.91335712  1
  O  O184  1  0.39917265  0.81467953  0.91525773  1
  O  O185  1  0.89702823  0.81683724  0.91387046  1
  O  O186  1  0.49124434  0.16293978  0.59338695  1
  O  O187  1  0.98922341  0.15939126  0.59032316  1
  O  O188  1  0.09006155  0.01963983  0.59100842  1
  O  O189  1  0.59350572  0.02941871  0.59271953  1
  O  O190  1  0.42051129  0.81857426  0.59137676  1
  O  O191  1  0.91959010  0.81592542  0.59052245  1
  O  O192  1  0.48705974  0.81695613  0.09419676  1
  O  O193  1  0.99242172  0.82090573  0.09390216  1
  O  O194  1  0.41804234  0.01650556  0.09281941  1
  O  O195  1  0.92020251  0.02226391  0.09151442  1
  O  O196  1  0.09472799  0.15785315  0.09375354  1
  O  O197  1  0.59150992  0.16514799  0.09065617  1
  O  O198  1  0.33857116  0.15874380  0.74613044  1
  O  O199  1  0.83999252  0.16149815  0.74558581  1
  O  O200  1  0.23937713  0.31303840  0.74572095  1
  O  O201  1  0.73038154  0.31586878  0.74664434  1
  O  O202  1  0.41523497  0.52901221  0.74567171  1
  O  O203  1  0.91740755  0.51337866  0.74850735  1
  O  O204  1  0.34091880  0.53921808  0.24871747  1
  O  O205  1  0.83945322  0.51973904  0.24672704  1
  O  O206  1  0.41636344  0.32475656  0.24932278  1
  O  O207  1  0.91712832  0.30453478  0.24621783  1
  O  O208  1  0.23205751  0.14837135  0.24795001  1
  O  O209  1  0.73875531  0.16482522  0.24765813  1
  O  O210  1  0.31901782  0.50945369  0.91941698  1
  O  O211  1  0.81702772  0.51117902  0.91686855  1
  O  O212  1  0.42772650  0.36513613  0.91681802  1
  O  O213  1  0.92638747  0.35667776  0.91981903  1
  O  O214  1  0.24369322  0.13408005  0.91901484  1
  O  O215  1  0.75216195  0.14880163  0.91735244  1
  O  O216  1  0.31712834  0.12047607  0.41455715  1
  O  O217  1  0.81848464  0.12760060  0.41799351  1
  O  O218  1  0.25276303  0.35724697  0.41620697  1
  O  O219  1  0.74174435  0.34977477  0.41731703  1
  O  O220  1  0.42609361  0.49400813  0.41929957  1
  O  O221  1  0.92690265  0.48988570  0.41655262  1
  O  O222  1  0.17266436  0.49090502  0.07926004  1
  O  O223  1  0.67340715  0.49510229  0.07844039  1
  O  O224  1  0.07625137  0.66390689  0.07517130  1
  O  O225  1  0.57453069  0.65865443  0.08085065  1
  O  O226  1  0.25469738  0.84654577  0.07497090  1
  O  O227  1  0.75584033  0.84617216  0.07738738  1
  O  O228  1  0.17289896  0.85264734  0.57737950  1
  O  O229  1  0.67072041  0.85158798  0.57860986  1
  O  O230  1  0.25655112  0.66824914  0.57658462  1
  O  O231  1  0.75495803  0.66392530  0.57405648  1
  O  O232  1  0.07540647  0.49174545  0.58015259  1
  O  O233  1  0.57593619  0.48808568  0.57401074  1
  O  O234  1  0.15990257  0.84445647  0.25494932  1
  O  O235  1  0.65226307  0.82870434  0.24967419  1
  O  O236  1  0.26570052  0.69544037  0.25510169  1
  O  O237  1  0.76304711  0.70130228  0.25211440  1
  O  O238  1  0.08755667  0.48722842  0.25511794  1
  O  O239  1  0.58439626  0.46749979  0.25058399  1
  O  O240  1  0.15250499  0.47540937  0.75041300  1
  O  O241  1  0.65442063  0.46829671  0.75367016  1
  O  O242  1  0.08567753  0.70093505  0.75098040  1
  O  O243  1  0.58458360  0.68796504  0.75521971  1
  O  O244  1  0.26320846  0.82395866  0.75237047  1
  O  O245  1  0.75726633  0.81903610  0.75772973  1
