# generated using pymatgen
data_Na10La6Nb2Si7S5O48
_symmetry_space_group_name_H-M   'P 1'
_cell_length_a   19.07145052
_cell_length_b   9.57323515
_cell_length_c   23.99788750
_cell_angle_alpha   90.00699705
_cell_angle_beta   90.15943327
_cell_angle_gamma   120.14174962
_symmetry_Int_Tables_number   1
_chemical_formula_structural   Na10La6Nb2Si7S5O48
_chemical_formula_sum   'Na30 La18 Nb6 Si21 S15 O144'
_cell_volume   3788.97413875
_cell_formula_units_Z   3
loop_
 _symmetry_equiv_pos_site_id
 _symmetry_equiv_pos_as_xyz
  1  'x, y, z'
loop_
 _atom_site_type_symbol
 _atom_site_label
 _atom_site_symmetry_multiplicity
 _atom_site_fract_x
 _atom_site_fract_y
 _atom_site_fract_z
 _atom_site_occupancy
  Na  Na0  1  0.31247464  0.99904531  0.24173309  1
  Na  Na1  1  0.81848567  0.02276017  0.23938544  1
  Na  Na2  1  0.18338497  0.36966290  0.24679018  1
  Na  Na3  1  0.32255025  0.61873615  0.74055847  1
  Na  Na4  1  0.81184337  0.62609592  0.74219777  1
  Na  Na5  1  0.68382612  0.99782372  0.74880294  1
  Na  Na6  1  0.16799987  0.34457959  0.59012451  1
  Na  Na7  1  0.65893276  0.33393420  0.57934444  1
  Na  Na8  1  0.00718659  0.70250626  0.57554833  1
  Na  Na9  1  0.16328987  0.98970718  0.08556746  1
  Na  Na10  1  0.66805808  0.99171559  0.08873002  1
  Na  Na11  1  0.50633764  0.31130111  0.07424635  1
  Na  Na12  1  0.84732618  0.00849450  0.91854407  1
  Na  Na13  1  0.66294348  0.31086611  0.91645012  1
  Na  Na14  1  0.48760491  0.28860838  0.42291150  1
  Na  Na15  1  0.16462104  0.01788161  0.41847672  1
  Na  Na16  1  0.66690124  0.05737252  0.41479636  1
  Na  Na17  1  0.85051486  0.65098271  0.41349541  1
  Na  Na18  1  0.99898211  0.98577958  0.50332601  1
  Na  Na19  1  0.48401918  0.98447103  0.49658841  1
  Na  Na20  1  0.99110766  0.98436559  0.00080110  1
  Na  Na21  1  0.48733233  0.00861061  0.99945769  1
  Na  Na22  1  0.34349411  0.34118664  0.83242733  1
  Na  Na23  1  0.83301672  0.33746986  0.83454928  1
  Na  Na24  1  0.32676838  0.34156373  0.33424053  1
  Na  Na25  1  0.84029594  0.34538872  0.33179049  1
  Na  Na26  1  0.17088886  0.64834783  0.16528401  1
  Na  Na27  1  0.67924304  0.67449487  0.16060233  1
  Na  Na28  1  0.18118494  0.69163105  0.65933298  1
  Na  Na29  1  0.67140805  0.69517970  0.66338829  1
  La  La30  1  0.00450116  0.00819560  0.34785773  1
  La  La31  1  0.50018850  0.98953727  0.34670638  1
  La  La32  1  0.00601274  0.01243201  0.84846648  1
  La  La33  1  0.49892338  0.00189268  0.85055239  1
  La  La34  1  0.33249931  0.32691366  0.68273833  1
  La  La35  1  0.82990593  0.31675572  0.68195428  1
  La  La36  1  0.32908126  0.33942472  0.17991075  1
  La  La37  1  0.83231103  0.34003877  0.18250295  1
  La  La38  1  0.33841092  0.32060615  0.98317674  1
  La  La39  1  0.82775275  0.33531111  0.99110322  1
  La  La40  1  0.32395816  0.33214055  0.49155243  1
  La  La41  1  0.83683424  0.34892558  0.48649419  1
  La  La42  1  0.17031727  0.65800897  0.02120535  1
  La  La43  1  0.67417894  0.65761971  0.01795188  1
  La  La44  1  0.17778071  0.69442455  0.51577341  1
  La  La45  1  0.67034280  0.67106856  0.52210909  1
  La  La46  1  0.66141250  0.65634842  0.30977679  1
  La  La47  1  0.16054020  0.64777214  0.81015759  1
  Nb  Nb48  1  0.99654444  0.00704950  0.65372314  1
  Nb  Nb49  1  0.50805606  0.98420984  0.65144837  1
  Nb  Nb50  1  0.00793008  0.03222805  0.15136896  1
  Nb  Nb51  1  0.49602505  0.98375424  0.15394918  1
  Nb  Nb52  1  0.16305883  0.68843713  0.30915885  1
  Nb  Nb53  1  0.66159693  0.63648843  0.80850253  1
  Si  Si54  1  0.14650324  0.99822093  0.24908702  1
  Si  Si55  1  0.64949887  0.99113958  0.25029622  1
  Si  Si56  1  0.34363596  0.70159029  0.25120980  1
  Si  Si57  1  0.00613289  0.31205020  0.25251303  1
  Si  Si58  1  0.14936798  0.30531193  0.74677651  1
  Si  Si59  1  0.64480784  0.29165577  0.74970722  1
  Si  Si60  1  0.50656877  0.70377629  0.75333773  1
  Si  Si61  1  0.84597659  0.98589214  0.75480874  1
  Si  Si62  1  0.16839324  0.02417955  0.58513500  1
  Si  Si63  1  0.67516707  0.02407808  0.58543353  1
  Si  Si64  1  0.33711430  0.64668406  0.59182199  1
  Si  Si65  1  0.83997446  0.65106620  0.58986057  1
  Si  Si66  1  0.33926203  0.03010367  0.09196735  1
  Si  Si67  1  0.83791903  0.03046149  0.08768882  1
  Si  Si68  1  0.17759172  0.32274118  0.08787732  1
  Si  Si69  1  0.66824094  0.31202944  0.08558256  1
  Si  Si70  1  0.81298456  0.65858798  0.90784175  1
  Si  Si71  1  0.51784805  0.37746475  0.91505030  1
  Si  Si72  1  0.31387721  0.97868486  0.40731045  1
  Si  Si73  1  0.66670940  0.36636509  0.42015128  1
  Si  Si74  1  0.01743349  0.66087890  0.41443927  1
  S  S75  1  0.85525282  0.72157170  0.24713471  1
  S  S76  1  0.50124161  0.28896548  0.24397125  1
  S  S77  1  0.00247043  0.71523060  0.74388084  1
  S  S78  1  0.35316069  0.98668423  0.74533967  1
  S  S79  1  0.48707954  0.31235015  0.58400522  1
  S  S80  1  0.98832495  0.31954867  0.58579041  1
  S  S81  1  0.48714689  0.65514386  0.08576811  1
  S  S82  1  0.98895268  0.66409110  0.08601919  1
  S  S83  1  0.31748812  0.66071254  0.91474417  1
  S  S84  1  0.00913695  0.36230034  0.91815635  1
  S  S85  1  0.16684884  0.96298453  0.91861809  1
  S  S86  1  0.67176008  0.96196224  0.91365543  1
  S  S87  1  0.81619568  0.96785869  0.41426551  1
  S  S88  1  0.17037155  0.38012133  0.41335890  1
  S  S89  1  0.51384160  0.65621541  0.41791476  1
  O  O90  1  0.11395194  0.02929036  0.30694902  1
  O  O91  1  0.61321346  0.99430141  0.31113817  1
  O  O92  1  0.39499243  0.78610300  0.30607492  1
  O  O93  1  0.88838578  0.78144161  0.30391880  1
  O  O94  1  0.49944693  0.21376107  0.29780745  1
  O  O95  1  0.98767774  0.18981534  0.30328891  1
  O  O96  1  0.10634142  0.21603110  0.80376526  1
  O  O97  1  0.61148270  0.19220408  0.80673553  1
  O  O98  1  0.49012952  0.79307046  0.80374956  1
  O  O99  1  0.99648993  0.78918733  0.79568582  1
  O  O100  1  0.39088278  -0.00196017  0.80044635  1
  O  O101  1  0.89476074  0.00707979  0.81183365  1
  O  O102  1  0.40537635  0.98343163  0.69991165  1
  O  O103  1  0.90778183  0.98285028  0.70189102  1
  O  O104  1  0.08546700  0.18386023  0.69436121  1
  O  O105  1  0.58512462  0.18768872  0.69584130  1
  O  O106  1  0.00525382  0.81615815  0.69460857  1
  O  O107  1  0.51960441  0.83551969  0.69724540  1
  O  O108  1  0.40314561  0.82421760  0.19732576  1
  O  O109  1  0.91108961  0.83241879  0.20364492  1
  O  O110  1  0.01938686  0.20412226  0.19720608  1
  O  O111  1  0.50136331  0.18520354  0.19671820  1
  O  O112  1  0.08644830  0.98410850  0.19569877  1
  O  O113  1  0.58089052  0.98623702  0.20028845  1
  O  O114  1  0.44373879  0.32987275  0.63097876  1
  O  O115  1  0.95181606  0.35220484  0.63424890  1
  O  O116  1  0.23360815  0.12690559  0.63256959  1
  O  O117  1  0.72442491  0.10625770  0.64249586  1
  O  O118  1  0.32538920  0.54022402  0.64702605  1
  O  O119  1  0.83243653  0.53745788  0.64222089  1
  O  O120  1  0.45200383  0.55091967  0.13482888  1
  O  O121  1  0.95233088  0.56487347  0.13534718  1
  O  O122  1  0.32447156  0.10596097  0.14813390  1
  O  O123  1  0.82796830  0.12358253  0.14078760  1
  O  O124  1  0.21964036  0.34458314  0.14842803  1
  O  O125  1  0.73398089  0.34330676  0.13299407  1
  O  O126  1  0.22327002  0.28017915  0.03882284  1
  O  O127  1  0.70225680  0.27662765  0.02614838  1
  O  O128  1  0.43779486  0.58273929  0.03548988  1
  O  O129  1  0.94099458  0.58432548  0.03479236  1
  O  O130  1  0.36755385  0.16223345  0.04024007  1
  O  O131  1  0.85258363  0.13382816  0.02931648  1
  O  O132  1  0.19956154  0.12927454  0.52590142  1
  O  O133  1  0.71567304  0.14111756  0.53084747  1
  O  O134  1  0.35253264  0.56293946  0.53659331  1
  O  O135  1  0.86563068  0.58909155  0.53267837  1
  O  O136  1  0.44483303  0.30255863  0.52998879  1
  O  O137  1  0.93982667  0.29277917  0.53492055  1
  O  O138  1  0.26989619  0.66430766  0.96278699  1
  O  O139  1  0.77110295  0.68541529  0.96233742  1
  O  O140  1  0.05427087  0.45430976  0.96755647  1
  O  O141  1  0.56096783  0.46167293  0.97364144  1
  O  O142  1  0.16898410  0.88302532  0.97116262  1
  O  O143  1  0.66500975  0.87750963  0.96665764  1
  O  O144  1  0.27212790  0.87988948  0.46364707  1
  O  O145  1  0.77034652  0.86849601  0.46258970  1
  O  O146  1  0.16723342  0.45455538  0.46670152  1
  O  O147  1  0.66030132  0.44816647  0.47850445  1
  O  O148  1  0.06335265  0.66935941  0.47221989  1
  O  O149  1  0.56230055  0.66608448  0.46714815  1
  O  O150  1  0.07978322  0.66419596  0.36002371  1
  O  O151  1  0.55535624  0.64909516  0.36633236  1
  O  O152  1  0.25180204  0.85413065  0.35316244  1
  O  O153  1  0.77254973  0.89002553  0.36147456  1
  O  O154  1  0.16959753  0.47204483  0.36393603  1
  O  O155  1  0.67313317  0.48411355  0.36729621  1
  O  O156  1  0.05276532  0.44930764  0.86661007  1
  O  O157  1  0.57992933  0.50002535  0.86022644  1
  O  O158  1  0.16449626  0.86459961  0.86951591  1
  O  O159  1  0.67275790  0.86927434  0.86435671  1
  O  O160  1  0.27615009  0.66302313  0.86172422  1
  O  O161  1  0.75092244  0.65076322  0.85275390  1
  O  O162  1  0.01113861  0.82725492  0.41220158  1
  O  O163  1  0.50576089  0.80266410  0.41800935  1
  O  O164  1  0.40737986  0.01911640  0.40491683  1
  O  O165  1  0.89667068  0.97755926  0.41610463  1
  O  O166  1  0.09935086  0.21054430  0.41342474  1
  O  O167  1  0.58633786  0.18353123  0.41725878  1
  O  O168  1  0.00035029  0.19798346  0.92059496  1
  O  O169  1  0.52103919  0.20890632  0.91273173  1
  O  O170  1  0.09360838  0.97975416  0.92000945  1
  O  O171  1  0.60452666  0.99886475  0.91156727  1
  O  O172  1  0.39930949  0.80743256  0.91928784  1
  O  O173  1  0.90215698  0.81957661  0.90541059  1
  O  O174  1  0.49368102  0.16302392  0.58894771  1
  O  O175  1  0.99166808  0.16594281  0.59482829  1
  O  O176  1  0.07890685  0.01583084  0.59851156  1
  O  O177  1  0.58536406  0.02290118  0.59507236  1
  O  O178  1  0.41885737  0.83232488  0.60453875  1
  O  O179  1  0.92015983  0.83585295  0.60144594  1
  O  O180  1  0.49132147  0.81607327  0.09488042  1
  O  O181  1  0.99528294  0.82663750  0.09098207  1
  O  O182  1  0.42022283  0.00691314  0.10096695  1
  O  O183  1  0.91908872  0.00658569  0.10401379  1
  O  O184  1  0.08538745  0.14789615  0.09488429  1
  O  O185  1  0.58033907  0.13882004  0.09945876  1
  O  O186  1  0.33875281  0.12250766  0.74067408  1
  O  O187  1  0.82516755  0.13023921  0.74774958  1
  O  O188  1  0.24093725  0.33486214  0.74495759  1
  O  O189  1  0.73943155  0.34013796  0.74329510  1
  O  O190  1  0.42972005  0.52759882  0.74382588  1
  O  O191  1  0.92935494  0.55309720  0.74028282  1
  O  O192  1  0.32376177  0.51585562  0.24621029  1
  O  O193  1  0.84210755  0.55786413  0.24229791  1
  O  O194  1  0.42750098  0.30230330  0.24067451  1
  O  O195  1  0.92916865  0.33333409  0.24249257  1
  O  O196  1  0.24028814  0.14072821  0.24295910  1
  O  O197  1  0.74013779  0.14949611  0.24520860  1
  O  O198  1  0.32300981  0.51214697  0.91588177  1
  O  O199  1  0.80735760  0.48112614  0.90947651  1
  O  O200  1  0.42798312  0.35614726  0.90861961  1
  O  O201  1  0.92595810  0.34118878  0.91639160  1
  O  O202  1  0.24157711  0.12533901  0.91470944  1
  O  O203  1  0.75107065  0.12145186  0.91375054  1
  O  O204  1  0.30930071  0.14650247  0.40660351  1
  O  O205  1  0.82295056  0.12892316  0.41790152  1
  O  O206  1  0.24525610  0.36551763  0.41186562  1
  O  O207  1  0.75064688  0.35328728  0.41909584  1
  O  O208  1  0.43353836  0.50357268  0.41955749  1
  O  O209  1  0.92602487  0.50515378  0.40879755  1
  O  O210  1  0.15723707  0.46712001  0.08033902  1
  O  O211  1  0.64433127  0.45373452  0.08460309  1
  O  O212  1  0.07407998  0.69577274  0.08049778  1
  O  O213  1  0.57219112  0.69277343  0.07953687  1
  O  O214  1  0.25527177  0.85974441  0.08036415  1
  O  O215  1  0.75380568  0.85543353  0.08515187  1
  O  O216  1  0.14610710  0.83544366  0.58367785  1
  O  O217  1  0.65404541  0.83846017  0.58288811  1
  O  O218  1  0.25335471  0.65332935  0.58523593  1
  O  O219  1  0.75571648  0.65462294  0.58599106  1
  O  O220  1  0.07315692  0.45263980  0.57980746  1
  O  O221  1  0.57160587  0.45351915  0.58398710  1
  O  O222  1  0.14950483  0.82327677  0.25561489  1
  O  O223  1  0.65765441  0.82887485  0.24025657  1
  O  O224  1  0.25624203  0.70462789  0.25173467  1
  O  O225  1  0.77681803  0.72176695  0.24137494  1
  O  O226  1  0.09508556  0.48156812  0.25971560  1
  O  O227  1  0.57517932  0.44999286  0.23860730  1
  O  O228  1  0.15587549  0.48508352  0.74120919  1
  O  O229  1  0.64817325  0.47321690  0.75584367  1
  O  O230  1  0.07704369  0.70297804  0.74235479  1
  O  O231  1  0.59560554  0.71077923  0.75983671  1
  O  O232  1  0.27403764  0.82867742  0.74293536  1
  O  O233  1  0.75840264  0.80866610  0.75265631  1
