# generated using pymatgen
data_Na10Mg3Zr5Si6(SO8)6
_symmetry_space_group_name_H-M   'P 1'
_cell_length_a   18.20336139
_cell_length_b   9.10852491
_cell_length_c   22.84423561
_cell_angle_alpha   89.95780115
_cell_angle_beta   89.89634968
_cell_angle_gamma   119.96940847
_symmetry_Int_Tables_number   1
_chemical_formula_structural   Na10Mg3Zr5Si6(SO8)6
_chemical_formula_sum   'Na30 Mg9 Zr15 Si18 S18 O144'
_cell_volume   3281.24914916
_cell_formula_units_Z   3
loop_
 _symmetry_equiv_pos_site_id
 _symmetry_equiv_pos_as_xyz
  1  'x, y, z'
loop_
 _atom_site_type_symbol
 _atom_site_label
 _atom_site_symmetry_multiplicity
 _atom_site_fract_x
 _atom_site_fract_y
 _atom_site_fract_z
 _atom_site_occupancy
  Na  Na0  1  0.31828786  0.99986016  0.24455931  1
  Na  Na1  1  0.19622716  0.37092698  0.24391610  1
  Na  Na2  1  0.68966281  0.36864579  0.24275398  1
  Na  Na3  1  0.99827620  0.64259541  0.25058901  1
  Na  Na4  1  0.31819525  0.61829257  0.75397384  1
  Na  Na5  1  0.81920496  0.62799855  0.74777687  1
  Na  Na6  1  0.99371036  0.36037454  0.74959592  1
  Na  Na7  1  0.49629494  0.37227402  0.74140806  1
  Na  Na8  1  0.18104756  0.00808114  0.74737330  1
  Na  Na9  1  0.68605410  0.01072315  0.74877782  1
  Na  Na10  1  0.64675088  0.34555605  0.57592531  1
  Na  Na11  1  0.32406025  0.68489780  0.07938999  1
  Na  Na12  1  0.82638339  0.68722917  0.08772989  1
  Na  Na13  1  0.16449460  0.31875822  0.92352920  1
  Na  Na14  1  0.99384222  0.30934385  0.42067620  1
  Na  Na15  1  0.16478385  0.02945496  0.41918677  1
  Na  Na16  1  0.66269746  0.02901812  0.41337644  1
  Na  Na17  1  0.84169041  0.66785076  0.41782133  1
  Na  Na18  1  0.00191323  0.00427186  0.49946984  1
  Na  Na19  1  0.49309821  0.01328917  0.49442849  1
  Na  Na20  1  0.00669161  0.02497947  0.99959957  1
  Na  Na21  1  0.50309114  0.02491865  0.99591045  1
  Na  Na22  1  0.34439672  0.35687722  0.83357894  1
  Na  Na23  1  0.83874849  0.33507981  0.82765679  1
  Na  Na24  1  0.33719522  0.36338883  0.32625378  1
  Na  Na25  1  0.83217989  0.33347518  0.32911045  1
  Na  Na26  1  0.16883709  0.66253577  0.15836578  1
  Na  Na27  1  0.66441720  0.66337068  0.15929136  1
  Na  Na28  1  0.16125343  0.65904664  0.66126217  1
  Na  Na29  1  0.65876077  0.66513527  0.66048426  1
  Mg  Mg30  1  0.49736906  0.99819800  0.35180360  1
  Mg  Mg31  1  0.33876867  0.34670608  0.68321090  1
  Mg  Mg32  1  0.83580267  0.33566369  0.68856974  1
  Mg  Mg33  1  0.33065591  0.34414131  0.18587011  1
  Mg  Mg34  1  0.82980873  0.33624569  0.18169329  1
  Mg  Mg35  1  0.16585528  0.64403084  0.01609142  1
  Mg  Mg36  1  0.65856484  0.64218300  0.01866411  1
  Mg  Mg37  1  0.16281253  0.65757499  0.51503351  1
  Mg  Mg38  1  0.66169958  0.65222162  0.51600779  1
  Zr  Zr39  1  0.00014577  0.99268820  0.35292658  1
  Zr  Zr40  1  0.99888766  0.00566583  0.84953930  1
  Zr  Zr41  1  0.50219075  0.99835282  0.85642126  1
  Zr  Zr42  1  0.00102295  0.00173357  0.65088700  1
  Zr  Zr43  1  0.50202226  0.00636360  0.64639100  1
  Zr  Zr44  1  0.00565659  0.99870221  0.14726304  1
  Zr  Zr45  1  0.50049404  0.00161881  0.14614176  1
  Zr  Zr46  1  0.33373096  0.33915821  0.97908542  1
  Zr  Zr47  1  0.82905972  0.32735437  0.98113130  1
  Zr  Zr48  1  0.33862164  0.33878227  0.48364880  1
  Zr  Zr49  1  0.83352195  0.33563590  0.47767815  1
  Zr  Zr50  1  0.17147122  0.66366962  0.31649204  1
  Zr  Zr51  1  0.67319774  0.67001721  0.31638127  1
  Zr  Zr52  1  0.15913884  0.64697509  0.81892883  1
  Zr  Zr53  1  0.65945271  0.65578867  0.81316536  1
  Si  Si54  1  0.15200193  0.00140456  0.25110434  1
  Si  Si55  1  0.35824833  0.70813263  0.25244995  1
  Si  Si56  1  0.85124570  0.69890299  0.24743509  1
  Si  Si57  1  0.15094989  0.29641275  0.74915062  1
  Si  Si58  1  0.64842430  0.29182477  0.74906117  1
  Si  Si59  1  0.00179604  0.70711220  0.75013543  1
  Si  Si60  1  0.49699465  0.70489467  0.74920471  1
  Si  Si61  1  0.85182957  0.00062224  0.74861816  1
  Si  Si62  1  0.48435156  0.34135179  0.58766801  1
  Si  Si63  1  0.18511253  0.33742581  0.08564563  1
  Si  Si64  1  0.68564610  0.34071455  0.08709083  1
  Si  Si65  1  0.31472665  0.67216213  0.92023572  1
  Si  Si66  1  0.01536511  0.36521628  0.91944372  1
  Si  Si67  1  0.51916998  0.37172904  0.91855646  1
  Si  Si68  1  0.80999655  0.95296348  0.42106222  1
  Si  Si69  1  0.16905969  0.37350227  0.41882039  1
  Si  Si70  1  0.65824184  0.36016480  0.41940439  1
  Si  Si71  1  0.02500043  0.67000027  0.41812474  1
  S  S72  1  0.64644569  0.99879442  0.25119429  1
  S  S73  1  0.99716148  0.29150165  0.24948385  1
  S  S74  1  0.49992663  0.29229807  0.25115247  1
  S  S75  1  0.35344711  0.00020511  0.75023548  1
  S  S76  1  0.98148494  0.33658620  0.58440379  1
  S  S77  1  0.18715550  0.03569302  0.58414710  1
  S  S78  1  0.68860160  0.03800998  0.58464437  1
  S  S79  1  0.32934797  0.62706127  0.58484761  1
  S  S80  1  0.83482040  0.62890465  0.58490859  1
  S  S81  1  0.48085932  0.62325609  0.08541927  1
  S  S82  1  0.98050327  0.62275773  0.08426352  1
  S  S83  1  0.33203577  0.04169151  0.08600256  1
  S  S84  1  0.83167444  0.04044846  0.08471064  1
  S  S85  1  0.81301740  0.66817527  0.91920731  1
  S  S86  1  0.16585840  0.95469484  0.91874857  1
  S  S87  1  0.66812650  0.95459953  0.91932256  1
  S  S88  1  0.31519569  0.95875798  0.41938548  1
  S  S89  1  0.52114797  0.66780222  0.41721821  1
  O  O90  1  0.10545025  0.03206099  0.30805069  1
  O  O91  1  0.60946564  0.02736200  0.30448120  1
  O  O92  1  0.41312853  0.81388910  0.30697967  1
  O  O93  1  0.90936949  0.79752986  0.30503425  1
  O  O94  1  0.48924428  0.19013488  0.30319267  1
  O  O95  1  0.98599431  0.19542901  0.30417838  1
  O  O96  1  0.10640220  0.18018488  0.80792334  1
  O  O97  1  0.60022100  0.16461201  0.80323504  1
  O  O98  1  0.48140671  0.79806256  0.80445506  1
  O  O99  1  0.98546398  0.79765024  0.80646855  1
  O  O100  1  0.40706347  0.02874175  0.80184783  1
  O  O101  1  0.91521371  0.03664820  0.80472075  1
  O  O102  1  0.39229853  0.96852302  0.69755969  1
  O  O103  1  0.89629550  0.95838887  0.69272699  1
  O  O104  1  0.08337906  0.20642218  0.69480415  1
  O  O105  1  0.58621052  0.21014906  0.69066930  1
  O  O106  1  0.02100868  0.83583507  0.69362216  1
  O  O107  1  0.51286644  0.82827735  0.69188451  1
  O  O108  1  0.39906833  0.82893481  0.19174738  1
  O  O109  1  0.89585915  0.81521389  0.18925418  1
  O  O110  1  0.01091010  0.20580674  0.19907749  1
  O  O111  1  0.51817497  0.21411095  0.19861354  1
  O  O112  1  0.08571403  0.96959556  0.19630755  1
  O  O113  1  0.59273540  0.98112730  0.19913390  1
  O  O114  1  0.43750194  0.34907448  0.64629783  1
  O  O115  1  0.93734858  0.34817495  0.63652391  1
  O  O116  1  0.23583376  0.12179981  0.63693892  1
  O  O117  1  0.73825134  0.12326004  0.63675625  1
  O  O118  1  0.31870717  0.52817530  0.63834487  1
  O  O119  1  0.82646929  0.52386152  0.63638468  1
  O  O120  1  0.44084110  0.51920244  0.13704671  1
  O  O121  1  0.94246717  0.52569940  0.13854581  1
  O  O122  1  0.32807288  0.12517360  0.14016456  1
  O  O123  1  0.82510036  0.12701848  0.13692379  1
  O  O124  1  0.24150018  0.35794532  0.14277957  1
  O  O125  1  0.74112211  0.36437645  0.14557618  1
  O  O126  1  0.23085953  0.31053518  0.02588949  1
  O  O127  1  0.73558126  0.31308331  0.02997219  1
  O  O128  1  0.42643719  0.54538010  0.03223447  1
  O  O129  1  0.92381753  0.53416590  0.03336482  1
  O  O130  1  0.34559520  0.14884885  0.03388797  1
  O  O131  1  0.84570980  0.14758173  0.03112999  1
  O  O132  1  0.22959213  0.14281263  0.53028745  1
  O  O133  1  0.72979994  0.14874577  0.53130477  1
  O  O134  1  0.34122673  0.53885480  0.53273447  1
  O  O135  1  0.84348110  0.54358504  0.53063382  1
  O  O136  1  0.42248623  0.31784262  0.52970485  1
  O  O137  1  0.92956887  0.31754570  0.53033562  1
  O  O138  1  0.27368505  0.69734293  0.97821550  1
  O  O139  1  0.77352405  0.69145645  0.97152815  1
  O  O140  1  0.07996911  0.45998841  0.97093793  1
  O  O141  1  0.57739163  0.46347930  0.97292656  1
  O  O142  1  0.15655790  0.85118684  0.96930686  1
  O  O143  1  0.66128285  0.85292245  0.96997267  1
  O  O144  1  0.27304264  0.85423648  0.47008579  1
  O  O145  1  0.76569328  0.82856376  0.47449368  1
  O  O146  1  0.14926807  0.46100038  0.47195207  1
  O  O147  1  0.64980314  0.44525365  0.47803334  1
  O  O148  1  0.08801229  0.71489401  0.47142882  1
  O  O149  1  0.57408772  0.69288432  0.46873675  1
  O  O150  1  0.06146535  0.63053406  0.35744544  1
  O  O151  1  0.55928268  0.63832483  0.36372075  1
  O  O152  1  0.26095737  0.88412002  0.36464763  1
  O  O153  1  0.75008047  0.87498443  0.36139235  1
  O  O154  1  0.18263200  0.48060433  0.35672633  1
  O  O155  1  0.67976474  0.48880019  0.36095086  1
  O  O156  1  0.05504655  0.47022810  0.85581677  1
  O  O157  1  0.55990679  0.48330861  0.85677845  1
  O  O158  1  0.17603380  0.88010302  0.86275972  1
  O  O159  1  0.67956516  0.88215722  0.86369675  1
  O  O160  1  0.25518516  0.64156530  0.86055643  1
  O  O161  1  0.76303126  0.64682787  0.86506248  1
  O  O162  1  0.00666947  0.82929611  0.41072145  1
  O  O163  1  0.51292343  0.81992470  0.41036180  1
  O  O164  1  0.40023865  0.98525549  0.41149875  1
  O  O165  1  0.90594269  0.98435224  0.41018436  1
  O  O166  1  0.08265443  0.18368666  0.41064621  1
  O  O167  1  0.58336992  0.16758269  0.40873119  1
  O  O168  1  0.01055049  0.17822271  0.91346588  1
  O  O169  1  0.50943428  0.18359278  0.90926893  1
  O  O170  1  0.09084535  0.98007500  0.91408724  1
  O  O171  1  0.59223236  0.97481325  0.91505922  1
  O  O172  1  0.41020478  0.83040919  0.91105076  1
  O  O173  1  0.89959984  0.81726560  0.91340383  1
  O  O174  1  0.49282221  0.16354346  0.58528842  1
  O  O175  1  0.98808436  0.17837376  0.58534796  1
  O  O176  1  0.10114780  0.02196377  0.58503947  1
  O  O177  1  0.60349564  0.03113924  0.58651228  1
  O  O178  1  0.40869336  0.79664956  0.58712567  1
  O  O179  1  0.91318456  0.79816434  0.58619874  1
  O  O180  1  0.48340742  0.79340152  0.09004397  1
  O  O181  1  0.98027321  0.79004685  0.08629341  1
  O  O182  1  0.40982908  0.01782713  0.08796072  1
  O  O183  1  0.90808891  0.01746503  0.08737842  1
  O  O184  1  0.08794405  0.16232855  0.08851450  1
  O  O185  1  0.59049671  0.16580911  0.09008189  1
  O  O186  1  0.34224199  0.14841561  0.74346813  1
  O  O187  1  0.84222822  0.16561893  0.74156413  1
  O  O188  1  0.24178040  0.30894707  0.74088185  1
  O  O189  1  0.74148679  0.31509413  0.74140155  1
  O  O190  1  0.41586597  0.51616546  0.74523322  1
  O  O191  1  0.92067839  0.52081514  0.74247589  1
  O  O192  1  0.34331388  0.51905346  0.24622043  1
  O  O193  1  0.84538758  0.51354891  0.24626860  1
  O  O194  1  0.42379616  0.30461208  0.24169142  1
  O  O195  1  0.92377758  0.31620456  0.24206156  1
  O  O196  1  0.24617761  0.16067852  0.24499773  1
  O  O197  1  0.73242767  0.14867579  0.24385815  1
  O  O198  1  0.31699508  0.48989267  0.92155650  1
  O  O199  1  0.82149688  0.51232963  0.92312737  1
  O  O200  1  0.42247506  0.34589603  0.92316519  1
  O  O201  1  0.92055401  0.34451551  0.92425604  1
  O  O202  1  0.24240556  0.12901659  0.92133877  1
  O  O203  1  0.74475784  0.12957785  0.92235821  1
  O  O204  1  0.31891777  0.12898457  0.42373721  1
  O  O205  1  0.82186720  0.14564918  0.42577636  1
  O  O206  1  0.24940148  0.33780328  0.42461698  1
  O  O207  1  0.75064503  0.35333249  0.42288201  1
  O  O208  1  0.43419345  0.51404537  0.42294284  1
  O  O209  1  0.92902075  0.49941642  0.42524095  1
  O  O210  1  0.17775221  0.50783777  0.08103286  1
  O  O211  1  0.68139152  0.51403316  0.08016471  1
  O  O212  1  0.06635370  0.65437843  0.07641613  1
  O  O213  1  0.56712685  0.65557334  0.07782165  1
  O  O214  1  0.25676385  0.87228013  0.08112069  1
  O  O215  1  0.75618404  0.87164358  0.07830021  1
  O  O216  1  0.17943157  0.86796739  0.57878947  1
  O  O217  1  0.67756493  0.86976059  0.57748328  1
  O  O218  1  0.25550819  0.64943123  0.57731959  1
  O  O219  1  0.75816597  0.64349117  0.58086446  1
  O  O220  1  0.06574356  0.48829613  0.58008153  1
  O  O221  1  0.57938180  0.50338034  0.58111269  1
  O  O222  1  0.15298983  0.82242005  0.25607843  1
  O  O223  1  0.65086193  0.84032246  0.25395611  1
  O  O224  1  0.26020612  0.69159496  0.25466427  1
  O  O225  1  0.75457493  0.67435903  0.25373435  1
  O  O226  1  0.07652746  0.46148278  0.25270047  1
  O  O227  1  0.57738913  0.46502368  0.25527740  1
  O  O228  1  0.16043853  0.48656587  0.75432850  1
  O  O229  1  0.65640931  0.47974995  0.75583273  1
  O  O230  1  0.09081821  0.70094797  0.75534474  1
  O  O231  1  0.58639534  0.69920811  0.75519071  1
  O  O232  1  0.26837028  0.84492651  0.75612897  1
  O  O233  1  0.76020443  0.82938404  0.75799655  1
