# generated using pymatgen
data_Na3Ga2Sn2P5SO24
_symmetry_space_group_name_H-M   'P 1'
_cell_length_a   8.69387123
_cell_length_b   8.67371773
_cell_length_c   22.50855777
_cell_angle_alpha   90.33667910
_cell_angle_beta   89.81523903
_cell_angle_gamma   120.09925875
_symmetry_Int_Tables_number   1
_chemical_formula_structural   Na3Ga2Sn2P5SO24
_chemical_formula_sum   'Na9 Ga6 Sn6 P15 S3 O72'
_cell_volume   1468.43260278
_cell_formula_units_Z   3
loop_
 _symmetry_equiv_pos_site_id
 _symmetry_equiv_pos_as_xyz
  1  'x, y, z'
loop_
 _atom_site_type_symbol
 _atom_site_label
 _atom_site_symmetry_multiplicity
 _atom_site_fract_x
 _atom_site_fract_y
 _atom_site_fract_z
 _atom_site_occupancy
  Na  Na0  1  0.00291248  0.36564664  0.75068143  1
  Na  Na1  1  0.66738186  0.96715272  0.58337221  1
  Na  Na2  1  0.03357616  0.33353852  0.08344335  1
  Na  Na3  1  0.00337011  0.99669234  0.50188035  1
  Na  Na4  1  0.00331698  0.99648754  0.00155770  1
  Na  Na5  1  0.66069137  0.32967936  0.83368429  1
  Na  Na6  1  0.67346645  0.33611462  0.33316612  1
  Na  Na7  1  0.33970991  0.66938129  0.16711572  1
  Na  Na8  1  0.33358973  0.66665750  0.66653526  1
  Ga  Ga9  1  0.00512579  0.99860889  0.64843326  1
  Ga  Ga10  1  0.99060882  0.99596177  0.14755898  1
  Ga  Ga11  1  0.32921858  0.67146031  0.01919930  1
  Ga  Ga12  1  0.32847564  0.67170289  0.51910609  1
  Ga  Ga13  1  0.33219988  0.66545178  0.31456513  1
  Ga  Ga14  1  0.33166543  0.67464345  0.81386556  1
  Sn  Sn15  1  0.98908156  0.99268206  0.35229045  1
  Sn  Sn16  1  0.00598950  0.00349634  0.85212754  1
  Sn  Sn17  1  0.66247127  0.33480965  0.68458117  1
  Sn  Sn18  1  0.67055000  0.33773415  0.18492330  1
  Sn  Sn19  1  0.66566774  0.32851953  0.98152281  1
  Sn  Sn20  1  0.67220820  0.33421939  0.48128350  1
  P  P21  1  0.70350575  0.70972081  0.24881867  1
  P  P22  1  0.00539704  0.29397307  0.24916275  1
  P  P23  1  0.29140997  0.29383591  0.74908024  1
  P  P24  1  0.00348130  0.71384014  0.74887520  1
  P  P25  1  0.70526101  0.99227434  0.74887126  1
  P  P26  1  0.96804085  0.33607962  0.58396658  1
  P  P27  1  0.36759831  0.03890225  0.58269404  1
  P  P28  1  0.66541912  0.62886333  0.58270408  1
  P  P29  1  0.96249682  0.63341460  0.08280885  1
  P  P30  1  0.66228355  0.03324251  0.08378444  1
  P  P31  1  0.37179475  0.33354982  0.08347463  1
  P  P32  1  0.04840906  0.38214683  0.91666843  1
  P  P33  1  0.33281844  0.95071530  0.91681768  1
  P  P34  1  0.61534934  0.95011411  0.41686286  1
  P  P35  1  0.05055935  0.66770337  0.41593555  1
  S  S36  1  0.28849499  0.99686354  0.24907950  1
  S  S37  1  0.61846106  0.66648432  0.91658098  1
  S  S38  1  0.33325770  0.38006813  0.41656789  1
  O  O39  1  0.21615392  0.03476483  0.30438560  1
  O  O40  1  0.82066527  0.78118271  0.30543720  1
  O  O41  1  0.96816068  0.17804791  0.30562042  1
  O  O42  1  0.21702354  0.18017134  0.80597012  1
  O  O43  1  0.96160036  0.78496542  0.80636453  1
  O  O44  1  0.82669023  0.03960063  0.80486290  1
  O  O45  1  0.78919810  0.96717164  0.69243026  1
  O  O46  1  0.17096751  0.21074186  0.69494932  1
  O  O47  1  0.03331767  0.82634430  0.69420990  1
  O  O48  1  0.79202791  0.82487424  0.19419038  1
  O  O49  1  0.03432916  0.21046411  0.19263640  1
  O  O50  1  0.18010654  0.96950267  0.19634676  1
  O  O51  1  0.88655523  0.37110469  0.64073178  1
  O  O52  1  0.49267324  0.11622291  0.63775378  1
  O  O53  1  0.62776779  0.51208631  0.63842852  1
  O  O54  1  0.88559803  0.50862168  0.13747956  1
  O  O55  1  0.62699720  0.11659237  0.13935531  1
  O  O56  1  0.48886983  0.37000322  0.13907525  1
  O  O57  1  0.45192277  0.29629872  0.02732287  1
  O  O58  1  0.84384478  0.54985960  0.02720271  1
  O  O59  1  0.71061080  0.15825280  0.02896735  1
  O  O60  1  0.45189070  0.15688849  0.52719753  1
  O  O61  1  0.70305819  0.54771083  0.52694996  1
  O  O62  1  0.84143181  0.28981110  0.52958709  1
  O  O63  1  0.54363908  0.69639930  0.97081692  1
  O  O64  1  0.15804521  0.45961450  0.97365284  1
  O  O65  1  0.30312976  0.84131486  0.97283544  1
  O  O66  1  0.54057583  0.84230186  0.47427951  1
  O  O67  1  0.30282177  0.45523393  0.47069842  1
  O  O68  1  0.15865583  0.69748589  0.47260043  1
  O  O69  1  0.12922463  0.63454572  0.35976470  1
  O  O70  1  0.50516808  0.86848952  0.36072208  1
  O  O71  1  0.36382424  0.48480713  0.36257483  1
  O  O72  1  0.12758936  0.48937058  0.85940157  1
  O  O73  1  0.36704370  0.87324026  0.86038841  1
  O  O74  1  0.51364689  0.63630198  0.86248930  1
  O  O75  1  0.03011774  0.83688932  0.41095374  1
  O  O76  1  0.80699845  0.97662480  0.41263157  1
  O  O77  1  0.17317062  0.19717035  0.41086278  1
  O  O78  1  0.02254300  0.19058229  0.91191954  1
  O  O79  1  0.16509499  0.97192472  0.91205944  1
  O  O80  1  0.80097179  0.82750312  0.91166130  1
  O  O81  1  0.97449408  0.16330658  0.59116717  1
  O  O82  1  0.18701499  0.02332110  0.59068937  1
  O  O83  1  0.83094352  0.81450831  0.59029077  1
  O  O84  1  0.97958551  0.81550575  0.09164649  1
  O  O85  1  0.83531555  0.02620324  0.09065724  1
  O  O86  1  0.18565673  0.16760791  0.09119072  1
  O  O87  1  0.69444870  0.16746230  0.74408681  1
  O  O88  1  0.47688207  0.31100296  0.74439474  1
  O  O89  1  0.83736064  0.52142509  0.74432520  1
  O  O90  1  0.68579767  0.52174914  0.24425490  1
  O  O91  1  0.83349855  0.30803552  0.24443185  1
  O  O92  1  0.46870287  0.16007558  0.24471961  1
  O  O93  1  0.64083786  0.50629834  0.92140222  1
  O  O94  1  0.85944299  0.36140565  0.92158279  1
  O  O95  1  0.49907399  0.14221159  0.92138034  1
  O  O96  1  0.63801042  0.14052762  0.42147801  1
  O  O97  1  0.49337447  0.35843465  0.42151042  1
  O  O98  1  0.85874230  0.50197432  0.42113485  1
  O  O99  1  0.35115946  0.49877750  0.07554022  1
  O  O100  1  0.14247875  0.64063076  0.07582205  1
  O  O101  1  0.49757435  0.85122541  0.07509982  1
  O  O102  1  0.36019526  0.85807947  0.57606464  1
  O  O103  1  0.50022610  0.64881721  0.57505992  1
  O  O104  1  0.14872582  0.50267171  0.57514900  1
  O  O105  1  0.30740180  0.83885207  0.25598644  1
  O  O106  1  0.52015152  0.69168406  0.25759197  1
  O  O107  1  0.17023408  0.47943051  0.25732867  1
  O  O108  1  0.30637577  0.47749024  0.75766959  1
  O  O109  1  0.16453818  0.68596103  0.75609472  1
  O  O110  1  0.52135191  0.82847313  0.75749994  1
