# generated using pymatgen
data_Na7CaTi3Si3(PO8)3
_symmetry_space_group_name_H-M   'P 1'
_cell_length_a   9.06698086
_cell_length_b   9.06329750
_cell_length_c   22.14547491
_cell_angle_alpha   89.87591476
_cell_angle_beta   90.19889601
_cell_angle_gamma   119.87010895
_symmetry_Int_Tables_number   1
_chemical_formula_structural   Na7CaTi3Si3(PO8)3
_chemical_formula_sum   'Na21 Ca3 Ti9 Si9 P9 O72'
_cell_volume   1578.07936232
_cell_formula_units_Z   3
loop_
 _symmetry_equiv_pos_site_id
 _symmetry_equiv_pos_as_xyz
  1  'x, y, z'
loop_
 _atom_site_type_symbol
 _atom_site_label
 _atom_site_symmetry_multiplicity
 _atom_site_fract_x
 _atom_site_fract_y
 _atom_site_fract_z
 _atom_site_occupancy
  Na  Na0  1  0.63772802  0.00769737  0.24402345  1
  Na  Na1  1  0.37298261  0.36466400  0.24409109  1
  Na  Na2  1  0.99180756  0.63334069  0.24678565  1
  Na  Na3  1  0.62786683  0.61945652  0.74767654  1
  Na  Na4  1  0.99134954  0.37460968  0.74505875  1
  Na  Na5  1  0.37981299  0.00569048  0.74651597  1
  Na  Na6  1  0.02698289  0.68670695  0.58372226  1
  Na  Na7  1  0.66486038  0.97374371  0.57974970  1
  Na  Na8  1  0.31360761  0.97300098  0.08178774  1
  Na  Na9  1  0.65902613  0.68420922  0.08534575  1
  Na  Na10  1  0.02516573  0.33933261  0.07901332  1
  Na  Na11  1  0.33216014  0.29519937  0.91692140  1
  Na  Na12  1  0.96752019  0.28669988  0.41617433  1
  Na  Na13  1  0.32021743  0.03433798  0.41810424  1
  Na  Na14  1  0.71449589  0.67919628  0.41821331  1
  Na  Na15  1  0.00931675  0.01027010  0.49916140  1
  Na  Na16  1  0.98705141  0.98885770  0.99629860  1
  Na  Na17  1  0.68511882  0.34239973  0.83654915  1
  Na  Na18  1  0.66380310  0.33414591  0.33231194  1
  Na  Na19  1  0.33947396  0.66931803  0.16446564  1
  Na  Na20  1  0.32747491  0.64676629  0.66309789  1
  Ca  Ca21  1  0.99920203  0.00018429  0.35440134  1
  Ca  Ca22  1  0.67011768  0.33855455  0.68322174  1
  Ca  Ca23  1  0.66372211  0.33178082  0.17475315  1
  Ti  Ti24  1  0.98802270  0.98880782  0.85732454  1
  Ti  Ti25  1  0.00705732  0.00363628  0.64604083  1
  Ti  Ti26  1  0.00089234  0.00734676  0.14599987  1
  Ti  Ti27  1  0.67095248  0.32975136  0.98009812  1
  Ti  Ti28  1  0.67196815  0.32909954  0.48060242  1
  Ti  Ti29  1  0.34002152  0.66251843  0.01318395  1
  Ti  Ti30  1  0.32985452  0.65802361  0.51803134  1
  Ti  Ti31  1  0.33480308  0.66750194  0.31836493  1
  Ti  Ti32  1  0.32137937  0.66034800  0.81667899  1
  Si  Si33  1  0.00923592  0.71875236  0.75215713  1
  Si  Si34  1  0.97245654  0.33438181  0.58601026  1
  Si  Si35  1  0.66224578  0.02806729  0.08314238  1
  Si  Si36  1  0.36534670  0.33495795  0.08179811  1
  Si  Si37  1  0.62473493  0.66068297  0.91421852  1
  Si  Si38  1  0.03401970  0.37184080  0.91599519  1
  Si  Si39  1  0.61486376  0.96032849  0.42038138  1
  Si  Si40  1  0.34818548  0.38420143  0.41763954  1
  Si  Si41  1  0.03948738  0.65477774  0.41895342  1
  P  P42  1  0.29382061  0.99260982  0.25040778  1
  P  P43  1  0.69930740  0.70638825  0.25024249  1
  P  P44  1  0.00827949  0.30377990  0.25016494  1
  P  P45  1  0.27738510  0.28700421  0.75407596  1
  P  P46  1  0.71142627  0.98970123  0.75121825  1
  P  P47  1  0.36552900  0.03337754  0.58381209  1
  P  P48  1  0.66781809  0.63517049  0.58431672  1
  P  P49  1  0.97000474  0.63679108  0.08072721  1
  P  P50  1  0.33663385  0.95913118  0.91632368  1
  O  O51  1  0.21819982  0.00987920  0.30888744  1
  O  O52  1  0.79150834  0.78040074  0.30901774  1
  O  O53  1  0.98599965  0.20885287  0.30811568  1
  O  O54  1  0.18908271  0.18911050  0.81121833  1
  O  O55  1  0.00317710  0.83412781  0.80831688  1
  O  O56  1  0.82456703  0.00852125  0.80634646  1
  O  O57  1  0.80109515  0.97467427  0.69312046  1
  O  O58  1  0.16625640  0.19156517  0.69719742  1
  O  O59  1  0.02662932  0.83250876  0.69042430  1
  O  O60  1  0.80370173  0.82175440  0.19469245  1
  O  O61  1  0.01720601  0.19598950  0.19436245  1
  O  O62  1  0.17773296  0.98129597  0.19463771  1
  O  O63  1  0.91137557  0.38327345  0.64655099  1
  O  O64  1  0.46520865  0.09906122  0.64230036  1
  O  O65  1  0.63851215  0.54608202  0.64462352  1
  O  O66  1  0.91782061  0.53865425  0.14125807  1
  O  O67  1  0.61251811  0.07947864  0.14556325  1
  O  O68  1  0.47150897  0.39256195  0.14346131  1
  O  O69  1  0.46566039  0.29914137  0.02674340  1
  O  O70  1  0.83619563  0.53450408  0.03115839  1
  O  O71  1  0.69916312  0.17368773  0.03045535  1
  O  O72  1  0.46184438  0.14982547  0.52900265  1
  O  O73  1  0.69139888  0.53485502  0.53140050  1
  O  O74  1  0.83225904  0.30476252  0.52945269  1
  O  O75  1  0.52869649  0.68406258  0.97321014  1
  O  O76  1  0.16147037  0.47561051  0.97179533  1
  O  O77  1  0.31618117  0.85054125  0.97220267  1
  O  O78  1  0.51401340  0.84959465  0.47874506  1
  O  O79  1  0.33441993  0.49515618  0.47265209  1
  O  O80  1  0.15631251  0.67130166  0.47696996  1
  O  O81  1  0.13529267  0.63162947  0.35712277  1
  O  O82  1  0.49634886  0.86220209  0.35842610  1
  O  O83  1  0.36786371  0.50059663  0.35506757  1
  O  O84  1  0.12994207  0.49472492  0.85536324  1
  O  O85  1  0.35492170  0.86793950  0.85901491  1
  O  O86  1  0.49639355  0.63500931  0.85616659  1
  O  O87  1  0.01660047  0.81831134  0.42006054  1
  O  O88  1  0.80148884  0.98377231  0.42079364  1
  O  O89  1  0.18226893  0.20021125  0.41963298  1
  O  O90  1  0.02638100  0.18755469  0.91182985  1
  O  O91  1  0.18068088  0.98679326  0.91246472  1
  O  O92  1  0.81428558  0.83070393  0.90971832  1
  O  O93  1  0.97211400  0.15213708  0.58964257  1
  O  O94  1  0.18596868  0.01894835  0.58670101  1
  O  O95  1  0.83868078  0.81259473  0.58543602  1
  O  O96  1  0.97714525  0.81184480  0.08600694  1
  O  O97  1  0.83935488  0.01588826  0.08867489  1
  O  O98  1  0.17667507  0.15720535  0.08946581  1
  O  O99  1  0.68975158  0.14697141  0.75116462  1
  O  O100  1  0.45452121  0.30518628  0.75159752  1
  O  O101  1  0.84056415  0.53478916  0.75581676  1
  O  O102  1  0.67692606  0.52715109  0.24536832  1
  O  O103  1  0.85520235  0.33129096  0.24360393  1
  O  O104  1  0.47306760  0.14850965  0.24600778  1
  O  O105  1  0.63248378  0.48501997  0.92243838  1
  O  O106  1  0.84741936  0.35509021  0.92469834  1
  O  O107  1  0.49770346  0.13849897  0.92073335  1
  O  O108  1  0.62392747  0.14716864  0.42272330  1
  O  O109  1  0.52402448  0.37657034  0.42311141  1
  O  O110  1  0.85400615  0.47755205  0.42343988  1
  O  O111  1  0.32731654  0.49307298  0.07000061  1
  O  O112  1  0.14962844  0.66661215  0.06842189  1
  O  O113  1  0.50115762  0.83802203  0.06980449  1
  O  O114  1  0.33654061  0.84984916  0.57708739  1
  O  O115  1  0.52037276  0.67283044  0.57538110  1
  O  O116  1  0.16215065  0.49749206  0.57471425  1
  O  O117  1  0.29813803  0.82187582  0.24879927  1
  O  O118  1  0.52464029  0.70221276  0.24847138  1
  O  O119  1  0.17921994  0.47566794  0.24771287  1
  O  O120  1  0.29306538  0.46772129  0.75293475  1
  O  O121  1  0.18680322  0.70611556  0.75474593  1
  O  O122  1  0.53461644  0.82471838  0.75372960  1
