# generated using pymatgen
data_Na14Y4Al4Si7S5O48
_symmetry_space_group_name_H-M   'P 1'
_cell_length_a   18.24588305
_cell_length_b   9.09594540
_cell_length_c   22.50298762
_cell_angle_alpha   89.95083082
_cell_angle_beta   90.24748584
_cell_angle_gamma   120.00523159
_symmetry_Int_Tables_number   1
_chemical_formula_structural   Na14Y4Al4Si7S5O48
_chemical_formula_sum   'Na42 Y12 Al12 Si21 S15 O144'
_cell_volume   3234.11981346
_cell_formula_units_Z   3
loop_
 _symmetry_equiv_pos_site_id
 _symmetry_equiv_pos_as_xyz
  1  'x, y, z'
loop_
 _atom_site_type_symbol
 _atom_site_label
 _atom_site_symmetry_multiplicity
 _atom_site_fract_x
 _atom_site_fract_y
 _atom_site_fract_z
 _atom_site_occupancy
  Na  Na0  1  0.81231377  0.99060092  0.23953741  1
  Na  Na1  1  0.18610204  0.36596414  0.26120282  1
  Na  Na2  1  0.68890734  0.36573627  0.25586962  1
  Na  Na3  1  0.99491211  0.64260396  0.23881242  1
  Na  Na4  1  0.50618728  0.65629232  0.24631629  1
  Na  Na5  1  0.31347096  0.63888553  0.75226476  1
  Na  Na6  1  0.00488148  0.35275414  0.75098925  1
  Na  Na7  1  0.49714185  0.34853148  0.74600062  1
  Na  Na8  1  0.18486897  0.00673229  0.76171304  1
  Na  Na9  1  0.68793678  0.00752175  0.76431568  1
  Na  Na10  1  0.14116243  0.33433744  0.58350277  1
  Na  Na11  1  0.63785439  0.33352950  0.58532401  1
  Na  Na12  1  0.33647758  0.97236780  0.57870917  1
  Na  Na13  1  0.83794222  0.97740747  0.58094255  1
  Na  Na14  1  0.13489679  0.94082340  0.08684006  1
  Na  Na15  1  0.64945358  0.95507116  0.08601392  1
  Na  Na16  1  0.33755921  0.69835559  0.08107899  1
  Na  Na17  1  0.83711723  0.71847968  0.07823464  1
  Na  Na18  1  0.49009928  0.68765549  0.92514130  1
  Na  Na19  1  0.98838414  0.67727101  0.92684997  1
  Na  Na20  1  0.34080516  0.01250891  0.91357708  1
  Na  Na21  1  0.84253553  0.02258552  0.92133108  1
  Na  Na22  1  0.16802390  0.30114126  0.90693197  1
  Na  Na23  1  0.67593683  0.31743155  0.90869348  1
  Na  Na24  1  0.49065465  0.30002296  0.41930612  1
  Na  Na25  1  0.98787007  0.28955360  0.42083785  1
  Na  Na26  1  0.17134819  0.03052580  0.40191795  1
  Na  Na27  1  0.66922525  0.03536846  0.40342055  1
  Na  Na28  1  0.34384467  0.66883624  0.40731116  1
  Na  Na29  1  0.84109815  0.66973478  0.40899672  1
  Na  Na30  1  0.99698027  0.01070839  0.49249010  1
  Na  Na31  1  0.49845298  0.01411409  0.49198919  1
  Na  Na32  1  0.98771240  0.98389008  0.99904799  1
  Na  Na33  1  0.50084672  0.98663566  0.99426289  1
  Na  Na34  1  0.32623780  0.32625964  0.83454728  1
  Na  Na35  1  0.82341461  0.33171726  0.83943087  1
  Na  Na36  1  0.32507154  0.31765223  0.33540779  1
  Na  Na37  1  0.82625139  0.32645221  0.32900012  1
  Na  Na38  1  0.16497274  0.68242418  0.17221106  1
  Na  Na39  1  0.66499383  0.68148386  0.16552707  1
  Na  Na40  1  0.15560257  0.64637424  0.67269575  1
  Na  Na41  1  0.66770293  0.65078580  0.67415315  1
  Y  Y42  1  0.00016107  0.01367001  0.64998022  1
  Y  Y43  1  0.49391731  0.00351303  0.64840043  1
  Y  Y44  1  0.99070583  0.98913741  0.14555685  1
  Y  Y45  1  0.50146042  0.98618958  0.14937464  1
  Y  Y46  1  0.83593226  0.33645684  0.69243116  1
  Y  Y47  1  0.33557054  0.33332670  0.19192616  1
  Y  Y48  1  0.16021559  0.66678170  0.01370237  1
  Y  Y49  1  0.67208023  0.68841043  0.01628479  1
  Y  Y50  1  0.16763993  0.65990852  0.51278927  1
  Y  Y51  1  0.66148841  0.65437238  0.51318046  1
  Y  Y52  1  0.17804094  0.68407861  0.31804926  1
  Y  Y53  1  0.67955389  0.67157714  0.82030320  1
  Al  Al54  1  0.99681851  0.99330944  0.34870643  1
  Al  Al55  1  0.50357568  0.00610670  0.34792156  1
  Al  Al56  1  0.00335241  0.99986651  0.84902174  1
  Al  Al57  1  0.49804851  0.00702703  0.85118876  1
  Al  Al58  1  0.33379328  0.31986575  0.69150120  1
  Al  Al59  1  0.83303772  0.33446658  0.18439034  1
  Al  Al60  1  0.33155471  0.34752097  0.97597472  1
  Al  Al61  1  0.83207145  0.33579971  0.98507617  1
  Al  Al62  1  0.33288860  0.31942891  0.48070877  1
  Al  Al63  1  0.83245204  0.31718360  0.47534176  1
  Al  Al64  1  0.68851100  0.68776962  0.31745787  1
  Al  Al65  1  0.18568629  0.68525141  0.81866808  1
  Si  Si66  1  0.14038895  0.99708838  0.25225575  1
  Si  Si67  1  0.65147117  0.99339556  0.25444744  1
  Si  Si68  1  0.35575597  0.71226137  0.25297917  1
  Si  Si69  1  0.84993528  0.69717783  0.25347908  1
  Si  Si70  1  0.15326524  0.30934420  0.75141486  1
  Si  Si71  1  0.64175718  0.28773756  0.75291078  1
  Si  Si72  1  0.34881910  0.99780923  0.75334883  1
  Si  Si73  1  0.85578432  0.99780816  0.75284540  1
  Si  Si74  1  0.47105985  0.34290653  0.58553815  1
  Si  Si75  1  0.97820883  0.33983725  0.57871183  1
  Si  Si76  1  0.47671596  0.61611620  0.07855259  1
  Si  Si77  1  0.97284522  0.60307504  0.08534389  1
  Si  Si78  1  0.83578530  0.06617568  0.08258680  1
  Si  Si79  1  0.32055369  0.67231980  0.91537026  1
  Si  Si80  1  0.82910091  0.66783678  0.91998494  1
  Si  Si81  1  0.16654589  0.97170035  0.91382704  1
  Si  Si82  1  0.66443527  0.98690744  0.91560717  1
  Si  Si83  1  0.32830128  0.98383321  0.42135131  1
  Si  Si84  1  0.82062635  0.96887199  0.41614279  1
  Si  Si85  1  0.16688362  0.34469754  0.41805362  1
  Si  Si86  1  0.66681247  0.36154441  0.41480470  1
  S  S87  1  0.99610779  0.29002671  0.25402392  1
  S  S88  1  0.50723971  0.29901002  0.25714740  1
  S  S89  1  0.00751557  0.71491495  0.75648634  1
  S  S90  1  0.49423814  0.69712357  0.75100636  1
  S  S91  1  0.19584953  0.05577741  0.58471521  1
  S  S92  1  0.68889904  0.04747486  0.57797795  1
  S  S93  1  0.33371057  0.60637555  0.58315809  1
  S  S94  1  0.83458389  0.62184978  0.57746075  1
  S  S95  1  0.33442848  0.04735644  0.07716656  1
  S  S96  1  0.19068340  0.33189467  0.07766267  1
  S  S97  1  0.69447253  0.33621262  0.08433775  1
  S  S98  1  0.01837062  0.36303366  0.90898849  1
  S  S99  1  0.50998571  0.35724176  0.91682746  1
  S  S100  1  0.00904573  0.66200930  0.41696921  1
  S  S101  1  0.51395165  0.66847485  0.41295023  1
  O  O102  1  0.08636762  0.01285557  0.30813670  1
  O  O103  1  0.59949300  0.02539094  0.30782958  1
  O  O104  1  0.41718654  0.82762264  0.30794941  1
  O  O105  1  0.91329339  0.79648231  0.31003765  1
  O  O106  1  0.49831958  0.19326986  0.30948917  1
  O  O107  1  0.98653357  0.18331525  0.30698409  1
  O  O108  1  0.10386559  0.17219398  0.80461945  1
  O  O109  1  0.58506309  0.15968096  0.80658182  1
  O  O110  1  0.48220839  0.78013243  0.80370600  1
  O  O111  1  -0.00003328  0.80425814  0.80813774  1
  O  O112  1  0.41435051  0.02926249  0.80812279  1
  O  O113  1  0.92085376  0.00980026  0.80544251  1
  O  O114  1  0.37969248  0.94886318  0.69196497  1
  O  O115  1  0.88924566  0.97691442  0.68759514  1
  O  O116  1  0.09909609  0.24371449  0.68903128  1
  O  O117  1  0.59766750  0.21194514  0.68759042  1
  O  O118  1  0.01920429  0.81169710  0.70073689  1
  O  O119  1  0.50834955  0.79918884  0.69681400  1
  O  O120  1  0.39043952  0.80426130  0.18889239  1
  O  O121  1  0.88139843  0.81340760  0.19390844  1
  O  O122  1  0.01170396  0.21875031  0.19992047  1
  O  O123  1  0.51837908  0.22378884  0.20197893  1
  O  O124  1  0.09759643  0.99005942  0.18786016  1
  O  O125  1  0.59603097  0.94921043  0.19262798  1
  O  O126  1  0.42066306  0.34103350  0.64666987  1
  O  O127  1  0.93699800  0.34602816  0.64172300  1
  O  O128  1  0.24281714  0.14228158  0.63993862  1
  O  O129  1  0.73489994  0.12705607  0.63382054  1
  O  O130  1  0.32699139  0.51029771  0.63811133  1
  O  O131  1  0.82548288  0.52540866  0.63238129  1
  O  O132  1  0.43463218  0.52866095  0.14191097  1
  O  O133  1  0.92385252  0.50734644  0.14707467  1
  O  O134  1  0.32520414  0.12521595  0.13207437  1
  O  O135  1  0.82513562  0.15433972  0.14391175  1
  O  O136  1  0.23758207  0.34692057  0.13340666  1
  O  O137  1  0.74130862  0.34704304  0.14005109  1
  O  O138  1  0.23550684  0.31651286  0.02469898  1
  O  O139  1  0.73618311  0.32238614  0.03011063  1
  O  O140  1  0.41406093  0.50788073  0.02197040  1
  O  O141  1  0.92012237  0.50700542  0.02539973  1
  O  O142  1  0.33463919  0.14094640  0.02348984  1
  O  O143  1  0.83309251  0.15987802  0.02113341  1
  O  O144  1  0.23790711  0.15478724  0.53054627  1
  O  O145  1  0.73418507  0.15368421  0.52526193  1
  O  O146  1  0.33396899  0.51799951  0.52812662  1
  O  O147  1  0.83491570  0.52945416  0.52380874  1
  O  O148  1  0.41646175  0.33603807  0.52683468  1
  O  O149  1  0.91605133  0.32437929  0.52208366  1
  O  O150  1  0.28419419  0.71397279  0.97521043  1
  O  O151  1  0.79082861  0.71748509  0.97742972  1
  O  O152  1  0.07059845  0.43438579  0.96402686  1
  O  O153  1  0.56808461  0.43925771  0.96730921  1
  O  O154  1  0.14009778  0.85674981  0.97435658  1
  O  O155  1  0.63762535  0.85382334  0.97120930  1
  O  O156  1  0.29268123  0.86559183  0.48146013  1
  O  O157  1  0.78525314  0.85682544  0.47690258  1
  O  O158  1  0.14226872  0.42457316  0.47503692  1
  O  O159  1  0.63959052  0.41981454  0.47619916  1
  O  O160  1  0.06658209  0.69580096  0.46864759  1
  O  O161  1  0.56738981  0.70153519  0.46708926  1
  O  O162  1  0.04474139  0.62493024  0.36409375  1
  O  O163  1  0.55367112  0.63377245  0.36188906  1
  O  O164  1  0.25390899  0.89800573  0.37138921  1
  O  O165  1  0.75201807  0.87005992  0.36300930  1
  O  O166  1  0.19091626  0.47429045  0.36211770  1
  O  O167  1  0.68438847  0.50628826  0.36350137  1
  O  O168  1  0.06225191  0.47892625  0.85841771  1
  O  O169  1  0.54428960  0.46193822  0.86233237  1
  O  O170  1  0.18501551  0.86531027  0.86148824  1
  O  O171  1  0.68530580  0.90238963  0.85886884  1
  O  O172  1  0.25344973  0.63356398  0.86070855  1
  O  O173  1  0.75757925  0.60346624  0.86736883  1
  O  O174  1  0.00062641  0.81524710  0.41125654  1
  O  O175  1  0.50626505  0.82312875  0.40631048  1
  O  O176  1  0.41953977  0.99678912  0.40589485  1
  O  O177  1  0.91491426  0.99154315  0.40283441  1
  O  O178  1  0.08156330  0.15722517  0.40702276  1
  O  O179  1  0.58522606  0.17115037  0.40237992  1
  O  O180  1  0.01001064  0.19233001  0.90268056  1
  O  O181  1  0.50011936  0.18502449  0.91072018  1
  O  O182  1  0.08629872  0.00079619  0.90079512  1
  O  O183  1  0.57921346  0.00546274  0.90528427  1
  O  O184  1  0.41454398  0.83870582  0.90189772  1
  O  O185  1  0.92044588  0.84010311  0.90503051  1
  O  O186  1  0.47863821  0.16578290  0.58131660  1
  O  O187  1  0.98676734  0.16438270  0.57489496  1
  O  O188  1  0.11011355  0.03523703  0.58527777  1
  O  O189  1  0.60352160  0.02954151  0.57796345  1
  O  O190  1  0.40993863  0.77862747  0.58279073  1
  O  O191  1  0.91183977  0.79187390  0.57871629  1
  O  O192  1  0.48521792  0.80874066  0.07495182  1
  O  O193  1  0.98289475  0.79602578  0.08168477  1
  O  O194  1  0.41180920  0.03303279  0.07850643  1
  O  O195  1  0.91774967  0.03913200  0.07933047  1
  O  O196  1  0.10619206  0.17889423  0.07804731  1
  O  O197  1  0.60932144  0.18164002  0.08542378  1
  O  O198  1  0.34030674  0.17160630  0.74626320  1
  O  O199  1  0.85376040  0.17774299  0.75711563  1
  O  O200  1  0.24879412  0.32711846  0.74101936  1
  O  O201  1  0.73430920  0.30002440  0.75544274  1
  O  O202  1  0.41438584  0.52687420  0.74530625  1
  O  O203  1  0.93025250  0.54437529  0.75427939  1
  O  O204  1  0.35445316  0.52915042  0.25770567  1
  O  O205  1  0.84101351  0.50647639  0.24514217  1
  O  O206  1  0.42986236  0.31440371  0.25487242  1
  O  O207  1  0.91755816  0.30075861  0.24975661  1
  O  O208  1  0.23431929  0.16837907  0.25656876  1
  O  O209  1  0.74503974  0.16777192  0.24583932  1
  O  O210  1  0.32822974  0.49785565  0.92108740  1
  O  O211  1  0.83963007  0.49958103  0.92999496  1
  O  O212  1  0.42400181  0.33552978  0.92539229  1
  O  O213  1  0.93367000  0.34480211  0.91521664  1
  O  O214  1  0.25463979  0.16048397  0.92396616  1
  O  O215  1  0.74990016  0.17326822  0.92736268  1
  O  O216  1  0.34036612  0.17522387  0.42819855  1
  O  O217  1  0.82863026  0.15898652  0.42170488  1
  O  O218  1  0.25316740  0.33172172  0.43181087  1
  O  O219  1  0.75457722  0.34887746  0.42458267  1
  O  O220  1  0.42757523  0.51908190  0.42146824  1
  O  O221  1  0.92329416  0.51176980  0.42581806  1
  O  O222  1  0.18537252  0.48859319  0.07458224  1
  O  O223  1  0.68719478  0.49118434  0.08195389  1
  O  O224  1  0.07172722  0.63928493  0.08653195  1
  O  O225  1  0.57191901  0.64412395  0.07877128  1
  O  O226  1  0.25829759  0.87098362  0.07736257  1
  O  O227  1  0.75139065  0.87032707  0.08509986  1
  O  O228  1  0.19046632  0.88726984  0.58270599  1
  O  O229  1  0.68346184  0.87998782  0.57511860  1
  O  O230  1  0.25693884  0.62864476  0.58335114  1
  O  O231  1  0.75822618  0.64532745  0.57785841  1
  O  O232  1  0.07575016  0.50263085  0.57935262  1
  O  O233  1  0.56977720  0.50116034  0.58599788  1
  O  O234  1  0.14063491  0.81769805  0.25533280  1
  O  O235  1  0.65911240  0.82010311  0.26661993  1
  O  O236  1  0.25621377  0.66427821  0.25221938  1
  O  O237  1  0.75427709  0.67073333  0.26247511  1
  O  O238  1  0.06970699  0.46313367  0.26094588  1
  O  O239  1  0.58204797  0.47190930  0.26303575  1
  O  O240  1  0.16123392  0.49763157  0.76359904  1
  O  O241  1  0.64220705  0.46714539  0.75508151  1
  O  O242  1  0.08237525  0.69060509  0.76164510  1
  O  O243  1  0.56708733  0.66985115  0.75772467  1
  O  O244  1  0.25333037  0.83384115  0.76208893  1
  O  O245  1  0.75646945  0.84586413  0.75260974  1
