# generated using pymatgen
data_Na3AlSiGe(PO6)2
_symmetry_space_group_name_H-M   'P 1'
_cell_length_a   14.94180688
_cell_length_b   8.68320709
_cell_length_c   8.76326462
_cell_angle_alpha   90.00000000
_cell_angle_beta   125.20370906
_cell_angle_gamma   90.00000000
_symmetry_Int_Tables_number   1
_chemical_formula_structural   Na3AlSiGe(PO6)2
_chemical_formula_sum   'Na12 Al4 Si4 Ge4 P8 O48'
_cell_volume   929.02723081
_cell_formula_units_Z   4
loop_
 _symmetry_equiv_pos_site_id
 _symmetry_equiv_pos_as_xyz
  1  'x, y, z'
loop_
 _atom_site_type_symbol
 _atom_site_label
 _atom_site_symmetry_multiplicity
 _atom_site_fract_x
 _atom_site_fract_y
 _atom_site_fract_z
 _atom_site_occupancy
  Na  Na0  1  0.25095786  0.72652915  0.99657531  1
  Na  Na1  1  0.75095786  0.77347085  0.49657531  1
  Na  Na2  1  0.75095786  0.22652915  0.99657531  1
  Na  Na3  1  0.25095786  0.27347085  0.49657531  1
  Na  Na4  1  0.50391602  0.11583458  0.75869180  1
  Na  Na5  1  0.50391602  0.88416542  0.25869180  1
  Na  Na6  1  0.00391602  0.61583458  0.75869180  1
  Na  Na7  1  0.00391602  0.38416542  0.25869180  1
  Na  Na8  1  0.18787364  0.93571453  0.27532072  1
  Na  Na9  1  0.18787364  0.06428547  0.77532072  1
  Na  Na10  1  0.68787364  0.43571453  0.27532072  1
  Na  Na11  1  0.68787364  0.56428547  0.77532072  1
  Al  Al12  1  0.10588845  0.74182446  0.56483662  1
  Al  Al13  1  0.10588845  0.25817554  0.06483662  1
  Al  Al14  1  0.60588845  0.24182446  0.56483662  1
  Al  Al15  1  0.60588845  0.75817554  0.06483662  1
  Si  Si16  1  0.64541417  0.89357962  0.75111737  1
  Si  Si17  1  0.64541417  0.10642038  0.25111737  1
  Si  Si18  1  0.14541417  0.39357962  0.75111737  1
  Si  Si19  1  0.14541417  0.60642038  0.25111737  1
  Ge  Ge20  1  0.89733009  0.75863596  0.94142806  1
  Ge  Ge21  1  0.89733009  0.24136404  0.44142806  1
  Ge  Ge22  1  0.39733009  0.25863596  0.94142806  1
  Ge  Ge23  1  0.39733009  0.74136404  0.44142806  1
  P  P24  1  0.99801597  0.96336397  0.75564203  1
  P  P25  1  0.99801597  0.03663603  0.25564203  1
  P  P26  1  0.49801597  0.46336397  0.75564203  1
  P  P27  1  0.49801597  0.53663603  0.25564203  1
  P  P28  1  0.35604618  0.88955542  0.75765378  1
  P  P29  1  0.35604618  0.11044458  0.25765378  1
  P  P30  1  0.85604618  0.38955542  0.75765378  1
  P  P31  1  0.85604618  0.61044458  0.25765378  1
  O  O32  1  0.14661188  0.57927985  0.73259679  1
  O  O33  1  0.85092267  0.57087286  0.76450363  1
  O  O34  1  0.85092267  0.42912714  0.26450363  1
  O  O35  1  0.14661188  0.42072015  0.23259679  1
  O  O36  1  0.64661188  0.07927985  0.73259679  1
  O  O37  1  0.35092267  0.07087286  0.76450363  1
  O  O38  1  0.35092267  0.92912714  0.26450363  1
  O  O39  1  0.64661188  0.92072015  0.23259679  1
  O  O40  1  0.42468432  0.56075190  0.57507575  1
  O  O41  1  0.56694478  0.56123951  0.93204750  1
  O  O42  1  0.56694478  0.43876049  0.43204750  1
  O  O43  1  0.42468432  0.43924810  0.07507575  1
  O  O44  1  0.92468432  0.06075190  0.57507575  1
  O  O45  1  0.06694478  0.06123951  0.93204750  1
  O  O46  1  0.06694478  0.93876049  0.43204750  1
  O  O47  1  0.92468432  0.93924810  0.07507575  1
  O  O48  1  0.25219898  0.82816412  0.73503176  1
  O  O49  1  0.74994817  0.80637677  0.76847010  1
  O  O50  1  0.74994817  0.19362323  0.26847010  1
  O  O51  1  0.25219898  0.17183588  0.23503176  1
  O  O52  1  0.75219898  0.32816412  0.73503176  1
  O  O53  1  0.24994817  0.30637677  0.76847010  1
  O  O54  1  0.24994817  0.69362323  0.26847010  1
  O  O55  1  0.75219898  0.67183588  0.23503176  1
  O  O56  1  0.35799462  0.86536851  0.58175690  1
  O  O57  1  0.63605492  0.85215953  0.91903659  1
  O  O58  1  0.63605492  0.14784047  0.41903659  1
  O  O59  1  0.35799462  0.13463149  0.08175690  1
  O  O60  1  0.85799462  0.36536851  0.58175690  1
  O  O61  1  0.13605492  0.35215953  0.91903659  1
  O  O62  1  0.13605492  0.64784047  0.41903659  1
  O  O63  1  0.85799462  0.63463149  0.08175690  1
  O  O64  1  0.45651659  0.82317605  0.93584501  1
  O  O65  1  0.53919669  0.81077545  0.55641935  1
  O  O66  1  0.53919669  0.18922455  0.05641935  1
  O  O67  1  0.45651659  0.17682395  0.43584501  1
  O  O68  1  0.95651659  0.32317605  0.93584501  1
  O  O69  1  0.03919669  0.31077545  0.55641935  1
  O  O70  1  0.03919669  0.68922455  0.05641935  1
  O  O71  1  0.95651659  0.67682395  0.43584501  1
  O  O72  1  0.07807567  0.86050091  0.74087091  1
  O  O73  1  0.91540833  0.85385673  0.75708002  1
  O  O74  1  0.91540833  0.14614327  0.25708002  1
  O  O75  1  0.07807567  0.13949909  0.24087091  1
  O  O76  1  0.57807567  0.36050091  0.74087091  1
  O  O77  1  0.41540833  0.35385673  0.75708002  1
  O  O78  1  0.41540833  0.64614327  0.25708002  1
  O  O79  1  0.57807567  0.63949909  0.24087091  1
