# generated using pymatgen
data_Na2Ca2Hf2SiS5O24
_symmetry_space_group_name_H-M   'P 1'
_cell_length_a   9.02728307
_cell_length_b   9.02560915
_cell_length_c   23.77235270
_cell_angle_alpha   90.08275293
_cell_angle_beta   90.18906504
_cell_angle_gamma   119.89684593
_symmetry_Int_Tables_number   1
_chemical_formula_structural   Na2Ca2Hf2SiS5O24
_chemical_formula_sum   'Na6 Ca6 Hf6 Si3 S15 O72'
_cell_volume   1679.12005162
_cell_formula_units_Z   3
loop_
 _symmetry_equiv_pos_site_id
 _symmetry_equiv_pos_as_xyz
  1  'x, y, z'
loop_
 _atom_site_type_symbol
 _atom_site_label
 _atom_site_symmetry_multiplicity
 _atom_site_fract_x
 _atom_site_fract_y
 _atom_site_fract_z
 _atom_site_occupancy
  Na  Na0  1  0.00704378  0.00349727  0.49821195  1
  Na  Na1  1  0.99727858  0.98881948  0.99617505  1
  Na  Na2  1  0.66950653  0.30747289  0.81961723  1
  Na  Na3  1  0.64216240  0.31573804  0.34034838  1
  Na  Na4  1  0.30848967  0.67423773  0.16366771  1
  Na  Na5  1  0.34379822  0.67802647  0.66084245  1
  Ca  Ca6  1  0.01272992  0.00386889  0.34761797  1
  Ca  Ca7  1  0.99567718  0.00191563  0.85109259  1
  Ca  Ca8  1  0.66532471  0.32607883  0.68331365  1
  Ca  Ca9  1  0.66217097  0.33015428  0.48457674  1
  Ca  Ca10  1  0.32575044  0.66756761  0.02410641  1
  Ca  Ca11  1  0.33506226  0.66869356  0.51919163  1
  Hf  Hf12  1  0.98877595  0.99890736  0.65410463  1
  Hf  Hf13  1  0.00878363  0.98780575  0.14886825  1
  Hf  Hf14  1  0.67121111  0.33544875  0.18631271  1
  Hf  Hf15  1  0.67718939  0.34481970  0.98107411  1
  Hf  Hf16  1  0.33089253  0.67419800  0.31423737  1
  Hf  Hf17  1  0.34361614  0.67664315  0.81151820  1
  Si  Si18  1  0.30281645  0.99962883  0.24990460  1
  Si  Si19  1  0.70096282  0.00189578  0.75380765  1
  Si  Si20  1  0.95515803  0.62664415  0.08582034  1
  S  S21  1  0.70085032  0.70307106  0.24775467  1
  S  S22  1  0.00256433  0.29735537  0.24750034  1
  S  S23  1  0.29064875  0.30120382  0.75163672  1
  S  S24  1  0.00932179  0.70981559  0.75133308  1
  S  S25  1  0.97029359  0.32500576  0.58585553  1
  S  S26  1  0.35099914  0.02990911  0.58592908  1
  S  S27  1  0.67743553  0.64407400  0.58631736  1
  S  S28  1  0.67979228  0.05652507  0.08452256  1
  S  S29  1  0.37812577  0.32334284  0.08489182  1
  S  S30  1  0.61908760  0.65540061  0.91840090  1
  S  S31  1  0.03565458  0.37644029  0.91854479  1
  S  S32  1  0.34430612  0.96535493  0.91730368  1
  S  S33  1  0.62542418  0.95956274  0.41383596  1
  S  S34  1  0.33560471  0.37918230  0.41354494  1
  S  S35  1  0.03744510  0.66180033  0.41458524  1
  O  O36  1  0.23538349  0.04314428  0.30490012  1
  O  O37  1  0.80089271  0.76942569  0.29872388  1
  O  O38  1  0.96355702  0.19646476  0.29855490  1
  O  O39  1  0.22037269  0.20002883  0.80221091  1
  O  O40  1  0.99266752  0.78759792  0.80257352  1
  O  O41  1  0.80087913  0.01311243  0.80983408  1
  O  O42  1  0.80139823  0.97731673  0.69782178  1
  O  O43  1  0.18136446  0.21288001  0.70095882  1
  O  O44  1  0.03649590  0.82166428  0.70089936  1
  O  O45  1  0.78798842  0.81699793  0.19807244  1
  O  O46  1  0.02424010  0.20901566  0.19780397  1
  O  O47  1  0.17267891  0.96792149  0.19427686  1
  O  O48  1  0.88645517  0.34627134  0.63496951  1
  O  O49  1  0.45721455  0.11539396  0.63503196  1
  O  O50  1  0.65916324  0.54165635  0.63579961  1
  O  O51  1  0.84223568  0.51047324  0.13802884  1
  O  O52  1  0.65937410  0.14284378  0.13473860  1
  O  O53  1  0.47955466  0.33200911  0.13520590  1
  O  O54  1  0.45729041  0.29778188  0.03300697  1
  O  O55  1  0.83797031  0.52816104  0.02794777  1
  O  O56  1  0.69170769  0.15733117  0.03274599  1
  O  O57  1  0.42368350  0.12757454  0.53343606  1
  O  O58  1  0.70000763  0.56932199  0.53400641  1
  O  O59  1  0.87071244  0.29616527  0.53351509  1
  O  O60  1  0.53903675  0.67475430  0.96885887  1
  O  O61  1  0.13367527  0.46000644  0.96921359  1
  O  O62  1  0.32580250  0.86626066  0.96782783  1
  O  O63  1  0.54359604  0.86821272  0.46525408  1
  O  O64  1  0.33204265  0.46597598  0.46513002  1
  O  O65  1  0.13207246  0.67331947  0.46572439  1
  O  O66  1  0.14097396  0.65977620  0.36311868  1
  O  O67  1  0.51630055  0.85642908  0.36272196  1
  O  O68  1  0.33754624  0.48255929  0.36238112  1
  O  O69  1  0.11558954  0.47906273  0.86712876  1
  O  O70  1  0.36054153  0.87439003  0.86595339  1
  O  O71  1  0.51313658  0.63702254  0.86693910  1
  O  O72  1  0.01666096  0.81303530  0.41060239  1
  O  O73  1  0.79429040  0.97581397  0.40805685  1
  O  O74  1  0.18042521  0.20996983  0.41137134  1
  O  O75  1  0.00898765  0.20217092  0.91544250  1
  O  O76  1  0.19732706  0.99232508  0.91160729  1
  O  O77  1  0.79538798  0.79634518  0.91340520  1
  O  O78  1  0.98801382  0.16636120  0.59383081  1
  O  O79  1  0.17780397  0.01396988  0.59367217  1
  O  O80  1  0.83912135  0.81828386  0.59301717  1
  O  O81  1  0.96085615  0.81457108  0.09099646  1
  O  O82  1  0.84161127  0.05220667  0.09022794  1
  O  O83  1  0.20350615  0.16835559  0.09061727  1
  O  O84  1  0.66058566  0.15389174  0.74695392  1
  O  O85  1  0.46695336  0.34061982  0.74285463  1
  O  O86  1  0.86169849  0.53889664  0.74306896  1
  O  O87  1  0.67588352  0.52830332  0.23695726  1
  O  O88  1  0.85665910  0.32885746  0.23690832  1
  O  O89  1  0.49323727  0.15721586  0.23424942  1
  O  O90  1  0.62429447  0.48854195  0.92273332  1
  O  O91  1  0.85827900  0.36094397  0.92378247  1
  O  O92  1  0.50601221  0.13636392  0.92140780  1
  O  O93  1  0.63198900  0.12670442  0.41152454  1
  O  O94  1  0.49418661  0.36857453  0.41106305  1
  O  O95  1  0.87213958  0.50073209  0.41163803  1
  O  O96  1  0.36726554  0.47851055  0.08217366  1
  O  O97  1  0.14154419  0.64842304  0.08716814  1
  O  O98  1  0.53114886  0.88498150  0.08148984  1
  O  O99  1  0.32635489  0.85484919  0.58229456  1
  O  O100  1  0.53120592  0.67515436  0.58267065  1
  O  O101  1  0.14576295  0.47234216  0.58191859  1
  O  O102  1  0.31874836  0.82394093  0.25613469  1
  O  O103  1  0.52705330  0.68278046  0.25272152  1
  O  O104  1  0.15970227  0.46908610  0.25370403  1
  O  O105  1  0.29006823  0.46873229  0.75795967  1
  O  O106  1  0.16920355  0.69434177  0.75623934  1
  O  O107  1  0.51047517  0.81537431  0.75785474  1
