# generated using pymatgen
data_In4Bi2S9
_symmetry_space_group_name_H-M   'P 1'
_cell_length_a   3.94177848
_cell_length_b   11.25757483
_cell_length_c   16.46588021
_cell_angle_alpha   85.82314893
_cell_angle_beta   90.00000000
_cell_angle_gamma   90.00000000
_symmetry_Int_Tables_number   1
_chemical_formula_structural   In4Bi2S9
_chemical_formula_sum   'In8 Bi4 S18'
_cell_volume   728.73055796
_cell_formula_units_Z   2
loop_
 _symmetry_equiv_pos_site_id
 _symmetry_equiv_pos_as_xyz
  1  'x, y, z'
loop_
 _atom_site_type_symbol
 _atom_site_label
 _atom_site_symmetry_multiplicity
 _atom_site_fract_x
 _atom_site_fract_y
 _atom_site_fract_z
 _atom_site_occupancy
  In  In0  1  0.25000000  0.49158046  0.40518727  1
  In  In1  1  0.25000000  0.26111420  0.08157598  1
  In  In2  1  0.75000000  0.50841954  0.59481273  1
  In  In3  1  0.75000000  0.73888580  0.91842402  1
  In  In4  1  0.75000000  0.50102575  0.21495372  1
  In  In5  1  0.25000000  0.86242981  0.68232705  1
  In  In6  1  0.75000000  0.13757019  0.31767295  1
  In  In7  1  0.25000000  0.49897425  0.78504628  1
  Bi  Bi8  1  0.75000000  0.13427799  0.57438551  1
  Bi  Bi9  1  0.25000000  0.89050843  0.09795982  1
  Bi  Bi10  1  0.25000000  0.86572201  0.42561449  1
  Bi  Bi11  1  0.75000000  0.10949157  0.90204018  1
  S  S12  1  0.25000000  0.37500444  0.54590844  1
  S  S13  1  0.25000000  0.09614906  0.68379687  1
  S  S14  1  0.75000000  0.62499556  0.45409156  1
  S  S15  1  0.75000000  0.40801162  0.08545065  1
  S  S16  1  0.75000000  0.90077505  0.56598690  1
  S  S17  1  0.75000000  0.08702423  0.05895996  1
  S  S18  1  0.75000000  0.36211810  0.34489022  1
  S  S19  1  0.75000000  0.85112671  0.78007171  1
  S  S20  1  0.25000000  0.61474310  0.25787113  1
  S  S21  1  0.25000000  0.59198838  0.91454935  1
  S  S22  1  0.25000000  0.14887329  0.21992829  1
  S  S23  1  0.25000000  0.91297577  0.94104004  1
  S  S24  1  0.25000000  0.26869052  0.92283528  1
  S  S25  1  0.75000000  0.38525690  0.74212887  1
  S  S26  1  0.75000000  0.90385094  0.31620313  1
  S  S27  1  0.25000000  0.63788190  0.65510978  1
  S  S28  1  0.25000000  0.09922495  0.43401310  1
  S  S29  1  0.75000000  0.73130948  0.07716472  1
