# generated using pymatgen
data_MgVP2O7
_symmetry_space_group_name_H-M   'P 1'
_cell_length_a   5.48955119
_cell_length_b   5.48955947
_cell_length_c   4.64148334
_cell_angle_alpha   82.84575070
_cell_angle_beta   97.15403616
_cell_angle_gamma   75.83313840
_symmetry_Int_Tables_number   1
_chemical_formula_structural   MgVP2O7
_chemical_formula_sum   'Mg1 V1 P2 O7'
_cell_volume   132.80391375
_cell_formula_units_Z   1
loop_
 _symmetry_equiv_pos_site_id
 _symmetry_equiv_pos_as_xyz
  1  'x, y, z'
loop_
 _atom_site_type_symbol
 _atom_site_label
 _atom_site_symmetry_multiplicity
 _atom_site_fract_x
 _atom_site_fract_y
 _atom_site_fract_z
 _atom_site_occupancy
  Mg  Mg0  1  0.75396000  0.75396000  0.50000000  1
  V  V1  1  0.12564600  0.12565100  0.00000200  1
  P  P2  1  0.67418100  0.25210200  0.40164200  1
  P  P3  1  0.25210100  0.67418200  0.59835900  1
  O  O4  1  0.81184100  0.07715200  0.69168600  1
  O  O5  1  0.36645900  0.83868300  0.78568700  1
  O  O6  1  0.10647800  0.50032500  0.74298200  1
  O  O7  1  0.07715100  0.81184000  0.30831300  1
  O  O8  1  0.51506300  0.51506200  0.49999900  1
  O  O9  1  0.50032600  0.10647500  0.25701700  1
  O  O10  1  0.83868300  0.36645700  0.21431300  1
