# generated using pymatgen
data_Na2Mg4SiSn4S11O48
_symmetry_space_group_name_H-M   'P 1'
_cell_length_a   17.42608005
_cell_length_b   8.71821782
_cell_length_c   22.75447109
_cell_angle_alpha   90.10055332
_cell_angle_beta   89.97263367
_cell_angle_gamma   120.06699453
_symmetry_Int_Tables_number   1
_chemical_formula_structural   Na2Mg4SiSn4S11O48
_chemical_formula_sum   'Na6 Mg12 Si3 Sn12 S33 O144'
_cell_volume   2991.78583302
_cell_formula_units_Z   3
loop_
 _symmetry_equiv_pos_site_id
 _symmetry_equiv_pos_as_xyz
  1  'x, y, z'
loop_
 _atom_site_type_symbol
 _atom_site_label
 _atom_site_symmetry_multiplicity
 _atom_site_fract_x
 _atom_site_fract_y
 _atom_site_fract_z
 _atom_site_occupancy
  Na  Na0  1  0.99667737  0.97892595  0.49271580  1
  Na  Na1  1  0.49853179  0.01009790  0.99944464  1
  Na  Na2  1  0.33325824  0.32393313  0.83818398  1
  Na  Na3  1  0.84313053  0.34643598  0.83220546  1
  Na  Na4  1  0.33952885  0.32996643  0.32948452  1
  Na  Na5  1  0.84340720  0.34718060  0.34121099  1
  Mg  Mg6  1  0.99894926  0.99188735  0.35555535  1
  Mg  Mg7  1  0.00362589  0.00235743  0.85456903  1
  Mg  Mg8  1  0.33101934  0.33264262  0.68318401  1
  Mg  Mg9  1  0.83583032  0.33780086  0.68180726  1
  Mg  Mg10  1  0.33552345  0.32892166  0.18663370  1
  Mg  Mg11  1  0.83523584  0.33522203  0.18514664  1
  Mg  Mg12  1  0.33416606  0.32917893  0.97933957  1
  Mg  Mg13  1  0.83801937  0.33868333  0.98269616  1
  Mg  Mg14  1  0.33481184  0.33481028  0.48271242  1
  Mg  Mg15  1  0.83633604  0.33796083  0.48073186  1
  Mg  Mg16  1  0.66743320  0.66926710  0.52295202  1
  Mg  Mg17  1  0.16292119  0.66375537  0.81117346  1
  Si  Si18  1  0.49706118  0.29591972  0.25146646  1
  Si  Si19  1  0.51751895  0.37614432  0.91605087  1
  Si  Si20  1  0.01446234  0.66563087  0.41768625  1
  Sn  Sn21  1  0.50111623  0.00728268  0.35404918  1
  Sn  Sn22  1  0.49755531  0.00565723  0.85262917  1
  Sn  Sn23  1  0.99960459  0.99573724  0.65016366  1
  Sn  Sn24  1  0.50030570  0.00366364  0.64181082  1
  Sn  Sn25  1  0.00072360  0.00039742  0.14755537  1
  Sn  Sn26  1  0.50042354  0.00804854  0.15021358  1
  Sn  Sn27  1  0.16374925  0.66392011  0.01770746  1
  Sn  Sn28  1  0.66532713  0.65708949  0.02104434  1
  Sn  Sn29  1  0.16201029  0.66578526  0.52012154  1
  Sn  Sn30  1  0.16027706  0.66331096  0.31523219  1
  Sn  Sn31  1  0.66640526  0.65901501  0.31455252  1
  Sn  Sn32  1  0.66673310  0.66372114  0.81423523  1
  S  S33  1  0.14562718  0.00179397  0.25045757  1
  S  S34  1  0.64961960  0.00272649  0.25014714  1
  S  S35  1  0.35018060  0.70308362  0.25177084  1
  S  S36  1  0.85591153  0.70790803  0.25030769  1
  S  S37  1  0.99952823  0.28954004  0.25076465  1
  S  S38  1  0.14738920  0.29215727  0.75152692  1
  S  S39  1  0.64899485  0.29223437  0.74923766  1
  S  S40  1  0.99796303  0.70421814  0.75219263  1
  S  S41  1  0.49990343  0.71012568  0.74993369  1
  S  S42  1  0.35191429  0.99965271  0.74809860  1
  S  S43  1  0.85320857  0.00176813  0.75292916  1
  S  S44  1  0.47809938  0.33886409  0.58368858  1
  S  S45  1  0.97908059  0.32783278  0.58454197  1
  S  S46  1  0.18838782  0.04354631  0.58370245  1
  S  S47  1  0.69058262  0.04475115  0.58378406  1
  S  S48  1  0.33086343  0.62204068  0.58266358  1
  S  S49  1  0.83291602  0.62496155  0.58415117  1
  S  S50  1  0.47867881  0.62915583  0.08387244  1
  S  S51  1  0.97896985  0.62540935  0.08370380  1
  S  S52  1  0.33210793  0.03842157  0.08198417  1
  S  S53  1  0.83296965  0.04114394  0.08297745  1
  S  S54  1  0.18905818  0.33456463  0.08312430  1
  S  S55  1  0.68955620  0.33044841  0.08299740  1
  S  S56  1  0.31015656  0.66222405  0.91506593  1
  S  S57  1  0.81617383  0.66868903  0.91684092  1
  S  S58  1  0.01916313  0.37247162  0.91483686  1
  S  S59  1  0.16570165  0.95635386  0.91489247  1
  S  S60  1  0.66937616  0.96438025  0.91656814  1
  S  S61  1  0.31433606  0.96123427  0.41758941  1
  S  S62  1  0.80938342  0.95526552  0.41722869  1
  S  S63  1  0.16993966  0.37449070  0.41618491  1
  S  S64  1  0.66755014  0.37460819  0.41961493  1
  S  S65  1  0.51954074  0.66723371  0.41689034  1
  O  O66  1  0.10146203  0.02256452  0.30136326  1
  O  O67  1  0.60809380  0.03108584  0.30347026  1
  O  O68  1  0.40808500  0.78107754  0.30455664  1
  O  O69  1  0.91253439  0.79526475  0.30044129  1
  O  O70  1  0.47807576  0.16645286  0.30886022  1
  O  O71  1  0.98864956  0.18015182  0.30158068  1
  O  O72  1  0.10299154  0.17308364  0.80095882  1
  O  O73  1  0.60903277  0.18215193  0.80356190  1
  O  O74  1  0.48553493  0.79042091  0.80502478  1
  O  O75  1  0.98197447  0.79295317  0.80134058  1
  O  O76  1  0.41173005  0.04122278  0.80184482  1
  O  O77  1  0.90690580  0.02254814  0.80434131  1
  O  O78  1  0.39562518  0.96627743  0.69656405  1
  O  O79  1  0.88855483  0.96578355  0.69763634  1
  O  O80  1  0.09187188  0.21644347  0.69506881  1
  O  O81  1  0.59006441  0.20988986  0.69782338  1
  O  O82  1  0.01487594  0.81153680  0.69554306  1
  O  O83  1  0.51414505  0.82479448  0.69820048  1
  O  O84  1  0.39012923  0.81537259  0.19828163  1
  O  O85  1  0.89213899  0.81450202  0.19389457  1
  O  O86  1  0.01387933  0.21341053  0.19439748  1
  O  O87  1  0.52122457  0.21555976  0.19264276  1
  O  O88  1  0.09012221  0.96102143  0.19479315  1
  O  O89  1  0.59100198  0.96169671  0.19715119  1
  O  O90  1  0.43746303  0.35851080  0.63772539  1
  O  O91  1  0.94012353  0.35059204  0.63813327  1
  O  O92  1  0.23781577  0.12595386  0.63712229  1
  O  O93  1  0.73941478  0.12514880  0.63844931  1
  O  O94  1  0.31843231  0.52110701  0.63627940  1
  O  O95  1  0.82448173  0.52805983  0.63881295  1
  O  O96  1  0.43899823  0.52750825  0.13688247  1
  O  O97  1  0.93953165  0.52040988  0.13651935  1
  O  O98  1  0.32157848  0.11591964  0.13578497  1
  O  O99  1  0.81882850  0.11754171  0.13614660  1
  O  O100  1  0.24082223  0.36136159  0.13632791  1
  O  O101  1  0.73806162  0.34459641  0.13650329  1
  O  O102  1  0.22787419  0.30717035  0.03019284  1
  O  O103  1  0.72963205  0.31147985  0.02920343  1
  O  O104  1  0.42777107  0.55445671  0.03016854  1
  O  O105  1  0.92712816  0.54891561  0.03048455  1
  O  O106  1  0.34628638  0.14357166  0.02920827  1
  O  O107  1  0.84591838  0.14521164  0.02998845  1
  O  O108  1  0.22666025  0.14573021  0.53005402  1
  O  O109  1  0.72998844  0.15807529  0.53253106  1
  O  O110  1  0.34441367  0.54400236  0.52984473  1
  O  O111  1  0.85089567  0.54747167  0.53271983  1
  O  O112  1  0.42150447  0.30289300  0.53186989  1
  O  O113  1  0.92812238  0.30205066  0.53113541  1
  O  O114  1  0.27603555  0.70369944  0.97055422  1
  O  O115  1  0.77535259  0.70506038  0.96960969  1
  O  O116  1  0.07321952  0.44569569  0.97188723  1
  O  O117  1  0.58165922  0.45680252  0.97420142  1
  O  O118  1  0.14982603  0.84893164  0.97204217  1
  O  O119  1  0.65399088  0.85213981  0.96929644  1
  O  O120  1  0.27373061  0.84882496  0.47006477  1
  O  O121  1  0.76567679  0.83717151  0.46679213  1
  O  O122  1  0.15732049  0.45817572  0.47024398  1
  O  O123  1  0.65306467  0.46320592  0.46856609  1
  O  O124  1  0.08177259  0.70827171  0.47513342  1
  O  O125  1  0.57534598  0.69711213  0.46773388  1
  O  O126  1  0.05709013  0.62051660  0.35823147  1
  O  O127  1  0.55722314  0.63950711  0.36103986  1
  O  O128  1  0.26171851  0.88195721  0.36279901  1
  O  O129  1  0.75512747  0.87779777  0.35983014  1
  O  O130  1  0.19133160  0.49426900  0.36320976  1
  O  O131  1  0.68296309  0.47552479  0.36249767  1
  O  O132  1  0.06383867  0.49264396  0.86586820  1
  O  O133  1  0.56229919  0.49294866  0.85612554  1
  O  O134  1  0.18267032  0.86869033  0.86581519  1
  O  O135  1  0.68562399  0.88851070  0.86227493  1
  O  O136  1  0.25934567  0.64916628  0.86326538  1
  O  O137  1  0.75662731  0.62932570  0.86355152  1
  O  O138  1  0.01296207  0.84719883  0.41250457  1
  O  O139  1  0.51206169  0.83208459  0.40906057  1
  O  O140  1  0.40147450  0.96896604  0.41301674  1
  O  O141  1  0.89764227  0.97691887  0.40832231  1
  O  O142  1  0.08790929  0.20758414  0.40779611  1
  O  O143  1  0.58423723  0.19608572  0.41331211  1
  O  O144  1  0.01027390  0.19879895  0.90764267  1
  O  O145  1  0.51479974  0.18190348  0.91208732  1
  O  O146  1  0.08576232  0.96758526  0.90817674  1
  O  O147  1  0.58501139  0.96839873  0.91009802  1
  O  O148  1  0.40361300  0.82332386  0.91170502  1
  O  O149  1  0.90109967  0.82476595  0.90760053  1
  O  O150  1  0.48551846  0.17046168  0.58866094  1
  O  O151  1  0.98973416  0.16473366  0.58935486  1
  O  O152  1  0.09538056  0.01688496  0.58788252  1
  O  O153  1  0.59712987  0.02592414  0.58870376  1
  O  O154  1  0.41164987  0.80522426  0.58820527  1
  O  O155  1  0.91757731  0.81274771  0.58871902  1
  O  O156  1  0.49005923  0.81566178  0.08937827  1
  O  O157  1  0.99065826  0.80820649  0.08945074  1
  O  O158  1  0.41228301  0.01117797  0.08591774  1
  O  O159  1  0.91209807  0.01620787  0.08907854  1
  O  O160  1  0.09647817  0.17507357  0.08918007  1
  O  O161  1  0.59688928  0.16773516  0.08501180  1
  O  O162  1  0.34628188  0.16033206  0.74077257  1
  O  O163  1  0.84102732  0.15553382  0.74549489  1
  O  O164  1  0.23520684  0.30739376  0.74298641  1
  O  O165  1  0.73581955  0.30962265  0.74296692  1
  O  O166  1  0.42243618  0.53459766  0.74408843  1
  O  O167  1  0.91775701  0.52765368  0.74406365  1
  O  O168  1  0.33671612  0.52638607  0.24347207  1
  O  O169  1  0.84466794  0.53073670  0.24201213  1
  O  O170  1  0.41143126  0.31537088  0.24579744  1
  O  O171  1  0.92209629  0.31228472  0.24317390  1
  O  O172  1  0.23152248  0.16167163  0.24162840  1
  O  O173  1  0.73557221  0.16293368  0.24230655  1
  O  O174  1  0.31714941  0.50432580  0.92309499  1
  O  O175  1  0.82083572  0.50612866  0.92463243  1
  O  O176  1  0.42185317  0.35469072  0.92076805  1
  O  O177  1  0.93142373  0.35888419  0.92328768  1
  O  O178  1  0.24431237  0.13254706  0.92358572  1
  O  O179  1  0.74507621  0.14214265  0.92341529  1
  O  O180  1  0.32486331  0.13757549  0.42371825  1
  O  O181  1  0.81325679  0.12619327  0.42257506  1
  O  O182  1  0.24774663  0.35261203  0.42307361  1
  O  O183  1  0.74314330  0.34750323  0.42504690  1
  O  O184  1  0.42967726  0.51212370  0.42202244  1
  O  O185  1  0.92145689  0.48593286  0.42260233  1
  O  O186  1  0.17700258  0.49446265  0.07656039  1
  O  O187  1  0.67973149  0.49255305  0.08071543  1
  O  O188  1  0.07041084  0.64872918  0.07806647  1
  O  O189  1  0.57144536  0.65919529  0.07855121  1
  O  O190  1  0.25245100  0.85573289  0.07620786  1
  O  O191  1  0.75226206  0.85708459  0.07653881  1
  O  O192  1  0.18067397  0.86424521  0.58042256  1
  O  O193  1  0.67647888  0.86663764  0.57622874  1
  O  O194  1  0.25214265  0.64810574  0.57633397  1
  O  O195  1  0.75747734  0.65153323  0.57662492  1
  O  O196  1  0.07159313  0.48394448  0.58029736  1
  O  O197  1  0.56688075  0.48904864  0.57580867  1
  O  O198  1  0.15819122  0.84404335  0.25471982  1
  O  O199  1  0.65894357  0.84534138  0.25732643  1
  O  O200  1  0.26401554  0.69843230  0.25947215  1
  O  O201  1  0.76812305  0.69646780  0.25583892  1
  O  O202  1  0.08339774  0.46643225  0.25328446  1
  O  O203  1  0.58903723  0.48443515  0.25848420  1
  O  O204  1  0.15576254  0.46604149  0.75876850  1
  O  O205  1  0.65579598  0.46851339  0.75519285  1
  O  O206  1  0.07697746  0.68912363  0.75896076  1
  O  O207  1  0.58349599  0.70519009  0.75564457  1
  O  O208  1  0.26772103  0.84103087  0.75761738  1
  O  O209  1  0.76187105  0.83557079  0.75761338  1
