# generated using pymatgen
data_BaMgTiO3
_symmetry_space_group_name_H-M   'P 1'
_cell_length_a   4.98649560
_cell_length_b   4.98649539
_cell_length_c   4.98649500
_cell_angle_alpha   76.45408944
_cell_angle_beta   76.45409096
_cell_angle_gamma   76.45409643
_symmetry_Int_Tables_number   1
_chemical_formula_structural   BaMgTiO3
_chemical_formula_sum   'Ba1 Mg1 Ti1 O3'
_cell_volume   115.05809550
_cell_formula_units_Z   1
loop_
 _symmetry_equiv_pos_site_id
 _symmetry_equiv_pos_as_xyz
  1  'x, y, z'
loop_
 _atom_site_type_symbol
 _atom_site_label
 _atom_site_symmetry_multiplicity
 _atom_site_fract_x
 _atom_site_fract_y
 _atom_site_fract_z
 _atom_site_occupancy
  Ba  Ba0  1  0.97069995  0.97069995  0.97069995  1
  Mg  Mg1  1  0.66133406  0.66133406  0.66133406  1
  Ti  Ti2  1  0.40335403  0.40335403  0.40335403  1
  O  O3  1  0.07062045  0.58291225  0.58291226  1
  O  O4  1  0.58291225  0.07062045  0.58291226  1
  O  O5  1  0.58291225  0.58291225  0.07062045  1
