# generated using pymatgen
data_Na5Sc2Ga2P5SO24
_symmetry_space_group_name_H-M   'P 1'
_cell_length_a   8.81775163
_cell_length_b   8.81310692
_cell_length_c   22.40408265
_cell_angle_alpha   90.27033859
_cell_angle_beta   89.84995966
_cell_angle_gamma   119.89272660
_symmetry_Int_Tables_number   1
_chemical_formula_structural   Na5Sc2Ga2P5SO24
_chemical_formula_sum   'Na15 Sc6 Ga6 P15 S3 O72'
_cell_volume   1509.41368797
_cell_formula_units_Z   3
loop_
 _symmetry_equiv_pos_site_id
 _symmetry_equiv_pos_as_xyz
  1  'x, y, z'
loop_
 _atom_site_type_symbol
 _atom_site_label
 _atom_site_symmetry_multiplicity
 _atom_site_fract_x
 _atom_site_fract_y
 _atom_site_fract_z
 _atom_site_occupancy
  Na  Na0  1  0.63827520  0.00051216  0.25026639  1
  Na  Na1  1  0.99832824  0.36246693  0.74996087  1
  Na  Na2  1  0.36422222  -0.00013958  0.75030423  1
  Na  Na3  1  0.03095638  0.69908328  0.58261638  1
  Na  Na4  1  0.66654304  0.96820778  0.58318542  1
  Na  Na5  1  0.30157222  0.96994525  0.08283728  1
  Na  Na6  1  0.03258255  0.33431370  0.08382796  1
  Na  Na7  1  0.97217363  0.66662416  0.91699153  1
  Na  Na8  1  0.70173941  0.66839918  0.41667207  1
  Na  Na9  1  0.00965497  0.00946585  0.49831637  1
  Na  Na10  1  0.99832667  0.00408858  0.00048571  1
  Na  Na11  1  0.66069284  0.32933919  0.83397590  1
  Na  Na12  1  0.67394741  0.33624566  0.33318448  1
  Na  Na13  1  0.33474594  0.65733035  0.16765002  1
  Na  Na14  1  0.33939988  0.65932865  0.66645391  1
  Sc  Sc15  1  0.00561115  0.01061234  0.85265138  1
  Sc  Sc16  1  0.00411954  0.00494249  0.64771286  1
  Sc  Sc17  1  0.66498704  0.33924630  0.68424929  1
  Sc  Sc18  1  0.66183730  0.32361965  0.98344659  1
  Sc  Sc19  1  0.33184259  0.66751647  0.51619569  1
  Sc  Sc20  1  0.33572684  0.66818598  0.81525321  1
  Ga  Ga21  1  0.98707042  0.99378842  0.34912417  1
  Ga  Ga22  1  0.98738374  0.99724284  0.15020724  1
  Ga  Ga23  1  0.67694893  0.35207984  0.18268251  1
  Ga  Ga24  1  0.67403593  0.32628435  0.48286188  1
  Ga  Ga25  1  0.33185786  0.66455743  0.01860715  1
  Ga  Ga26  1  0.32380877  0.65809585  0.31639252  1
  P  P27  1  0.70737613  0.70534074  0.25032239  1
  P  P28  1  0.00312061  0.29257454  0.25009862  1
  P  P29  1  0.29448438  0.29450311  0.75015464  1
  P  P30  1  0.99723788  0.70647917  0.75075840  1
  P  P31  1  0.70653964  0.99780024  0.74938406  1
  P  P32  1  0.95861835  0.33383945  0.58246637  1
  P  P33  1  0.37817788  0.04749708  0.58123154  1
  P  P34  1  0.66314406  0.62023758  0.58053642  1
  P  P35  1  0.95862286  0.63018078  0.08389199  1
  P  P36  1  0.66533441  0.03727291  0.08569675  1
  P  P37  1  0.37560300  0.33562737  0.08552622  1
  P  P38  1  0.04397768  0.37641437  0.91860856  1
  P  P39  1  0.33541124  0.95797366  0.91830586  1
  P  P40  1  0.62618363  0.96351690  0.41451344  1
  P  P41  1  0.04001958  0.66828963  0.41481828  1
  S  S42  1  0.28907224  0.00076004  0.25015341  1
  S  S43  1  0.62219023  0.66640432  0.91844495  1
  S  S44  1  0.33024457  0.36922655  0.41498208  1
  O  O45  1  0.20737169  0.02939654  0.30351392  1
  O  O46  1  0.81964045  0.78551663  0.30735405  1
  O  O47  1  0.96586526  0.16992613  0.30449885  1
  O  O48  1  0.21120935  0.17701962  0.80485504  1
  O  O49  1  0.97165269  0.78997518  0.80715223  1
  O  O50  1  0.82478316  0.03229717  0.80371863  1
  O  O51  1  0.78692078  0.97081215  0.69224921  1
  O  O52  1  0.17713627  0.21187250  0.69530936  1
  O  O53  1  0.03250944  0.82005791  0.69466110  1
  O  O54  1  0.79145922  0.82853738  0.19612265  1
  O  O55  1  0.03376404  0.21150476  0.19250426  1
  O  O56  1  0.18303237  0.97056393  0.19509794  1
  O  O57  1  0.88087695  0.36752404  0.63946926  1
  O  O58  1  0.48766980  0.12031831  0.63874047  1
  O  O59  1  0.63707951  0.51173965  0.63647652  1
  O  O60  1  0.87804101  0.50617563  0.13758115  1
  O  O61  1  0.62811663  0.11946508  0.14155903  1
  O  O62  1  0.49103969  0.36461294  0.14044378  1
  O  O63  1  0.45336486  0.29660211  0.02986004  1
  O  O64  1  0.85057058  0.55183456  0.02684070  1
  O  O65  1  0.70373131  0.15648192  0.03095427  1
  O  O66  1  0.46597856  0.16246256  0.52683715  1
  O  O67  1  0.69855949  0.53872633  0.52438939  1
  O  O68  1  0.83856087  0.29810939  0.52822453  1
  O  O69  1  0.54179431  0.69515504  0.97174312  1
  O  O70  1  0.15784204  0.46241706  0.97475159  1
  O  O71  1  0.30233215  0.83977874  0.97397159  1
  O  O72  1  0.54920124  0.84627366  0.47062446  1
  O  O73  1  0.30108012  0.44870989  0.46905099  1
  O  O74  1  0.14772189  0.69752313  0.47235409  1
  O  O75  1  0.12784098  0.63507797  0.36082531  1
  O  O76  1  0.51165208  0.87450143  0.35859952  1
  O  O77  1  0.36736587  0.48633493  0.36246920  1
  O  O78  1  0.12455262  0.48827010  0.86198391  1
  O  O79  1  0.36169209  0.87581837  0.86118049  1
  O  O80  1  0.51774389  0.63892613  0.86431769  1
  O  O81  1  0.01857184  0.83373297  0.40748493  1
  O  O82  1  0.80967950  0.97541833  0.40830936  1
  O  O83  1  0.17366307  0.19477243  0.40752666  1
  O  O84  1  0.02284071  0.19368914  0.91345220  1
  O  O85  1  0.16407502  0.96603076  0.91335962  1
  O  O86  1  0.79998718  0.82202398  0.91291416  1
  O  O87  1  0.97060361  0.16617473  0.58738684  1
  O  O88  1  0.19141610  0.01831182  0.58676512  1
  O  O89  1  0.83015375  0.80416028  0.58653974  1
  O  O90  1  0.98653606  0.81723370  0.09295803  1
  O  O91  1  0.83495807  0.02547563  0.09175653  1
  O  O92  1  0.18925541  0.16770213  0.09234341  1
  O  O93  1  0.68800286  0.16378716  0.74472275  1
  O  O94  1  0.47331753  0.30604933  0.74476389  1
  O  O95  1  0.83960768  0.52070603  0.74557079  1
  O  O96  1  0.68861007  0.52234935  0.24246995  1
  O  O97  1  0.83080190  0.30245662  0.24291101  1
  O  O98  1  0.46818353  0.15617147  0.24433258  1
  O  O99  1  0.64530999  0.51103052  0.92325562  1
  O  O100  1  0.86393114  0.36669716  0.92355561  1
  O  O101  1  0.49628960  0.14056340  0.92311812  1
  O  O102  1  0.64331029  0.14538375  0.42261697  1
  O  O103  1  0.49284391  0.35871039  0.42176462  1
  O  O104  1  0.85176155  0.50589364  0.42205888  1
  O  O105  1  0.34961711  0.49668916  0.07725963  1
  O  O106  1  0.14439551  0.64673414  0.07773065  1
  O  O107  1  0.49764428  0.85673368  0.07644241  1
  O  O108  1  0.35886768  0.86137484  0.57609175  1
  O  O109  1  0.50495509  0.64875407  0.57586486  1
  O  O110  1  0.13848759  0.50000550  0.57606457  1
  O  O111  1  0.31178293  0.84310107  0.25599902  1
  O  O112  1  0.52546317  0.69563363  0.25798608  1
  O  O113  1  0.16697873  0.47631333  0.25809092  1
  O  O114  1  0.30746954  0.47394423  0.75641665  1
  O  O115  1  0.16430800  0.68860997  0.75534110  1
  O  O116  1  0.52145165  0.83860724  0.75514851  1
