# generated using pymatgen
data_Na4YTiSi2PO12
_symmetry_space_group_name_H-M   'P 1'
_cell_length_a   9.28483650
_cell_length_b   9.28483616
_cell_length_c   22.49333425
_cell_angle_alpha   90.66895265
_cell_angle_beta   89.33104735
_cell_angle_gamma   120.03264776
_symmetry_Int_Tables_number   1
_chemical_formula_structural   Na4YTiSi2PO12
_chemical_formula_sum   'Na24 Y6 Ti6 Si12 P6 O72'
_cell_volume   1678.61287329
_cell_formula_units_Z   6
loop_
 _symmetry_equiv_pos_site_id
 _symmetry_equiv_pos_as_xyz
  1  'x, y, z'
loop_
 _atom_site_type_symbol
 _atom_site_label
 _atom_site_symmetry_multiplicity
 _atom_site_fract_x
 _atom_site_fract_y
 _atom_site_fract_z
 _atom_site_occupancy
  Na  Na0  1  0.64004504  0.00491259  0.25120979  1
  Na  Na1  1  0.36992248  0.37217049  0.24667816  1
  Na  Na2  1  0.99200413  0.62726549  0.24887070  1
  Na  Na3  1  0.62782951  0.63007752  0.74667816  1
  Na  Na4  1  0.99508741  0.35995496  0.75120979  1
  Na  Na5  1  0.37273451  0.00799587  0.74887070  1
  Na  Na6  1  0.30671204  0.33824559  0.58454279  1
  Na  Na7  1  0.03658948  0.70550349  0.58001116  1
  Na  Na8  1  0.65867113  0.96059849  0.58220370  1
  Na  Na9  1  0.29449651  0.96341052  0.08001116  1
  Na  Na10  1  0.66175441  0.69328796  0.08454279  1
  Na  Na11  1  0.03940151  0.34132887  0.08220370  1
  Na  Na12  1  0.97337804  0.67157959  0.91787679  1
  Na  Na13  1  0.70325548  0.03883749  0.91334516  1
  Na  Na14  1  0.32533713  0.29393249  0.91553770  1
  Na  Na15  1  0.96116251  0.29674452  0.41334516  1
  Na  Na16  1  0.32842041  0.02662196  0.41787679  1
  Na  Na17  1  0.70606751  0.67466287  0.41553770  1
  Na  Na18  1  0.99386066  0.99150276  0.50144497  1
  Na  Na19  1  0.00849724  0.00613934  0.00144497  1
  Na  Na20  1  0.66052766  0.32483576  0.83477797  1
  Na  Na21  1  0.67516424  0.33947234  0.33477797  1
  Na  Na22  1  0.32719366  0.65816976  0.16811197  1
  Na  Na23  1  0.34183024  0.67280634  0.66811197  1
  Y  Y24  1  0.99681612  0.99801178  0.34922286  1
  Y  Y25  1  0.00198822  0.00318388  0.84922286  1
  Y  Y26  1  0.66348312  0.33134478  0.68255586  1
  Y  Y27  1  0.66865522  0.33651688  0.18255586  1
  Y  Y28  1  0.33014912  0.66467878  0.01588986  1
  Y  Y29  1  0.33532122  0.66985088  0.51588986  1
  Ti  Ti30  1  0.99895984  0.00032965  0.64995844  1
  Ti  Ti31  1  0.99967035  0.00104016  0.14995844  1
  Ti  Ti32  1  0.66562684  0.33366265  0.98329144  1
  Ti  Ti33  1  0.66633735  0.33437316  0.48329144  1
  Ti  Ti34  1  0.33229284  0.66699665  0.31662544  1
  Ti  Ti35  1  0.33300335  0.66770716  0.81662544  1
  Si  Si36  1  0.69650232  0.70682957  0.25031548  1
  Si  Si37  1  0.00918682  0.30275308  0.25090675  1
  Si  Si38  1  0.29317043  0.30349768  0.75031548  1
  Si  Si39  1  0.69724692  0.99081318  0.75090675  1
  Si  Si40  1  0.36316932  0.04016257  0.58364848  1
  Si  Si41  1  0.67585382  0.63608608  0.58423975  1
  Si  Si42  1  0.95983743  0.63683068  0.08364848  1
  Si  Si43  1  0.36391392  0.32414618  0.08423975  1
  Si  Si44  1  0.02983532  0.37349657  0.91698248  1
  Si  Si45  1  0.34251982  0.96942008  0.91757375  1
  Si  Si46  1  0.62650343  0.97016468  0.41698248  1
  Si  Si47  1  0.03057992  0.65748018  0.41757375  1
  P  P48  1  0.29008367  0.98852672  0.24875550  1
  P  P49  1  0.01147328  0.70991633  0.74875550  1
  P  P50  1  0.95675067  0.32185972  0.58208850  1
  P  P51  1  0.67814028  0.04324933  0.08208850  1
  P  P52  1  0.62341667  0.65519372  0.91542250  1
  P  P53  1  0.34480628  0.37658333  0.41542250  1
  O  O54  1  0.22302156  0.02250545  0.30623222  1
  O  O55  1  0.80620624  0.77712889  0.30944539  1
  O  O56  1  0.97991030  0.19829670  0.31041376  1
  O  O57  1  0.22287111  0.19379376  0.80944539  1
  O  O58  1  0.97749455  0.77697844  0.80623222  1
  O  O59  1  0.80170330  0.02008970  0.81041376  1
  O  O60  1  0.80741562  0.97052682  0.69304048  1
  O  O61  1  0.16307579  0.19211184  0.69338421  1
  O  O62  1  0.02910957  0.82650636  0.69479805  1
  O  O63  1  0.80788816  0.83692421  0.19338421  1
  O  O64  1  0.02947318  0.19258438  0.19304048  1
  O  O65  1  0.17349364  0.97089043  0.19479805  1
  O  O66  1  0.88968856  0.35583845  0.63956522  1
  O  O67  1  0.47287324  0.11046189  0.64277839  1
  O  O68  1  0.64657730  0.53162970  0.64374676  1
  O  O69  1  0.88953811  0.52712676  0.14277839  1
  O  O70  1  0.64416155  0.11031144  0.13956522  1
  O  O71  1  0.46837030  0.35342270  0.14374676  1
  O  O72  1  0.47408262  0.30385982  0.02637348  1
  O  O73  1  0.82974279  0.52544484  0.02671721  1
  O  O74  1  0.69577657  0.15983936  0.02813105  1
  O  O75  1  0.47455516  0.17025721  0.52671721  1
  O  O76  1  0.69614018  0.52591738  0.52637348  1
  O  O77  1  0.84016064  0.30422343  0.52813105  1
  O  O78  1  0.55635456  0.68917245  0.97289922  1
  O  O79  1  0.13953924  0.44379589  0.97611239  1
  O  O80  1  0.31324330  0.86496370  0.97708076  1
  O  O81  1  0.55620411  0.86046076  0.47611239  1
  O  O82  1  0.31082755  0.44364544  0.47289922  1
  O  O83  1  0.13503630  0.68675670  0.47708076  1
  O  O84  1  0.14074862  0.63719382  0.35970748  1
  O  O85  1  0.49640879  0.85877884  0.36005121  1
  O  O86  1  0.36244257  0.49317336  0.36146505  1
  O  O87  1  0.14122116  0.50359121  0.86005121  1
  O  O88  1  0.36280618  0.85925138  0.85970748  1
  O  O89  1  0.50682664  0.63755743  0.86146505  1
  O  O90  1  0.00931504  0.82063619  0.41299426  1
  O  O91  1  0.81552823  0.00317030  0.41231707  1
  O  O92  1  0.19792039  0.19807186  0.40892748  1
  O  O93  1  0.99682970  0.18447177  0.91231707  1
  O  O94  1  0.17936381  0.99068496  0.91299426  1
  O  O95  1  0.80192814  0.80207961  0.90892748  1
  O  O96  1  0.95974393  0.15499926  0.58518017  1
  O  O97  1  0.18274130  0.03768593  0.58815876  1
  O  O98  1  0.85136933  0.81879661  0.58774549  1
  O  O99  1  0.96231407  0.81725870  0.08815876  1
  O  O100  1  0.84500074  0.04025607  0.08518017  1
  O  O101  1  0.18120339  0.14863067  0.08774549  1
  O  O102  1  0.67598204  0.15396919  0.74632726  1
  O  O103  1  0.48219523  0.33650330  0.74565007  1
  O  O104  1  0.86458739  0.53140486  0.74226048  1
  O  O105  1  0.66349670  0.51780477  0.24565007  1
  O  O106  1  0.84603081  0.32401796  0.24632726  1
  O  O107  1  0.46859514  0.13541261  0.24226048  1
  O  O108  1  0.62641093  0.48833226  0.91851317  1
  O  O109  1  0.84940830  0.37101893  0.92149176  1
  O  O110  1  0.51803633  0.15212961  0.92107849  1
  O  O111  1  0.62898107  0.15059170  0.42149176  1
  O  O112  1  0.51166774  0.37358907  0.41851317  1
  O  O113  1  0.84787039  0.48196367  0.42107849  1
  O  O114  1  0.34264804  0.48730319  0.07966126  1
  O  O115  1  0.14886123  0.66983730  0.07898407  1
  O  O116  1  0.53125339  0.86473886  0.07559448  1
  O  O117  1  0.33016270  0.85113877  0.57898407  1
  O  O118  1  0.51269681  0.65735196  0.57966126  1
  O  O119  1  0.13526114  0.46874661  0.57559448  1
  O  O120  1  0.29307693  0.82166626  0.25184717  1
  O  O121  1  0.51607430  0.70435293  0.25482576  1
  O  O122  1  0.18470233  0.48546361  0.25441249  1
  O  O123  1  0.29564707  0.48392570  0.75482576  1
  O  O124  1  0.17833374  0.70692307  0.75184717  1
  O  O125  1  0.51453639  0.81529767  0.75441249  1
