# generated using pymatgen
data_Na5Ca2Ta2SiP5O24
_symmetry_space_group_name_H-M   'P 1'
_cell_length_a   9.15917107
_cell_length_b   9.16071564
_cell_length_c   22.64897358
_cell_angle_alpha   89.97310006
_cell_angle_beta   90.04468966
_cell_angle_gamma   119.92645180
_symmetry_Int_Tables_number   1
_chemical_formula_structural   Na5Ca2Ta2SiP5O24
_chemical_formula_sum   'Na15 Ca6 Ta6 Si3 P15 O72'
_cell_volume   1646.97111945
_cell_formula_units_Z   3
loop_
 _symmetry_equiv_pos_site_id
 _symmetry_equiv_pos_as_xyz
  1  'x, y, z'
loop_
 _atom_site_type_symbol
 _atom_site_label
 _atom_site_symmetry_multiplicity
 _atom_site_fract_x
 _atom_site_fract_y
 _atom_site_fract_z
 _atom_site_occupancy
  Na  Na0  1  0.61455858  0.00249775  0.25173970  1
  Na  Na1  1  0.99789260  0.60987312  0.24752649  1
  Na  Na2  1  0.34145521  0.99900607  0.75248673  1
  Na  Na3  1  0.30153877  0.30950803  0.58502666  1
  Na  Na4  1  0.01655411  0.70227354  0.58782039  1
  Na  Na5  1  0.68029712  0.98184957  0.59042395  1
  Na  Na6  1  0.65198523  0.68003600  0.07731566  1
  Na  Na7  1  0.03964530  0.35631769  0.07852589  1
  Na  Na8  1  0.98870025  0.68366214  0.91027670  1
  Na  Na9  1  0.00964009  0.99974736  0.50609980  1
  Na  Na10  1  0.01358528  0.01667384  0.98651577  1
  Na  Na11  1  0.67259106  0.32647760  0.83205482  1
  Na  Na12  1  0.65047934  0.33550936  0.34178209  1
  Na  Na13  1  0.32255073  0.66784804  0.16179876  1
  Na  Na14  1  0.34200807  0.65755865  0.67068623  1
  Ca  Ca15  1  0.99452488  0.00820945  0.84413803  1
  Ca  Ca16  1  0.99151205  0.99967207  0.66198356  1
  Ca  Ca17  1  0.65773689  0.33324202  0.19182896  1
  Ca  Ca18  1  0.66482782  0.33126752  0.47823264  1
  Ca  Ca19  1  0.33661737  0.67586650  0.01660092  1
  Ca  Ca20  1  0.33492125  0.65834347  0.30916601  1
  Ta  Ta21  1  0.00337702  0.00385779  0.35930946  1
  Ta  Ta22  1  0.00693191  0.00030487  0.14261192  1
  Ta  Ta23  1  0.66581871  0.32949092  0.68305160  1
  Ta  Ta24  1  0.66353644  0.33087914  0.98166812  1
  Ta  Ta25  1  0.33496622  0.67063562  0.51421306  1
  Ta  Ta26  1  0.33883163  0.66639584  0.81932038  1
  Si  Si27  1  0.68505061  0.99899139  0.74767910  1
  Si  Si28  1  0.36482771  0.03141896  0.58074211  1
  Si  Si29  1  0.95901265  0.62862557  0.08799752  1
  P  P30  1  0.27845411  0.99913219  0.25171480  1
  P  P31  1  0.72543010  0.72747588  0.25046850  1
  P  P32  1  0.00011671  0.27798702  0.24983694  1
  P  P33  1  0.31773584  0.31598974  0.74743289  1
  P  P34  1  0.00127134  0.68132954  0.75200072  1
  P  P35  1  0.96812750  0.34147844  0.58124769  1
  P  P36  1  0.66063397  0.62597111  0.58085346  1
  P  P37  1  0.67679980  0.04537613  0.08696414  1
  P  P38  1  0.37096106  0.32398243  0.08312914  1
  P  P39  1  0.63059609  0.65650989  0.92113505  1
  P  P40  1  0.03042436  0.37124077  0.92173445  1
  P  P41  1  0.33971898  0.97042809  0.91733667  1
  P  P42  1  0.63297362  0.95497041  0.41166032  1
  P  P43  1  0.32281730  0.36836828  0.41512955  1
  P  P44  1  0.04564889  0.67758460  0.41165124  1
  O  O45  1  0.17667829  0.00200241  0.30677151  1
  O  O46  1  0.83173068  0.83231627  0.30525161  1
  O  O47  1  0.00381372  0.17538730  0.30520100  1
  O  O48  1  0.24416071  0.18314852  0.79558862  1
  O  O49  1  0.96642464  0.75353218  0.80692970  1
  O  O50  1  0.80664732  0.04420601  0.80208923  1
  O  O51  1  0.73313993  0.95456297  0.68506237  1
  O  O52  1  0.22082548  0.26394690  0.68927486  1
  O  O53  1  0.05494445  0.79839263  0.69793626  1
  O  O54  1  0.82749666  0.82964235  0.19313471  1
  O  O55  1  0.00329978  0.17939409  0.19282246  1
  O  O56  1  0.17719138  0.00302803  0.19487753  1
  O  O57  1  0.86996425  0.36616063  0.63559588  1
  O  O58  1  0.49522169  0.13526181  0.63924672  1
  O  O59  1  0.63536281  0.50602312  0.63518809  1
  O  O60  1  0.87622086  0.52926209  0.14742491  1
  O  O61  1  0.65269635  0.11453467  0.14427231  1
  O  O62  1  0.47461803  0.35290565  0.13754903  1
  O  O63  1  0.46380527  0.29895430  0.02761356  1
  O  O64  1  0.82259762  0.52106081  0.02937652  1
  O  O65  1  0.69307497  0.16582707  0.03274707  1
  O  O66  1  0.44582710  0.15176862  0.52654676  1
  O  O67  1  0.69808350  0.55646845  0.52665006  1
  O  O68  1  0.86371915  0.30961969  0.52684077  1
  O  O69  1  0.56465482  0.67652208  0.97969367  1
  O  O70  1  0.11447317  0.44439003  0.98030970  1
  O  O71  1  0.31045764  0.86689237  0.97204351  1
  O  O72  1  0.52906605  0.83113421  0.46705446  1
  O  O73  1  0.30315226  0.46356734  0.47259543  1
  O  O74  1  0.16779282  0.69496710  0.46762316  1
  O  O75  1  0.12413354  0.66504017  0.35532583  1
  O  O76  1  0.54073968  0.87906386  0.35509124  1
  O  O77  1  0.33332763  0.46484395  0.36118972  1
  O  O78  1  0.13566363  0.50079909  0.87032043  1
  O  O79  1  0.35876883  0.87041970  0.86232707  1
  O  O80  1  0.50640026  0.64499986  0.86954117  1
  O  O81  1  0.04180521  0.85056512  0.41309435  1
  O  O82  1  0.80937756  0.95884743  0.41254436  1
  O  O83  1  0.15039543  0.18972995  0.41421930  1
  O  O84  1  0.00232949  0.19624261  0.91204327  1
  O  O85  1  0.18855085  0.99356822  0.90669484  1
  O  O86  1  0.81117457  0.79527373  0.91010219  1
  O  O87  1  0.00223241  0.19641807  0.59244706  1
  O  O88  1  0.17427455  0.98985747  0.59199656  1
  O  O89  1  0.80469315  0.80638132  0.59143700  1
  O  O90  1  0.96138157  0.81553053  0.08793560  1
  O  O91  1  0.85582798  0.05172648  0.08691243  1
  O  O92  1  0.19161533  0.15835465  0.08674213  1
  O  O93  1  0.65043206  0.16464307  0.73986607  1
  O  O94  1  0.50264457  0.34855086  0.73737505  1
  O  O95  1  0.84523147  0.50574023  0.73752476  1
  O  O96  1  0.71872308  0.55871842  0.25496757  1
  O  O97  1  0.83411177  0.27990806  0.25478074  1
  O  O98  1  0.45444015  0.15070054  0.25596442  1
  O  O99  1  0.63087019  0.48126387  0.92200827  1
  O  O100  1  0.85283250  0.36942730  0.92280182  1
  O  O101  1  0.51011600  0.14423600  0.92255971  1
  O  O102  1  0.66583178  0.13164894  0.42090970  1
  O  O103  1  0.46801641  0.33519827  0.42027585  1
  O  O104  1  0.86922319  0.53351353  0.42073846  1
  O  O105  1  0.33967180  0.47124627  0.07503240  1
  O  O106  1  0.14181776  0.65028058  0.08121697  1
  O  O107  1  0.54363000  0.86193050  0.07860940  1
  O  O108  1  0.36780209  0.84678999  0.57321681  1
  O  O109  1  0.48690318  0.62763714  0.57496494  1
  O  O110  1  0.14327094  0.51428386  0.57662542  1
  O  O111  1  0.28110793  0.83408669  0.24536275  1
  O  O112  1  0.55861738  0.72424032  0.24472779  1
  O  O113  1  0.15070529  0.45482231  0.24443199  1
  O  O114  1  0.33716499  0.48999871  0.76693277  1
  O  O115  1  0.15714281  0.65423230  0.76460969  1
  O  O116  1  0.48884298  0.83382790  0.76363403  1
