# generated using pymatgen
data_La2MgMoO6
_symmetry_space_group_name_H-M   'P 1'
_cell_length_a   5.30827510
_cell_length_b   3.87581756
_cell_length_c   8.84596973
_cell_angle_alpha   102.64740643
_cell_angle_beta   107.46060076
_cell_angle_gamma   89.99933496
_symmetry_Int_Tables_number   1
_chemical_formula_structural   La2MgMoO6
_chemical_formula_sum   'La2 Mg1 Mo1 O6'
_cell_volume   168.97557768
_cell_formula_units_Z   1
loop_
 _symmetry_equiv_pos_site_id
 _symmetry_equiv_pos_as_xyz
  1  'x, y, z'
loop_
 _atom_site_type_symbol
 _atom_site_label
 _atom_site_symmetry_multiplicity
 _atom_site_fract_x
 _atom_site_fract_y
 _atom_site_fract_z
 _atom_site_occupancy
  La  La0  1  0.18378400  0.18389800  0.36765300  1
  La  La1  1  0.81628000  0.81615500  0.63229200  1
  Mg  Mg2  1  0.99998900  0.49969800  0.00002100  1
  Mo  Mo3  1  0.49995600  0.50025000  0.99994300  1
  O  O4  1  0.31793600  0.79126700  0.14138300  1
  O  O5  1  0.17681300  0.20848300  0.85869400  1
  O  O6  1  0.82310800  0.34988600  0.14134200  1
  O  O7  1  0.68210200  0.65027300  0.85868700  1
  O  O8  1  0.74428600  0.24424600  0.48834300  1
  O  O9  1  0.25574700  0.75584500  0.51164200  1
