# generated using pymatgen
data_Na2Zr4Ta4Si7S5O48
_symmetry_space_group_name_H-M   'P 1'
_cell_length_a   17.92387664
_cell_length_b   8.95550684
_cell_length_c   23.25805786
_cell_angle_alpha   90.04142461
_cell_angle_beta   89.26046585
_cell_angle_gamma   119.99415915
_symmetry_Int_Tables_number   1
_chemical_formula_structural   Na2Zr4Ta4Si7S5O48
_chemical_formula_sum   'Na6 Zr12 Ta12 Si21 S15 O144'
_cell_volume   3233.00272380
_cell_formula_units_Z   3
loop_
 _symmetry_equiv_pos_site_id
 _symmetry_equiv_pos_as_xyz
  1  'x, y, z'
loop_
 _atom_site_type_symbol
 _atom_site_label
 _atom_site_symmetry_multiplicity
 _atom_site_fract_x
 _atom_site_fract_y
 _atom_site_fract_z
 _atom_site_occupancy
  Na  Na0  1  0.99128631  0.00442849  0.49795020  1
  Na  Na1  1  0.49073433  0.97552004  0.00457727  1
  Na  Na2  1  0.32329757  0.33073180  0.84060255  1
  Na  Na3  1  0.82163812  0.32766995  0.83918840  1
  Na  Na4  1  0.32646403  0.31908071  0.33547048  1
  Na  Na5  1  0.82059356  0.31221119  0.33851422  1
  Zr  Zr6  1  0.00467144  0.01417709  0.35844949  1
  Zr  Zr7  1  0.50625724  0.99686878  0.85972680  1
  Zr  Zr8  1  0.00098243  0.01545562  0.64330198  1
  Zr  Zr9  1  0.50135598  0.99703326  0.14697931  1
  Zr  Zr10  1  0.33252552  0.33610578  0.98062833  1
  Zr  Zr11  1  0.83612344  0.33592466  0.97929156  1
  Zr  Zr12  1  0.33799026  0.33872404  0.47725695  1
  Zr  Zr13  1  0.83344121  0.33027189  0.47800131  1
  Zr  Zr14  1  0.17295146  0.68207825  0.31046803  1
  Zr  Zr15  1  0.67059947  0.67355028  0.30799797  1
  Zr  Zr16  1  0.17542530  0.66808831  0.81080482  1
  Zr  Zr17  1  0.67176808  0.66298949  0.81120502  1
  Ta  Ta18  1  0.50480717  0.02195682  0.35795464  1
  Ta  Ta19  1  0.00596847  0.00068644  0.86060903  1
  Ta  Ta20  1  0.50235324  0.01594743  0.64220835  1
  Ta  Ta21  1  0.00261180  0.98947400  0.14195755  1
  Ta  Ta22  1  0.33175819  0.34247250  0.68479107  1
  Ta  Ta23  1  0.83493361  0.34825279  0.68483227  1
  Ta  Ta24  1  0.34034985  0.32256480  0.18856153  1
  Ta  Ta25  1  0.83136735  0.32207933  0.18543249  1
  Ta  Ta26  1  0.17236462  0.69037541  0.02469543  1
  Ta  Ta27  1  0.67303200  0.68948836  0.02437765  1
  Ta  Ta28  1  0.17355824  0.65662361  0.52308841  1
  Ta  Ta29  1  0.67013541  0.65174370  0.52183012  1
  Si  Si30  1  0.14424641  0.00625761  0.24887694  1
  Si  Si31  1  0.64448851  0.00734785  0.25090935  1
  Si  Si32  1  0.50100714  0.28714479  0.25036847  1
  Si  Si33  1  0.14491032  0.28230854  0.75078105  1
  Si  Si34  1  0.64445435  0.28364877  0.74927733  1
  Si  Si35  1  0.47717964  0.34279901  0.58280703  1
  Si  Si36  1  0.97923684  0.34411775  0.58162698  1
  Si  Si37  1  0.33745299  0.62803451  0.58329775  1
  Si  Si38  1  0.83552349  0.62635216  0.58109460  1
  Si  Si39  1  0.47859414  0.62060940  0.08231970  1
  Si  Si40  1  0.97704010  0.61244209  0.08299100  1
  Si  Si41  1  0.33821830  0.04915419  0.08216906  1
  Si  Si42  1  0.83760670  0.04802511  0.08375797  1
  Si  Si43  1  0.31009170  0.66605405  0.91844305  1
  Si  Si44  1  0.81034606  0.66549129  0.91665457  1
  Si  Si45  1  0.17003659  0.95383397  0.91519623  1
  Si  Si46  1  0.66995720  0.95511550  0.91602278  1
  Si  Si47  1  0.31171562  0.95324961  0.41669435  1
  Si  Si48  1  0.80886503  0.94989146  0.41679926  1
  Si  Si49  1  0.16900290  0.38218850  0.41539461  1
  Si  Si50  1  0.66970681  0.38341435  0.41431648  1
  S  S51  1  0.35772019  0.70490381  0.25100086  1
  S  S52  1  0.86044653  0.71144270  0.24744074  1
  S  S53  1  0.99664991  0.28459303  0.24758074  1
  S  S54  1  0.99709978  0.71045834  0.75099714  1
  S  S55  1  0.49670927  0.70900123  0.74771893  1
  S  S56  1  0.35968425  0.00923391  0.74774187  1
  S  S57  1  0.85849004  0.01029165  0.75098328  1
  S  S58  1  0.19136536  0.04397392  0.58364087  1
  S  S59  1  0.68879050  0.04295216  0.58604633  1
  S  S60  1  0.18754782  0.33656757  0.08567824  1
  S  S61  1  0.69114349  0.33911220  0.08328525  1
  S  S62  1  0.02481165  0.37710711  0.91554542  1
  S  S63  1  0.52455463  0.38158174  0.91769296  1
  S  S64  1  0.02543984  0.66876888  0.41767481  1
  S  S65  1  0.52634071  0.67563279  0.41631589  1
  O  O66  1  0.09819286  0.03517447  0.30528397  1
  O  O67  1  0.59378279  0.02914816  0.30725008  1
  O  O68  1  0.41015803  0.78393530  0.30196573  1
  O  O69  1  0.91163223  0.78594979  0.29907163  1
  O  O70  1  0.48238017  0.16054953  0.30758130  1
  O  O71  1  0.97775751  0.17790749  0.30046518  1
  O  O72  1  0.09318653  0.15663959  0.80684197  1
  O  O73  1  0.59959254  0.16210627  0.80537226  1
  O  O74  1  0.47788158  0.77820689  0.80045919  1
  O  O75  1  0.98036658  0.78920163  0.80294516  1
  O  O76  1  0.41019911  0.03513367  0.79940088  1
  O  O77  1  0.91156534  0.03399122  0.80173518  1
  O  O78  1  0.40300850  0.98573100  0.69607295  1
  O  O79  1  0.89721359  0.98265106  0.69841769  1
  O  O80  1  0.08889702  0.18775895  0.69499803  1
  O  O81  1  0.58468760  0.17693321  0.69410548  1
  O  O82  1  0.00740723  0.81069933  0.69903015  1
  O  O83  1  0.50701328  0.81531557  0.69711515  1
  O  O84  1  0.39578781  0.80780986  0.19815664  1
  O  O85  1  0.90463800  0.82128317  0.19572919  1
  O  O86  1  0.00690416  0.19877183  0.19707119  1
  O  O87  1  0.50793876  0.19341404  0.19358183  1
  O  O88  1  0.08332814  0.99020975  0.19373418  1
  O  O89  1  0.59056048  0.98424769  0.19361008  1
  O  O90  1  0.42566893  0.35702847  0.64068259  1
  O  O91  1  0.92725702  0.35657537  0.64040242  1
  O  O92  1  0.24489386  0.13146903  0.63614778  1
  O  O93  1  0.74475887  0.13101280  0.63711327  1
  O  O94  1  0.31742106  0.49755367  0.64061508  1
  O  O95  1  0.82011724  0.50091353  0.63965605  1
  O  O96  1  0.42647243  0.49934320  0.13950068  1
  O  O97  1  0.92601111  0.49514125  0.14010631  1
  O  O98  1  0.32170194  0.13968653  0.13968069  1
  O  O99  1  0.81759863  0.13929613  0.14025721  1
  O  O100  1  0.24180606  0.36536541  0.13575584  1
  O  O101  1  0.74478907  0.36036292  0.13538891  1
  O  O102  1  0.22096520  0.29441481  0.03343242  1
  O  O103  1  0.73057282  0.30864747  0.03170824  1
  O  O104  1  0.41735498  0.53277885  0.02719478  1
  O  O105  1  0.91738694  0.53849750  0.02773045  1
  O  O106  1  0.34496178  0.15967081  0.02611847  1
  O  O107  1  0.85330381  0.16621641  0.02846165  1
  O  O108  1  0.22843718  0.15396235  0.53258387  1
  O  O109  1  0.72233932  0.15213648  0.53464269  1
  O  O110  1  0.35318765  0.53930741  0.52902482  1
  O  O111  1  0.84735879  0.53211788  0.52676975  1
  O  O112  1  0.41570190  0.29347677  0.52882810  1
  O  O113  1  0.91634074  0.30067292  0.52819862  1
  O  O114  1  0.25596734  0.67757748  0.97470734  1
  O  O115  1  0.76063952  0.68572903  0.97315007  1
  O  O116  1  0.07478023  0.44803617  0.96732630  1
  O  O117  1  0.57630979  0.46193187  0.96860798  1
  O  O118  1  0.15346847  0.83250999  0.97307116  1
  O  O119  1  0.65780956  0.83662313  0.97419504  1
  O  O120  1  0.25876799  0.83379803  0.47366794  1
  O  O121  1  0.75577138  0.83329464  0.47491752  1
  O  O122  1  0.15672103  0.47624543  0.47456952  1
  O  O123  1  0.65360032  0.47097200  0.47379957  1
  O  O124  1  0.07657338  0.68983151  0.46926479  1
  O  O125  1  0.57634089  0.69696734  0.46906245  1
  O  O126  1  0.06451564  0.64685731  0.36453969  1
  O  O127  1  0.56472914  0.64464604  0.36496073  1
  O  O128  1  0.25177962  0.86829660  0.36025705  1
  O  O129  1  0.75370937  0.86537914  0.36028863  1
  O  O130  1  0.17386301  0.49159196  0.35905858  1
  O  O131  1  0.68272701  0.49936527  0.35930111  1
  O  O132  1  0.06414232  0.48156380  0.86327174  1
  O  O133  1  0.56392856  0.48198823  0.86408159  1
  O  O134  1  0.17644419  0.85855933  0.85827953  1
  O  O135  1  0.67489548  0.85724526  0.85878705  1
  O  O136  1  0.25411637  0.64163645  0.86062401  1
  O  O137  1  0.75188745  0.63442015  0.85956613  1
  O  O138  1  0.01552665  0.82386076  0.41266384  1
  O  O139  1  0.51573914  0.82769665  0.40836806  1
  O  O140  1  0.40216361  0.95390943  0.40505713  1
  O  O141  1  0.90248815  0.95856767  0.41264876  1
  O  O142  1  0.08081122  0.19128772  0.41469896  1
  O  O143  1  0.58066592  0.19339563  0.40790259  1
  O  O144  1  0.01401930  0.19928125  0.90607296  1
  O  O145  1  0.51465636  0.20653840  0.91160364  1
  O  O146  1  0.08004281  0.96698970  0.90607501  1
  O  O147  1  0.58186064  0.97025211  0.91463279  1
  O  O148  1  0.40230940  0.84472952  0.91155709  1
  O  O149  1  0.90321772  0.84374869  0.90120635  1
  O  O150  1  0.49295717  0.17847284  0.59859279  1
  O  O151  1  0.99505450  0.18048441  0.58995666  1
  O  O152  1  0.10398827  0.02045044  0.59251961  1
  O  O153  1  0.60086903  0.02090679  0.59771844  1
  O  O154  1  0.41827964  0.81310365  0.60277621  1
  O  O155  1  0.91821854  0.81237134  0.59319967  1
  O  O156  1  0.49544456  0.81441246  0.08889909  1
  O  O157  1  0.99303473  0.80823961  0.09742166  1
  O  O158  1  0.41869642  0.01973362  0.08821422  1
  O  O159  1  0.91808845  0.02410450  0.10227819  1
  O  O160  1  0.09877233  0.18211481  0.09611854  1
  O  O161  1  0.60510822  0.18638482  0.08970082  1
  O  O162  1  0.34891028  0.16258181  0.73876017  1
  O  O163  1  0.84956339  0.16700082  0.74356039  1
  O  O164  1  0.24138704  0.29747248  0.74259101  1
  O  O165  1  0.74064191  0.30095008  0.73781791  1
  O  O166  1  0.41701033  0.53034101  0.73998471  1
  O  O167  1  0.91559493  0.53240340  0.74460821  1
  O  O168  1  0.34659117  0.52910105  0.24352772  1
  O  O169  1  0.85061903  0.53688198  0.23832890  1
  O  O170  1  0.41146395  0.30268429  0.24354780  1
  O  O171  1  0.91692009  0.30369861  0.23999754  1
  O  O172  1  0.23797201  0.18113361  0.23674313  1
  O  O173  1  0.74129574  0.19014129  0.24183160  1
  O  O174  1  0.32261257  0.49975976  0.92190988  1
  O  O175  1  0.82817195  0.50602218  0.92221042  1
  O  O176  1  0.43732180  0.36170546  0.92159078  1
  O  O177  1  0.93681849  0.35162965  0.92017187  1
  O  O178  1  0.25017172  0.14507708  0.92133026  1
  O  O179  1  0.75341309  0.14496325  0.92214950  1
  O  O180  1  0.32678574  0.14653593  0.42359759  1
  O  O181  1  0.82381165  0.14408231  0.42338422  1
  O  O182  1  0.25265318  0.36068295  0.42278019  1
  O  O183  1  0.75026378  0.35312323  0.42297624  1
  O  O184  1  0.43843002  0.52002218  0.42225739  1
  O  O185  1  0.93811406  0.51363769  0.42176809  1
  O  O186  1  0.17502011  0.48485281  0.07546839  1
  O  O187  1  0.68480193  0.49485488  0.07639495  1
  O  O188  1  0.07000205  0.62630272  0.07140473  1
  O  O189  1  0.57115506  0.62509238  0.07026074  1
  O  O190  1  0.24815489  0.85862663  0.07444893  1
  O  O191  1  0.75180018  0.85765631  0.07470860  1
  O  O192  1  0.18479337  0.87600632  0.57752592  1
  O  O193  1  0.67879515  0.87289019  0.57920190  1
  O  O194  1  0.25194014  0.64737165  0.57477193  1
  O  O195  1  0.74795892  0.64053408  0.57369428  1
  O  O196  1  0.07132316  0.52059097  0.57164855  1
  O  O197  1  0.56984077  0.51462736  0.57220471  1
  O  O198  1  0.15229429  0.83539678  0.25533714  1
  O  O199  1  0.66221131  0.85167978  0.26010265  1
  O  O200  1  0.27068455  0.68512603  0.25699412  1
  O  O201  1  0.77521827  0.69468822  0.25053949  1
  O  O202  1  0.07133009  0.45671490  0.25436012  1
  O  O203  1  0.57993946  0.47497342  0.26121932  1
  O  O204  1  0.15574828  0.46962988  0.75973781  1
  O  O205  1  0.65373152  0.47131033  0.75494949  1
  O  O206  1  0.06982127  0.68387435  0.75926916  1
  O  O207  1  0.57136567  0.68609786  0.75435005  1
  O  O208  1  0.27342778  0.85445866  0.75133963  1
  O  O209  1  0.77162736  0.85814659  0.75684436  1
