# generated using pymatgen
data_Na2TiGa(PO4)3
_symmetry_space_group_name_H-M   'P 1'
_cell_length_a   8.67448265
_cell_length_b   8.67448238
_cell_length_c   22.09632507
_cell_angle_alpha   90.15723356
_cell_angle_beta   89.84276643
_cell_angle_gamma   120.40113963
_symmetry_Int_Tables_number   1
_chemical_formula_structural   Na2TiGa(PO4)3
_chemical_formula_sum   'Na12 Ti6 Ga6 P18 O72'
_cell_volume   1434.05546576
_cell_formula_units_Z   6
loop_
 _symmetry_equiv_pos_site_id
 _symmetry_equiv_pos_as_xyz
  1  'x, y, z'
loop_
 _atom_site_type_symbol
 _atom_site_label
 _atom_site_symmetry_multiplicity
 _atom_site_fract_x
 _atom_site_fract_y
 _atom_site_fract_z
 _atom_site_occupancy
  Na  Na0  1  0.36540063  0.36321312  0.24955823  1
  Na  Na1  1  0.63678688  0.63459937  0.74955823  1
  Na  Na2  1  0.03206763  0.69654612  0.58289123  1
  Na  Na3  1  0.30345388  0.96793237  0.08289123  1
  Na  Na4  1  0.69873363  0.02988012  0.91622523  1
  Na  Na5  1  0.97011988  0.30126637  0.41622523  1
  Na  Na6  1  0.99974857  0.99938732  0.49858854  1
  Na  Na7  1  0.00061268  0.00025143  0.99858854  1
  Na  Na8  1  0.66641557  0.33272032  0.83192154  1
  Na  Na9  1  0.66727968  0.33358443  0.33192154  1
  Na  Na10  1  0.33308157  0.66605432  0.16525554  1
  Na  Na11  1  0.33394568  0.66691843  0.66525554  1
  Ti  Ti12  1  0.00123714  0.00752734  0.64697918  1
  Ti  Ti13  1  0.99247266  0.99876286  0.14697918  1
  Ti  Ti14  1  0.66790414  0.34086034  0.98031218  1
  Ti  Ti15  1  0.65913966  0.33209586  0.48031218  1
  Ti  Ti16  1  0.33457014  0.67419434  0.31364618  1
  Ti  Ti17  1  0.32580566  0.66542986  0.81364618  1
  Ga  Ga18  1  0.99994953  0.99421111  0.35144060  1
  Ga  Ga19  1  0.00578889  0.00005047  0.85144060  1
  Ga  Ga20  1  0.66661653  0.32754411  0.68477360  1
  Ga  Ga21  1  0.67245589  0.33338347  0.18477360  1
  Ga  Ga22  1  0.33328253  0.66087811  0.01810760  1
  Ga  Ga23  1  0.33912189  0.66671747  0.51810760  1
  P  P24  1  0.28918132  0.99938180  0.24970591  1
  P  P25  1  0.71260472  0.70971545  0.25098391  1
  P  P26  1  0.99326372  0.28741150  0.25128768  1
  P  P27  1  0.29028455  0.28739528  0.75098391  1
  P  P28  1  0.00061820  0.71081868  0.74970591  1
  P  P29  1  0.71258850  0.00673628  0.75128768  1
  P  P30  1  0.95584832  0.33271480  0.58303891  1
  P  P31  1  0.37927172  0.04304845  0.58431691  1
  P  P32  1  0.65993072  0.62074450  0.58462068  1
  P  P33  1  0.95695155  0.62072828  0.08431691  1
  P  P34  1  0.66728520  0.04415168  0.08303891  1
  P  P35  1  0.37925550  0.34006928  0.08462068  1
  P  P36  1  0.62251432  0.66604880  0.91637291  1
  P  P37  1  0.04593772  0.37638245  0.91765091  1
  P  P38  1  0.32659672  0.95407850  0.91795468  1
  P  P39  1  0.62361755  0.95406228  0.41765091  1
  P  P40  1  0.33395120  0.37748568  0.41637291  1
  P  P41  1  0.04592150  0.67340328  0.41795468  1
  O  O42  1  0.20880329  0.03941177  0.30529949  1
  O  O43  1  0.82589987  0.79194808  0.30678710  1
  O  O44  1  0.96716242  0.17837839  0.30868958  1
  O  O45  1  0.20805192  0.17410013  0.80678710  1
  O  O46  1  0.96058823  0.79119671  0.80529949  1
  O  O47  1  0.82162161  0.03283758  0.80868958  1
  O  O48  1  0.79983065  0.96690642  0.69537930  1
  O  O49  1  0.17027023  0.20018496  0.69411819  1
  O  O50  1  0.03210814  0.82628327  0.69212527  1
  O  O51  1  0.79981504  0.82972977  0.19411819  1
  O  O52  1  0.03309358  0.20016935  0.19537930  1
  O  O53  1  0.17371673  0.96789186  0.19212527  1
  O  O54  1  0.87547029  0.37274477  0.63863249  1
  O  O55  1  0.49256687  0.12528108  0.64012010  1
  O  O56  1  0.63382942  0.51171139  0.64202258  1
  O  O57  1  0.87471892  0.50743313  0.14012010  1
  O  O58  1  0.62725523  0.12452971  0.13863249  1
  O  O59  1  0.48828861  0.36617058  0.14202258  1
  O  O60  1  0.46649765  0.30023942  0.02871230  1
  O  O61  1  0.83693723  0.53351796  0.02745119  1
  O  O62  1  0.69877514  0.15961627  0.02545827  1
  O  O63  1  0.46648204  0.16306277  0.52745119  1
  O  O64  1  0.69976058  0.53350235  0.52871230  1
  O  O65  1  0.84038373  0.30122486  0.52545827  1
  O  O66  1  0.54213629  0.70607877  0.97196649  1
  O  O67  1  0.15923287  0.45861508  0.97345410  1
  O  O68  1  0.30049542  0.84504539  0.97535658  1
  O  O69  1  0.54138492  0.84076713  0.47345410  1
  O  O70  1  0.29392123  0.45786371  0.47196649  1
  O  O71  1  0.15495461  0.69950458  0.47535658  1
  O  O72  1  0.13316365  0.63357342  0.36204630  1
  O  O73  1  0.50360323  0.86685196  0.36078519  1
  O  O74  1  0.36544114  0.49295027  0.35879227  1
  O  O75  1  0.13314804  0.49639677  0.86078519  1
  O  O76  1  0.36642658  0.86683635  0.86204630  1
  O  O77  1  0.50704973  0.63455886  0.85879227  1
  O  O78  1  0.02449778  0.83545285  0.40993550  1
  O  O79  1  0.81251576  0.98270954  0.40990923  1
  O  O80  1  0.16440255  0.19102458  0.40946234  1
  O  O81  1  0.01729046  0.18748424  0.90990923  1
  O  O82  1  0.16454715  0.97550222  0.90993550  1
  O  O83  1  0.80897542  0.83559745  0.90946234  1
  O  O84  1  0.97304896  0.16441689  0.59034793  1
  O  O85  1  0.19019914  0.02214950  0.58959533  1
  O  O86  1  0.83635359  0.80676412  0.58980669  1
  O  O87  1  0.97785050  0.80980086  0.08959533  1
  O  O88  1  0.83558311  0.02695104  0.09034793  1
  O  O89  1  0.19323588  0.16364641  0.08980669  1
  O  O90  1  0.69116478  0.16878585  0.74326850  1
  O  O91  1  0.47918276  0.31604254  0.74324223  1
  O  O92  1  0.83106955  0.52435758  0.74279534  1
  O  O93  1  0.68395746  0.52081724  0.24324223  1
  O  O94  1  0.83121415  0.30883522  0.24326850  1
  O  O95  1  0.47564242  0.16893045  0.24279534  1
  O  O96  1  0.63971596  0.49774989  0.92368093  1
  O  O97  1  0.85686614  0.35548250  0.92292833  1
  O  O98  1  0.50302059  0.14009712  0.92313969  1
  O  O99  1  0.64451750  0.14313386  0.42292833  1
  O  O100  1  0.50225011  0.36028404  0.42368093  1
  O  O101  1  0.85990288  0.49697941  0.42313969  1
  O  O102  1  0.35783078  0.50211985  0.07660250  1
  O  O103  1  0.14584876  0.64937654  0.07657623  1
  O  O104  1  0.49773555  0.85769158  0.07612934  1
  O  O105  1  0.35062346  0.85415124  0.57657623  1
  O  O106  1  0.49788015  0.64216922  0.57660250  1
  O  O107  1  0.14230842  0.50226445  0.57612934  1
  O  O108  1  0.30638196  0.83108389  0.25701493  1
  O  O109  1  0.52353214  0.68881650  0.25626233  1
  O  O110  1  0.16968659  0.47343112  0.25647369  1
  O  O111  1  0.31118350  0.47646786  0.75626233  1
  O  O112  1  0.16891611  0.69361804  0.75701493  1
  O  O113  1  0.52656888  0.83031341  0.75647369  1
