# generated using pymatgen
data_Na6Nb6Ga2Si9(SO16)3
_symmetry_space_group_name_H-M   'P 1'
_cell_length_a   17.80395562
_cell_length_b   8.89781204
_cell_length_c   22.78933595
_cell_angle_alpha   90.03145190
_cell_angle_beta   90.04678495
_cell_angle_gamma   119.98244141
_symmetry_Int_Tables_number   1
_chemical_formula_structural   Na6Nb6Ga2Si9(SO16)3
_chemical_formula_sum   'Na18 Nb18 Ga6 Si27 S9 O144'
_cell_volume   3127.07599883
_cell_formula_units_Z   3
loop_
 _symmetry_equiv_pos_site_id
 _symmetry_equiv_pos_as_xyz
  1  'x, y, z'
loop_
 _atom_site_type_symbol
 _atom_site_label
 _atom_site_symmetry_multiplicity
 _atom_site_fract_x
 _atom_site_fract_y
 _atom_site_fract_z
 _atom_site_occupancy
  Na  Na0  1  0.32055674  0.01256483  0.25051509  1
  Na  Na1  1  0.68403054  0.36708940  0.24652241  1
  Na  Na2  1  0.49431454  0.62118389  0.24939035  1
  Na  Na3  1  0.82026393  0.62886341  0.74906284  1
  Na  Na4  1  0.99441442  0.36657025  0.74780585  1
  Na  Na5  1  0.18596169  0.00636928  0.74408227  1
  Na  Na6  1  0.00242274  0.00778355  0.49954773  1
  Na  Na7  1  0.50361488  0.99899194  0.49557042  1
  Na  Na8  1  0.00351675  0.01077318  0.99348411  1
  Na  Na9  1  0.50263833  0.99713633  0.99817119  1
  Na  Na10  1  0.33851740  0.33488721  0.83078718  1
  Na  Na11  1  0.83082739  0.32479553  0.82703232  1
  Na  Na12  1  0.33032176  0.33917120  0.33157316  1
  Na  Na13  1  0.83811580  0.34108407  0.33460806  1
  Na  Na14  1  0.16666295  0.65805429  0.16632543  1
  Na  Na15  1  0.67118939  0.67012839  0.16523056  1
  Na  Na16  1  0.17247294  0.67233601  0.66379432  1
  Na  Na17  1  0.66153843  0.66894324  0.66231494  1
  Nb  Nb18  1  0.00195512  0.98562449  0.35762128  1
  Nb  Nb19  1  0.50232006  0.01873788  0.85567767  1
  Nb  Nb20  1  0.99737114  0.99117316  0.64355293  1
  Nb  Nb21  1  0.49893807  0.01297815  0.63941433  1
  Nb  Nb22  1  0.99984939  0.99726148  0.14428661  1
  Nb  Nb23  1  0.49733206  0.00302430  0.14411664  1
  Nb  Nb24  1  0.32938101  0.34218859  0.97573480  1
  Nb  Nb25  1  0.82896630  0.31177517  0.97697736  1
  Nb  Nb26  1  0.33504103  0.34655084  0.48131935  1
  Nb  Nb27  1  0.82873493  0.31475820  0.47612402  1
  Nb  Nb28  1  0.16583828  0.65426069  0.01477963  1
  Nb  Nb29  1  0.65975551  0.66498550  0.02675978  1
  Nb  Nb30  1  0.16003877  0.65300118  0.52706929  1
  Nb  Nb31  1  0.65934852  0.66872524  0.51750912  1
  Nb  Nb32  1  0.16460225  0.66039770  0.31274587  1
  Nb  Nb33  1  0.66913613  0.65838518  0.31685168  1
  Nb  Nb34  1  0.16914104  0.68018084  0.81499596  1
  Nb  Nb35  1  0.66179946  0.66682527  0.80960158  1
  Ga  Ga36  1  0.49664348  0.99893820  0.35493367  1
  Ga  Ga37  1  0.99758499  0.99650324  0.85358230  1
  Ga  Ga38  1  0.33621689  0.32137964  0.67570015  1
  Ga  Ga39  1  0.83169674  0.31062814  0.69056716  1
  Ga  Ga40  1  0.33114043  0.35335070  0.19099887  1
  Ga  Ga41  1  0.83012117  0.34010847  0.18046157  1
  Si  Si42  1  0.14741619  0.00645014  0.24891640  1
  Si  Si43  1  0.35791424  0.71416328  0.25345011  1
  Si  Si44  1  0.85620207  0.70190683  0.24828602  1
  Si  Si45  1  0.49799581  0.28656526  0.25227613  1
  Si  Si46  1  0.64737470  0.28587553  0.74788117  1
  Si  Si47  1  0.99776780  0.71057835  0.75213620  1
  Si  Si48  1  0.35682615  0.01087407  0.74764353  1
  Si  Si49  1  0.85835332  0.00213178  0.75327163  1
  Si  Si50  1  0.47793599  0.34131758  0.58350194  1
  Si  Si51  1  0.97027474  0.32774281  0.58769208  1
  Si  Si52  1  0.19053871  0.04769237  0.58438760  1
  Si  Si53  1  0.69190379  0.04713586  0.58671393  1
  Si  Si54  1  0.33315290  0.61643882  0.58902366  1
  Si  Si55  1  0.47038286  0.61303864  0.08769601  1
  Si  Si56  1  0.83351335  0.04986717  0.08803149  1
  Si  Si57  1  0.19115970  0.33618501  0.08616754  1
  Si  Si58  1  0.69047886  0.33368426  0.08471819  1
  Si  Si59  1  0.31349404  0.67241507  0.91420511  1
  Si  Si60  1  0.01925528  0.36491517  0.91251314  1
  Si  Si61  1  0.52271376  0.38398329  0.91835199  1
  Si  Si62  1  0.16037787  0.95761103  0.91850116  1
  Si  Si63  1  0.66364435  0.94802955  0.91595891  1
  Si  Si64  1  0.81124050  0.94986893  0.41688109  1
  Si  Si65  1  0.16781034  0.37706523  0.41698344  1
  Si  Si66  1  0.66102139  0.36321899  0.41878976  1
  Si  Si67  1  0.02242492  0.65934333  0.41900632  1
  Si  Si68  1  0.51776394  0.67274072  0.41265228  1
  S  S69  1  0.64611895  0.00231723  0.24990726  1
  S  S70  1  0.99676494  0.28624348  0.24985205  1
  S  S71  1  0.14564607  0.28971806  0.75039387  1
  S  S72  1  0.49600966  0.70973610  0.74998514  1
  S  S73  1  0.83125078  0.61752793  0.58433420  1
  S  S74  1  0.97794704  0.62025933  0.08373117  1
  S  S75  1  0.33080007  0.04353885  0.08396749  1
  S  S76  1  0.81120435  0.66818447  0.91713159  1
  S  S77  1  0.31098864  0.95402453  0.41727204  1
  O  O78  1  0.09751008  0.03017199  0.30579147  1
  O  O79  1  0.60846407  0.03347342  0.30208515  1
  O  O80  1  0.42121177  0.80579781  0.30783455  1
  O  O81  1  0.91659077  0.80443795  0.30552633  1
  O  O82  1  0.48398730  0.16189561  0.30671544  1
  O  O83  1  0.98623815  0.18441389  0.30256063  1
  O  O84  1  0.10693279  0.18249727  0.80296047  1
  O  O85  1  0.59872655  0.16676716  0.80655038  1
  O  O86  1  0.48861244  0.79338478  0.80424428  1
  O  O87  1  0.98375155  0.80493338  0.80757205  1
  O  O88  1  0.41641439  0.02628149  0.80605583  1
  O  O89  1  0.92099288  0.03816830  0.80853964  1
  O  O90  1  0.40205612  0.97250827  0.69217357  1
  O  O91  1  0.90321142  0.96484711  0.69449060  1
  O  O92  1  0.08994691  0.20929129  0.69700072  1
  O  O93  1  0.58219645  0.19264118  0.69302897  1
  O  O94  1  0.01926477  0.84068427  0.69397897  1
  O  O95  1  0.51362734  0.81525146  0.69753195  1
  O  O96  1  0.40370968  0.84065747  0.19408692  1
  O  O97  1  0.90301943  0.82996060  0.19150023  1
  O  O98  1  0.01296776  0.20859212  0.19615839  1
  O  O99  1  0.51891123  0.19724850  0.19363260  1
  O  O100  1  0.08212240  0.97366965  0.19292171  1
  O  O101  1  0.59086149  0.97258599  0.19613591  1
  O  O102  1  0.44107215  0.37510645  0.64316023  1
  O  O103  1  0.93608191  0.36918327  0.64698434  1
  O  O104  1  0.24114013  0.11687223  0.64624146  1
  O  O105  1  0.75091161  0.13506176  0.64278067  1
  O  O106  1  0.31412261  0.49370748  0.64506547  1
  O  O107  1  0.82163500  0.52459195  0.63875986  1
  O  O108  1  0.43525888  0.50196670  0.14658896  1
  O  O109  1  0.94052540  0.51942170  0.13755991  1
  O  O110  1  0.32016253  0.11648255  0.13862238  1
  O  O111  1  0.82031891  0.14347624  0.14389638  1
  O  O112  1  0.24989136  0.36795151  0.14247789  1
  O  O113  1  0.74355412  0.36841297  0.14534441  1
  O  O114  1  0.23404211  0.30500355  0.02625991  1
  O  O115  1  0.74060240  0.30987393  0.02755224  1
  O  O116  1  0.41416828  0.52263372  0.02786862  1
  O  O117  1  0.92524557  0.54177240  0.03078894  1
  O  O118  1  0.34518422  0.14925347  0.03132783  1
  O  O119  1  0.84909398  0.16857151  0.02742774  1
  O  O120  1  0.23630076  0.16972202  0.52681270  1
  O  O121  1  0.73475265  0.16649543  0.52657141  1
  O  O122  1  0.34886053  0.53219990  0.52788929  1
  O  O123  1  0.84629213  0.54096365  0.53139726  1
  O  O124  1  0.41698729  0.30593051  0.52540753  1
  O  O125  1  0.91466615  0.30568987  0.52763343  1
  O  O126  1  0.26632214  0.69630098  0.97300833  1
  O  O127  1  0.76845083  0.69033723  0.96941873  1
  O  O128  1  0.08208287  0.46856743  0.97099164  1
  O  O129  1  0.58511924  0.47391108  0.97468095  1
  O  O130  1  0.15181098  0.83180061  0.97466610  1
  O  O131  1  0.65560173  0.83422457  0.97363008  1
  O  O132  1  0.26865403  0.84657971  0.46856262  1
  O  O133  1  0.76644779  0.83319785  0.47420300  1
  O  O134  1  0.15517615  0.47639358  0.47275951  1
  O  O135  1  0.65187416  0.47152678  0.47344854  1
  O  O136  1  0.08542167  0.69701592  0.47447604  1
  O  O137  1  0.58040639  0.69619710  0.47061454  1
  O  O138  1  0.07035462  0.63988853  0.35965287  1
  O  O139  1  0.56757434  0.64067259  0.35573500  1
  O  O140  1  0.25754669  0.87177347  0.36136609  1
  O  O141  1  0.75025274  0.86284010  0.35835969  1
  O  O142  1  0.18088215  0.50084008  0.35863052  1
  O  O143  1  0.68134662  0.49098611  0.35879836  1
  O  O144  1  0.06660555  0.49429749  0.85616703  1
  O  O145  1  0.57031463  0.50154582  0.86010220  1
  O  O146  1  0.18073046  0.86922387  0.85970862  1
  O  O147  1  0.68178631  0.86145855  0.85829361  1
  O  O148  1  0.24945019  0.63578771  0.85848388  1
  O  O149  1  0.75844483  0.63831450  0.86248575  1
  O  O150  1  0.01408427  0.83509612  0.41129530  1
  O  O151  1  0.51071250  0.84429891  0.40885194  1
  O  O152  1  0.39673909  0.97038788  0.41131913  1
  O  O153  1  0.90774923  0.97802005  0.40705942  1
  O  O154  1  0.07981054  0.18977280  0.40731739  1
  O  O155  1  0.57659441  0.17902095  0.40855404  1
  O  O156  1  0.00968666  0.17744145  0.90985168  1
  O  O157  1  0.51406854  0.19210825  0.91125916  1
  O  O158  1  0.07618429  0.97398126  0.90941813  1
  O  O159  1  0.57976049  0.97079768  0.90878939  1
  O  O160  1  0.40867113  0.83882783  0.90875094  1
  O  O161  1  0.89721197  0.82226105  0.91227308  1
  O  O162  1  0.48714708  0.16514694  0.58679377  1
  O  O163  1  0.98608923  0.15976571  0.59259992  1
  O  O164  1  0.09227817  0.02426285  0.59091821  1
  O  O165  1  0.59368294  0.01995150  0.59230291  1
  O  O166  1  0.41976852  0.80828694  0.59290651  1
  O  O167  1  0.91299437  0.79844246  0.58781588  1
  O  O168  1  0.48637131  0.81260093  0.09240778  1
  O  O169  1  0.98647508  0.79744154  0.08832662  1
  O  O170  1  0.41128809  0.02397211  0.08753009  1
  O  O171  1  0.91989098  0.02818611  0.09257315  1
  O  O172  1  0.09259194  0.16402335  0.09230624  1
  O  O173  1  0.59320987  0.16023755  0.09011448  1
  O  O174  1  0.34001546  0.17532575  0.74463262  1
  O  O175  1  0.84875638  0.17195239  0.74761636  1
  O  O176  1  0.23279443  0.31043233  0.74430291  1
  O  O177  1  0.74569997  0.32579220  0.74270555  1
  O  O178  1  0.42064159  0.53417375  0.74662606  1
  O  O179  1  0.91379125  0.52071783  0.74361727  1
  O  O180  1  0.34873809  0.52565447  0.24743621  1
  O  O181  1  0.84291505  0.50589996  0.24243295  1
  O  O182  1  0.41333131  0.30592762  0.24294538  1
  O  O183  1  0.92168634  0.31024206  0.24268078  1
  O  O184  1  0.24472785  0.16463540  0.24157247  1
  O  O185  1  0.73374234  0.15803920  0.24321442  1
  O  O186  1  0.31945732  0.49595489  0.92128040  1
  O  O187  1  0.81984916  0.50919184  0.92344506  1
  O  O188  1  0.42598542  0.35586551  0.92522935  1
  O  O189  1  0.92833675  0.36708906  0.92555118  1
  O  O190  1  0.25173831  0.14130405  0.92603923  1
  O  O191  1  0.75082706  0.14432482  0.92221745  1
  O  O192  1  0.31723324  0.12622190  0.41998050  1
  O  O193  1  0.81966926  0.14183454  0.42124255  1
  O  O194  1  0.25228903  0.35358263  0.42146391  1
  O  O195  1  0.75227871  0.36098668  0.42491465  1
  O  O196  1  0.42644199  0.49066779  0.42166457  1
  O  O197  1  0.92584786  0.49511583  0.42422014  1
  O  O198  1  0.17657549  0.50628588  0.07597336  1
  O  O199  1  0.67998403  0.50453738  0.07456249  1
  O  O200  1  0.06669855  0.64453304  0.07829848  1
  O  O201  1  0.57005775  0.64324618  0.07747663  1
  O  O202  1  0.25401186  0.86505699  0.07744423  1
  O  O203  1  0.75043356  0.85713268  0.07575646  1
  O  O204  1  0.17946438  0.85486256  0.57427167  1
  O  O205  1  0.68100478  0.85377976  0.57559289  1
  O  O206  1  0.25036607  0.64499348  0.57526212  1
  O  O207  1  0.75588741  0.64421881  0.57788843  1
  O  O208  1  0.06990965  0.49617609  0.57781299  1
  O  O209  1  0.57679650  0.50534534  0.57595197  1
  O  O210  1  0.15519533  0.82937841  0.25797912  1
  O  O211  1  0.65168385  0.84027138  0.25333752  1
  O  O212  1  0.26182695  0.70299395  0.25715973  1
  O  O213  1  0.75885629  0.68167808  0.25538318  1
  O  O214  1  0.07846115  0.46339403  0.25427911  1
  O  O215  1  0.58642125  0.48329864  0.25506021  1
  O  O216  1  0.15021771  0.46261865  0.75443007  1
  O  O217  1  0.65554204  0.47920254  0.75944851  1
  O  O218  1  0.08625901  0.69016733  0.75575576  1
  O  O219  1  0.57813065  0.69198314  0.75612865  1
  O  O220  1  0.25924972  0.83370337  0.75690966  1
  O  O221  1  0.76225415  0.82083290  0.75831879  1
