# generated using pymatgen
data_Na2Ga2Si(SO6)2
_symmetry_space_group_name_H-M   'P 1'
_cell_length_a   8.71484337
_cell_length_b   8.71484309
_cell_length_c   22.08284067
_cell_angle_alpha   90.39014382
_cell_angle_beta   89.60985617
_cell_angle_gamma   120.11477612
_symmetry_Int_Tables_number   1
_chemical_formula_structural   Na2Ga2Si(SO6)2
_chemical_formula_sum   'Na12 Ga12 Si6 S12 O72'
_cell_volume   1450.73426478
_cell_formula_units_Z   6
loop_
 _symmetry_equiv_pos_site_id
 _symmetry_equiv_pos_as_xyz
  1  'x, y, z'
loop_
 _atom_site_type_symbol
 _atom_site_label
 _atom_site_symmetry_multiplicity
 _atom_site_fract_x
 _atom_site_fract_y
 _atom_site_fract_z
 _atom_site_occupancy
  Na  Na0  1  0.00063597  0.62582676  0.25006008  1
  Na  Na1  1  0.37417324  0.99936403  0.75006008  1
  Na  Na2  1  0.66184942  0.96793216  0.59144908  1
  Na  Na3  1  0.03206784  0.33815058  0.09144908  1
  Na  Na4  1  0.97845927  0.67523076  0.92306416  1
  Na  Na5  1  0.32476924  0.02154073  0.42306416  1
  Na  Na6  1  0.00819527  0.98908970  0.50091007  1
  Na  Na7  1  0.01091030  0.99180473  0.00091007  1
  Na  Na8  1  0.66308096  0.31238031  0.83470088  1
  Na  Na9  1  0.68761969  0.33691904  0.33470088  1
  Na  Na10  1  0.34122688  0.66729756  0.16692384  1
  Na  Na11  1  0.33270244  0.65877312  0.66692384  1
  Ga  Ga12  1  0.98470519  0.99224021  0.35112649  1
  Ga  Ga13  1  0.00775979  0.01529481  0.85112649  1
  Ga  Ga14  1  0.00844846  0.99802297  0.64962039  1
  Ga  Ga15  1  0.00197703  0.99155154  0.14962039  1
  Ga  Ga16  1  0.67228454  0.31600191  0.68500822  1
  Ga  Ga17  1  0.68399809  0.32771546  0.18500822  1
  Ga  Ga18  1  0.65793851  0.33432028  0.98303009  1
  Ga  Ga19  1  0.66567972  0.34206149  0.48303009  1
  Ga  Ga20  1  0.31605165  0.68799711  0.01674481  1
  Ga  Ga21  1  0.31200289  0.68394835  0.51674481  1
  Ga  Ga22  1  0.29973619  0.63064529  0.31568493  1
  Ga  Ga23  1  0.36935471  0.70026381  0.81568493  1
  Si  Si24  1  0.99801280  0.27796871  0.24827605  1
  Si  Si25  1  0.72203129  0.00198720  0.74827605  1
  Si  Si26  1  0.36998888  0.04481114  0.58242269  1
  Si  Si27  1  0.95518886  0.63001112  0.08242269  1
  Si  Si28  1  0.33627375  0.97608399  0.91359934  1
  Si  Si29  1  0.02391601  0.66372625  0.41359934  1
  S  S30  1  0.30272306  0.00606764  0.25026535  1
  S  S31  1  0.69778671  0.70381519  0.25047218  1
  S  S32  1  0.29618481  0.30221329  0.75047218  1
  S  S33  1  0.99393236  0.69727694  0.75026535  1
  S  S34  1  0.96356980  0.33847746  0.58215559  1
  S  S35  1  0.66351022  0.61996220  0.58453085  1
  S  S36  1  0.66152254  0.03643020  0.08215559  1
  S  S37  1  0.38003780  0.33648978  0.08453085  1
  S  S38  1  0.61766580  0.66580386  0.91889062  1
  S  S39  1  0.05113477  0.37961570  0.91666712  1
  S  S40  1  0.62038430  0.94886523  0.41666712  1
  S  S41  1  0.33419614  0.38233420  0.41889062  1
  O  O42  1  0.22771205  0.03139215  0.30738790  1
  O  O43  1  0.81842465  0.77730912  0.30385755  1
  O  O44  1  0.97506358  0.16148467  0.30784720  1
  O  O45  1  0.22269088  0.18157535  0.80385755  1
  O  O46  1  0.96860785  0.77228795  0.80738790  1
  O  O47  1  0.83851533  0.02493642  0.80784720  1
  O  O48  1  0.80742772  0.97931809  0.68507399  1
  O  O49  1  0.18924634  0.22134161  0.69534654  1
  O  O50  1  0.03869796  0.82221909  0.69835377  1
  O  O51  1  0.77865839  0.81075366  0.19534654  1
  O  O52  1  0.02068191  0.19257228  0.18507399  1
  O  O53  1  0.17778091  0.96130204  0.19835377  1
  O  O54  1  0.89138285  0.37498011  0.63823900  1
  O  O55  1  0.49644699  0.12691692  0.64241680  1
  O  O56  1  0.64832082  0.51558390  0.63886737  1
  O  O57  1  0.87308308  0.50355301  0.14241680  1
  O  O58  1  0.62501989  0.10861715  0.13823900  1
  O  O59  1  0.48441610  0.35167918  0.13886737  1
  O  O60  1  0.45576404  0.30557331  0.02852460  1
  O  O61  1  0.84231428  0.53909965  0.02007352  1
  O  O62  1  0.69060377  0.15089124  0.02907966  1
  O  O63  1  0.46090035  0.15768572  0.52007352  1
  O  O64  1  0.69442669  0.54423596  0.52852460  1
  O  O65  1  0.84910876  0.30939623  0.52907966  1
  O  O66  1  0.52549723  0.68073670  0.97302203  1
  O  O67  1  0.15037795  0.45265929  0.97464441  1
  O  O68  1  0.27844753  0.83701997  0.96999115  1
  O  O69  1  0.54734071  0.84962205  0.47464441  1
  O  O70  1  0.31926330  0.47450277  0.47302203  1
  O  O71  1  0.16298003  0.72155247  0.46999115  1
  O  O72  1  0.10718005  0.63305658  0.35074248  1
  O  O73  1  0.50649220  0.85630185  0.36409097  1
  O  O74  1  0.36428880  0.48641771  0.36251755  1
  O  O75  1  0.14369815  0.49350780  0.86409097  1
  O  O76  1  0.36694342  0.89281995  0.85074248  1
  O  O77  1  0.51358229  0.63571120  0.86251755  1
  O  O78  1  0.01900368  0.85113830  0.40635120  1
  O  O79  1  0.80065250  0.97302487  0.41255354  1
  O  O80  1  0.17279369  0.20426252  0.41532335  1
  O  O81  1  0.02697513  0.19934750  0.91255354  1
  O  O82  1  0.14886170  0.98099632  0.90635120  1
  O  O83  1  0.79573748  0.82720631  0.91532335  1
  O  O84  1  0.97272345  0.17420624  0.58726394  1
  O  O85  1  0.17293601  0.02138527  0.59086191  1
  O  O86  1  0.82016023  0.80396817  0.58708069  1
  O  O87  1  0.97861473  0.82706399  0.09086191  1
  O  O88  1  0.82579376  0.02727655  0.08726394  1
  O  O89  1  0.19603183  0.17983977  0.08708069  1
  O  O90  1  0.68988758  0.17451725  0.74660459  1
  O  O91  1  0.47728307  0.32658584  0.74397148  1
  O  O92  1  0.82819843  0.52696506  0.74007283  1
  O  O93  1  0.67341416  0.52271693  0.24397148  1
  O  O94  1  0.82548275  0.31011242  0.24660459  1
  O  O95  1  0.47303494  0.17180157  0.24007283  1
  O  O96  1  0.64475134  0.51010157  0.92105051  1
  O  O97  1  0.87412414  0.36738500  0.91952646  1
  O  O98  1  0.51420462  0.16638982  0.92494606  1
  O  O99  1  0.63261500  0.12587586  0.41952646  1
  O  O100  1  0.48989843  0.35524866  0.42105051  1
  O  O101  1  0.83361018  0.48579538  0.42494606  1
  O  O102  1  0.36543654  0.49825041  0.07962890  1
  O  O103  1  0.14988657  0.63750890  0.07858801  1
  O  O104  1  0.50725135  0.85482193  0.07546372  1
  O  O105  1  0.36249110  0.85011343  0.57858801  1
  O  O106  1  0.50174959  0.63456346  0.57962890  1
  O  O107  1  0.14517807  0.49274865  0.57546372  1
  O  O108  1  0.33001600  0.85107743  0.25447671  1
  O  O109  1  0.52709909  0.69751724  0.26001167  1
  O  O110  1  0.17440885  0.48148534  0.25054508  1
  O  O111  1  0.30248276  0.47290091  0.76001167  1
  O  O112  1  0.14892257  0.66998400  0.75447671  1
  O  O113  1  0.51851466  0.82559115  0.75054508  1
