# generated using pymatgen
data_Na18Mg8Ta16Si21(S5O48)3
_symmetry_space_group_name_H-M   'P 1'
_cell_length_a   17.79411458
_cell_length_b   8.89926451
_cell_length_c   22.74786882
_cell_angle_alpha   89.90614327
_cell_angle_beta   90.10217963
_cell_angle_gamma   120.09034649
_symmetry_Int_Tables_number   1
_chemical_formula_structural   Na18Mg8Ta16Si21(S5O48)3
_chemical_formula_sum   'Na18 Mg8 Ta16 Si21 S15 O144'
_cell_volume   3116.77100998
_cell_formula_units_Z   1
loop_
 _symmetry_equiv_pos_site_id
 _symmetry_equiv_pos_as_xyz
  1  'x, y, z'
loop_
 _atom_site_type_symbol
 _atom_site_label
 _atom_site_symmetry_multiplicity
 _atom_site_fract_x
 _atom_site_fract_y
 _atom_site_fract_z
 _atom_site_occupancy
  Na  Na0  1  0.31894785  0.01469261  0.24179483  1
  Na  Na1  1  0.81618919  0.01280608  0.24269214  1
  Na  Na2  1  0.99764988  0.63748610  0.24304448  1
  Na  Na3  1  0.32462518  0.62261316  0.74580601  1
  Na  Na4  1  0.81671450  0.61993009  0.74363907  1
  Na  Na5  1  0.49525054  0.36144415  0.74208729  1
  Na  Na6  1  0.99075764  0.98494932  0.49142696  1
  Na  Na7  1  0.49126671  0.98903146  0.49360212  1
  Na  Na8  1  0.99117785  0.99456479  0.98859078  1
  Na  Na9  1  0.49168234  0.99682990  0.98904078  1
  Na  Na10  1  0.32900737  0.33941495  0.82632185  1
  Na  Na11  1  0.82585310  0.32327126  0.82839498  1
  Na  Na12  1  0.32875012  0.33093446  0.33066561  1
  Na  Na13  1  0.81854635  0.31539222  0.33310912  1
  Na  Na14  1  0.16807761  0.67324378  0.16071308  1
  Na  Na15  1  0.65803220  0.66815605  0.16238160  1
  Na  Na16  1  0.16108475  0.65077309  0.66433148  1
  Na  Na17  1  0.66281743  0.66220692  0.66442950  1
  Mg  Mg18  1  0.00173271  0.99661528  0.35820236  1
  Mg  Mg19  1  0.50230005  0.99630439  0.35764294  1
  Mg  Mg20  1  0.00054541  0.00712267  0.85708067  1
  Mg  Mg21  1  0.50005481  0.99721809  0.85516988  1
  Mg  Mg22  1  0.33639300  0.34973833  0.68546215  1
  Mg  Mg23  1  0.83313340  0.33869801  0.68354413  1
  Mg  Mg24  1  0.33382896  0.32719325  0.18327149  1
  Mg  Mg25  1  0.82854189  0.32171717  0.18168187  1
  Ta  Ta26  1  0.00035607  0.01126056  0.64339170  1
  Ta  Ta27  1  0.50252965  0.99948837  0.64570253  1
  Ta  Ta28  1  0.00154658  0.99164331  0.14134295  1
  Ta  Ta29  1  0.50108542  0.99007976  0.14257956  1
  Ta  Ta30  1  0.34436850  0.34463745  0.97736349  1
  Ta  Ta31  1  0.84277379  0.34349427  0.97777696  1
  Ta  Ta32  1  0.34405255  0.34227181  0.47995004  1
  Ta  Ta33  1  0.84313767  0.34120569  0.47878344  1
  Ta  Ta34  1  0.16867470  0.66944401  0.01959818  1
  Ta  Ta35  1  0.66887674  0.66831763  0.01926892  1
  Ta  Ta36  1  0.16914968  0.67260277  0.52138685  1
  Ta  Ta37  1  0.66852739  0.67001967  0.52134698  1
  Ta  Ta38  1  0.16611317  0.67893427  0.31549349  1
  Ta  Ta39  1  0.66050958  0.67689824  0.31455827  1
  Ta  Ta40  1  0.16260098  0.64553982  0.81335118  1
  Ta  Ta41  1  0.66193293  0.65078445  0.81179352  1
  Si  Si42  1  0.14783096  0.01704009  0.25342362  1
  Si  Si43  1  0.64675270  0.01562125  0.25345712  1
  Si  Si44  1  0.14552511  0.27592141  0.75363525  1
  Si  Si45  1  0.64789184  0.27669900  0.75322817  1
  Si  Si46  1  0.50022619  0.71298839  0.75405485  1
  Si  Si47  1  0.48012131  0.33201028  0.58776964  1
  Si  Si48  1  0.97851307  0.34042642  0.58671996  1
  Si  Si49  1  0.33439302  0.62322297  0.58592431  1
  Si  Si50  1  0.83390472  0.62063027  0.58654161  1
  Si  Si51  1  0.47869567  0.61486883  0.08627845  1
  Si  Si52  1  0.97869477  0.61413161  0.08762200  1
  Si  Si53  1  0.33307778  0.04643233  0.08666030  1
  Si  Si54  1  0.83249819  0.04463093  0.08611516  1
  Si  Si55  1  0.31471061  0.66705258  0.91724512  1
  Si  Si56  1  0.81451245  0.66838277  0.91566889  1
  Si  Si57  1  0.02246390  0.36894438  0.91825586  1
  Si  Si58  1  0.52349307  0.36733838  0.91701522  1
  Si  Si59  1  0.31601886  0.96652223  0.41796961  1
  Si  Si60  1  0.81421691  0.96216421  0.41691078  1
  Si  Si61  1  0.02180054  0.67404919  0.41795497  1
  Si  Si62  1  0.52127523  0.67605527  0.41920892  1
  S  S63  1  0.35590260  0.70820212  0.25055328  1
  S  S64  1  0.85446732  0.70986112  0.25003330  1
  S  S65  1  0.00277454  0.28798700  0.25134421  1
  S  S66  1  0.50260678  0.28847567  0.25136809  1
  S  S67  1  0.00256698  0.71663691  0.75150928  1
  S  S68  1  0.35330904  0.99780421  0.75021725  1
  S  S69  1  0.85715944  0.00440551  0.75044425  1
  S  S70  1  0.18928527  0.04671011  0.58416456  1
  S  S71  1  0.68979200  0.04652106  0.58327869  1
  S  S72  1  0.18937306  0.33402589  0.08398250  1
  S  S73  1  0.68861305  0.33330596  0.08367882  1
  S  S74  1  0.16758917  0.95518168  0.91636655  1
  S  S75  1  0.66816752  0.95592054  0.91720675  1
  S  S76  1  0.16737526  0.38090753  0.41714960  1
  S  S77  1  0.66723375  0.38147882  0.41670674  1
  O  O78  1  0.09473297  0.01853606  0.30793745  1
  O  O79  1  0.59805847  0.02657514  0.30901755  1
  O  O80  1  0.40580836  0.79203657  0.30273895  1
  O  O81  1  0.90681445  0.79172156  0.30163102  1
  O  O82  1  0.48837467  0.18121341  0.30311470  1
  O  O83  1  0.98875759  0.18160415  0.30297138  1
  O  O84  1  0.09592264  0.16889198  0.80924861  1
  O  O85  1  0.59757836  0.17638129  0.80968637  1
  O  O86  1  0.47751190  0.79700750  0.80700343  1
  O  O87  1  0.98841105  0.79522992  0.80316998  1
  O  O88  1  0.40496973  0.02651433  0.80264642  1
  O  O89  1  0.90757326  0.02239573  0.80252367  1
  O  O90  1  0.39333945  0.96238765  0.69664952  1
  O  O91  1  0.89789208  0.96959803  0.69589914  1
  O  O92  1  0.08291774  0.18778310  0.69292187  1
  O  O93  1  0.58386408  0.19647803  0.69280070  1
  O  O94  1  0.01376682  0.82146816  0.69693171  1
  O  O95  1  0.51306881  0.83408400  0.69292308  1
  O  O96  1  0.39552403  0.82474218  0.19632566  1
  O  O97  1  0.89557896  0.82471570  0.19578550  1
  O  O98  1  0.01283925  0.20609744  0.19686205  1
  O  O99  1  0.51378848  0.20670050  0.19699471  1
  O  O100  1  0.08299907  0.97403937  0.19318491  1
  O  O101  1  0.58487802  0.98153402  0.19281294  1
  O  O102  1  0.43990268  0.36046356  0.64548552  1
  O  O103  1  0.93584424  0.36544935  0.64297977  1
  O  O104  1  0.24067711  0.11891587  0.63661827  1
  O  O105  1  0.74017197  0.11752215  0.63629613  1
  O  O106  1  0.31268118  0.51630617  0.64495523  1
  O  O107  1  0.81423517  0.51707240  0.64630051  1
  O  O108  1  0.43598588  0.50688471  0.14328069  1
  O  O109  1  0.93931031  0.51656086  0.14782034  1
  O  O110  1  0.31309472  0.10867829  0.14688146  1
  O  O111  1  0.81547199  0.11104010  0.14644055  1
  O  O112  1  0.23945209  0.36157709  0.13750651  1
  O  O113  1  0.73965863  0.36301084  0.13668543  1
  O  O114  1  0.22534715  0.30239290  0.03075276  1
  O  O115  1  0.72577422  0.30250174  0.03046474  1
  O  O116  1  0.41784018  0.53253088  0.02614472  1
  O  O117  1  0.91607815  0.52733733  0.02904440  1
  O  O118  1  0.34414653  0.16910308  0.02863177  1
  O  O119  1  0.84436712  0.16800118  0.02833419  1
  O  O120  1  0.22632029  0.14937842  0.52993152  1
  O  O121  1  0.72938679  0.15011679  0.52948471  1
  O  O122  1  0.34384478  0.52012491  0.52732822  1
  O  O123  1  0.84485274  0.51953932  0.52792265  1
  O  O124  1  0.41749775  0.30353392  0.52792886  1
  O  O125  1  0.91810326  0.30253827  0.52591305  1
  O  O126  1  0.25855660  0.68156270  0.97267416  1
  O  O127  1  0.76119242  0.68700921  0.97217410  1
  O  O128  1  0.08055612  0.48426131  0.97400462  1
  O  O129  1  0.58230195  0.48452405  0.97260038  1
  O  O130  1  0.15879638  0.84882708  0.97061943  1
  O  O131  1  0.65982691  0.85022937  0.97123241  1
  O  O132  1  0.26104249  0.83649676  0.47216435  1
  O  O133  1  0.76089046  0.83529710  0.47211698  1
  O  O134  1  0.15846097  0.46891027  0.47002980  1
  O  O135  1  0.65897164  0.46948566  0.47010848  1
  O  O136  1  0.08214819  0.67800621  0.47212730  1
  O  O137  1  0.58198501  0.67919639  0.47312724  1
  O  O138  1  0.06699345  0.63594334  0.35776523  1
  O  O139  1  0.56625217  0.63628214  0.35977329  1
  O  O140  1  0.25117977  0.86318174  0.35835498  1
  O  O141  1  0.75015422  0.85957514  0.35758896  1
  O  O142  1  0.18124060  0.49336280  0.36334330  1
  O  O143  1  0.68167936  0.49301542  0.36327882  1
  O  O144  1  0.06751953  0.49939992  0.85995906  1
  O  O145  1  0.56668379  0.49577187  0.85799514  1
  O  O146  1  0.18206847  0.87282506  0.86382886  1
  O  O147  1  0.68333526  0.87532728  0.86484579  1
  O  O148  1  0.25030152  0.64069344  0.85856728  1
  O  O149  1  0.75249037  0.64451426  0.85739764  1
  O  O150  1  0.01280074  0.83994648  0.41479110  1
  O  O151  1  0.51258037  0.84205533  0.41590056  1
  O  O152  1  0.40893934  0.99102308  0.40929832  1
  O  O153  1  0.90816286  0.98967007  0.40904251  1
  O  O154  1  0.08931337  0.21385703  0.41165536  1
  O  O155  1  0.58951952  0.21399632  0.41211489  1
  O  O156  1  0.01302119  0.18484249  0.91591941  1
  O  O157  1  0.51326905  0.18278970  0.91444799  1
  O  O158  1  0.08969146  0.96629202  0.91278509  1
  O  O159  1  0.59083595  0.96955206  0.91418842  1
  O  O160  1  0.40713883  0.83208277  0.91405833  1
  O  O161  1  0.90954772  0.82767797  0.91055354  1
  O  O162  1  0.49093350  0.15947877  0.58989182  1
  O  O163  1  0.98922704  0.16329947  0.59070437  1
  O  O164  1  0.09897754  0.02046921  0.58984499  1
  O  O165  1  0.60097740  0.02560160  0.58731117  1
  O  O166  1  0.42162345  0.81787778  0.58992923  1
  O  O167  1  0.92264275  0.81549624  0.59239963  1
  O  O168  1  0.48931825  0.81456821  0.09146335  1
  O  O169  1  0.98894275  0.81383727  0.09116354  1
  O  O170  1  0.42201178  0.02904570  0.09389935  1
  O  O171  1  0.92223604  0.02824677  0.09345144  1
  O  O172  1  0.09846473  0.17724595  0.09087109  1
  O  O173  1  0.59848053  0.17763411  0.09022806  1
  O  O174  1  0.34057254  0.14585908  0.73998976  1
  O  O175  1  0.84501564  0.15266679  0.74124051  1
  O  O176  1  0.24346385  0.32014030  0.74556278  1
  O  O177  1  0.74688886  0.32083550  0.74628563  1
  O  O178  1  0.42326194  0.51347275  0.74637525  1
  O  O179  1  0.92829274  0.53902353  0.74511107  1
  O  O180  1  0.34297814  0.53540367  0.24171372  1
  O  O181  1  0.84540300  0.53763652  0.24161128  1
  O  O182  1  0.42838743  0.31774633  0.24516766  1
  O  O183  1  0.92897890  0.32069327  0.24590079  1
  O  O184  1  0.24686909  0.16916832  0.24706996  1
  O  O185  1  0.74649238  0.16924176  0.24643276  1
  O  O186  1  0.31070980  0.47829610  0.92635973  1
  O  O187  1  0.81173147  0.48022240  0.92698722  1
  O  O188  1  0.42780439  0.36105826  0.92329343  1
  O  O189  1  0.92703443  0.36262630  0.92340411  1
  O  O190  1  0.24698993  0.12846059  0.92378069  1
  O  O191  1  0.74805481  0.13008207  0.92450358  1
  O  O192  1  0.31062896  0.14475414  0.42565730  1
  O  O193  1  0.81057727  0.14341025  0.42492163  1
  O  O194  1  0.24675513  0.36687024  0.42228080  1
  O  O195  1  0.74695406  0.36686365  0.42264317  1
  O  O196  1  0.42633023  0.49134261  0.42319365  1
  O  O197  1  0.92636178  0.49043579  0.42219986  1
  O  O198  1  0.17552545  0.48630857  0.07687795  1
  O  O199  1  0.67587205  0.48664480  0.07620485  1
  O  O200  1  0.07616386  0.64828107  0.07493999  1
  O  O201  1  0.57671285  0.65027227  0.07331198  1
  O  O202  1  0.25185231  0.84789362  0.07258589  1
  O  O203  1  0.75193396  0.84695861  0.07283528  1
  O  O204  1  0.17601291  0.86585006  0.57614611  1
  O  O205  1  0.67677569  0.86618126  0.57576848  1
  O  O206  1  0.25149289  0.65440687  0.57097358  1
  O  O207  1  0.75257905  0.65505251  0.57161037  1
  O  O208  1  0.07632858  0.50260805  0.57291510  1
  O  O209  1  0.57659144  0.50222835  0.57282266  1
  O  O210  1  0.15271042  0.82108055  0.25627020  1
  O  O211  1  0.65481878  0.82541107  0.25633175  1
  O  O212  1  0.26681728  0.69710074  0.25411129  1
  O  O213  1  0.76642971  0.69492258  0.25339086  1
  O  O214  1  0.08488507  0.46602682  0.25535895  1
  O  O215  1  0.58590780  0.46412625  0.25641486  1
  O  O216  1  0.15322384  0.48225627  0.75679247  1
  O  O217  1  0.65549770  0.48343247  0.75583051  1
  O  O218  1  0.08587453  0.70835917  0.75652533  1
  O  O219  1  0.59359870  0.70652086  0.75830608  1
  O  O220  1  0.26494802  0.83287213  0.75493504  1
  O  O221  1  0.76998240  0.83816732  0.75307069  1
