# generated using pymatgen
data_Na3Si2Ge2PO12
_symmetry_space_group_name_H-M   'P 1'
_cell_length_a   15.07647962
_cell_length_b   8.68083325
_cell_length_c   8.88181850
_cell_angle_alpha   90.00000000
_cell_angle_beta   125.84757859
_cell_angle_gamma   90.00000000
_symmetry_Int_Tables_number   1
_chemical_formula_structural   Na3Si2Ge2PO12
_chemical_formula_sum   'Na12 Si8 Ge8 P4 O48'
_cell_volume   942.23222207
_cell_formula_units_Z   4
loop_
 _symmetry_equiv_pos_site_id
 _symmetry_equiv_pos_as_xyz
  1  'x, y, z'
loop_
 _atom_site_type_symbol
 _atom_site_label
 _atom_site_symmetry_multiplicity
 _atom_site_fract_x
 _atom_site_fract_y
 _atom_site_fract_z
 _atom_site_occupancy
  Na  Na0  1  0.24815493  0.76978179  0.99835076  1
  Na  Na1  1  0.74815493  0.73021821  0.49835076  1
  Na  Na2  1  0.74815493  0.26978179  0.99835076  1
  Na  Na3  1  0.24815493  0.23021821  0.49835076  1
  Na  Na4  1  0.50259269  0.12009675  0.75136395  1
  Na  Na5  1  0.50259269  0.87990325  0.25136395  1
  Na  Na6  1  0.00259269  0.62009675  0.75136395  1
  Na  Na7  1  0.00259269  0.37990325  0.25136395  1
  Na  Na8  1  0.81293783  0.93600315  0.23785482  1
  Na  Na9  1  0.81293783  0.06399685  0.73785482  1
  Na  Na10  1  0.31293783  0.43600315  0.23785482  1
  Na  Na11  1  0.31293783  0.56399685  0.73785482  1
  Si  Si12  1  0.35577046  0.89422032  0.75201953  1
  Si  Si13  1  0.64475400  0.88744866  0.74687437  1
  Si  Si14  1  0.64475400  0.11255134  0.24687437  1
  Si  Si15  1  0.35577046  0.10577968  0.25201953  1
  Si  Si16  1  0.85577046  0.39422032  0.75201953  1
  Si  Si17  1  0.14475400  0.38744866  0.74687437  1
  Si  Si18  1  0.14475400  0.61255134  0.24687437  1
  Si  Si19  1  0.85577046  0.60577968  0.25201953  1
  Ge  Ge20  1  0.10468256  0.74785141  0.55986980  1
  Ge  Ge21  1  0.89444527  0.73868937  0.93926476  1
  Ge  Ge22  1  0.89444527  0.26131063  0.43926476  1
  Ge  Ge23  1  0.10468256  0.25214859  0.05986980  1
  Ge  Ge24  1  0.60468256  0.24785141  0.55986980  1
  Ge  Ge25  1  0.39444527  0.23868937  0.93926476  1
  Ge  Ge26  1  0.39444527  0.76131063  0.43926476  1
  Ge  Ge27  1  0.60468256  0.75214859  0.05986980  1
  P  P28  1  0.00230692  0.96708247  0.74429789  1
  P  P29  1  0.00230692  0.03291753  0.24429789  1
  P  P30  1  0.50230692  0.46708247  0.74429789  1
  P  P31  1  0.50230692  0.53291753  0.24429789  1
  O  O32  1  0.14844567  0.57831452  0.73250718  1
  O  O33  1  0.85499787  0.58148542  0.76537350  1
  O  O34  1  0.85499787  0.41851458  0.26537350  1
  O  O35  1  0.14844567  0.42168548  0.23250718  1
  O  O36  1  0.64844567  0.07831452  0.73250718  1
  O  O37  1  0.35499787  0.08148542  0.76537350  1
  O  O38  1  0.35499787  0.91851458  0.26537350  1
  O  O39  1  0.64844567  0.92168548  0.23250718  1
  O  O40  1  0.42810400  0.56349031  0.56419164  1
  O  O41  1  0.57049126  0.56585114  0.92147794  1
  O  O42  1  0.57049126  0.43414886  0.42147794  1
  O  O43  1  0.42810400  0.43650969  0.06419164  1
  O  O44  1  0.92810400  0.06349031  0.56419164  1
  O  O45  1  0.07049126  0.06585114  0.92147794  1
  O  O46  1  0.07049126  0.93414886  0.42147794  1
  O  O47  1  0.92810400  0.93650969  0.06419164  1
  O  O48  1  0.25078392  0.81173928  0.72772584  1
  O  O49  1  0.75328555  0.81937485  0.76952351  1
  O  O50  1  0.75328555  0.18062515  0.26952351  1
  O  O51  1  0.25078392  0.18826072  0.22772584  1
  O  O52  1  0.75078392  0.31173928  0.72772584  1
  O  O53  1  0.25328555  0.31937485  0.76952351  1
  O  O54  1  0.25328555  0.68062515  0.26952351  1
  O  O55  1  0.75078392  0.68826072  0.22772584  1
  O  O56  1  0.36607012  0.86843423  0.58094004  1
  O  O57  1  0.63995716  0.86898256  0.92591486  1
  O  O58  1  0.63995716  0.13101744  0.42591486  1
  O  O59  1  0.36607012  0.13156577  0.08094004  1
  O  O60  1  0.86607012  0.36843423  0.58094004  1
  O  O61  1  0.13995716  0.36898256  0.92591486  1
  O  O62  1  0.13995716  0.63101744  0.42591486  1
  O  O63  1  0.86607012  0.63156577  0.08094004  1
  O  O64  1  0.45872520  0.80840648  0.94021256  1
  O  O65  1  0.54004069  0.81215015  0.55555514  1
  O  O66  1  0.54004069  0.18784985  0.05555514  1
  O  O67  1  0.45872520  0.19159352  0.44021256  1
  O  O68  1  0.95872520  0.30840648  0.94021256  1
  O  O69  1  0.04004069  0.31215015  0.55555514  1
  O  O70  1  0.04004069  0.68784985  0.05555514  1
  O  O71  1  0.95872520  0.69159352  0.44021256  1
  O  O72  1  0.08422117  0.86363958  0.73852918  1
  O  O73  1  0.91923270  0.86356863  0.74815275  1
  O  O74  1  0.91923270  0.13643137  0.24815275  1
  O  O75  1  0.08422117  0.13636042  0.23852918  1
  O  O76  1  0.58422117  0.36363958  0.73852918  1
  O  O77  1  0.41923270  0.36356863  0.74815275  1
  O  O78  1  0.41923270  0.63643137  0.24815275  1
  O  O79  1  0.58422117  0.63636042  0.23852918  1
