# generated using pymatgen
data_Na6Nb4Zn4Si5S7O48
_symmetry_space_group_name_H-M   'P 1'
_cell_length_a   17.82998107
_cell_length_b   8.99341993
_cell_length_c   22.74702374
_cell_angle_alpha   90.15520886
_cell_angle_beta   89.56424690
_cell_angle_gamma   120.46041319
_symmetry_Int_Tables_number   1
_chemical_formula_structural   Na6Nb4Zn4Si5S7O48
_chemical_formula_sum   'Na18 Nb12 Zn12 Si15 S21 O144'
_cell_volume   3144.01341623
_cell_formula_units_Z   3
loop_
 _symmetry_equiv_pos_site_id
 _symmetry_equiv_pos_as_xyz
  1  'x, y, z'
loop_
 _atom_site_type_symbol
 _atom_site_label
 _atom_site_symmetry_multiplicity
 _atom_site_fract_x
 _atom_site_fract_y
 _atom_site_fract_z
 _atom_site_occupancy
  Na  Na0  1  0.99868233  0.60547870  0.24911379  1
  Na  Na1  1  0.50110051  0.62091086  0.25029861  1
  Na  Na2  1  0.00152935  0.38476613  0.75026852  1
  Na  Na3  1  0.49859726  0.38930775  0.74919395  1
  Na  Na4  1  0.32859297  0.97082964  0.57738554  1
  Na  Na5  1  0.82790624  0.68662774  0.08138336  1
  Na  Na6  1  0.98994270  0.97782133  0.49645232  1
  Na  Na7  1  0.50516252  0.99892512  0.49616761  1
  Na  Na8  1  0.00663843  0.00916792  0.00122311  1
  Na  Na9  1  0.48844068  0.99582318  0.00138795  1
  Na  Na10  1  0.32480168  0.34963868  0.82490619  1
  Na  Na11  1  0.81608372  0.31579717  0.82620352  1
  Na  Na12  1  0.32605619  0.31936255  0.32024415  1
  Na  Na13  1  0.82375631  0.30257534  0.32253728  1
  Na  Na14  1  0.17595345  0.68220799  0.16978614  1
  Na  Na15  1  0.66803415  0.68506799  0.17132722  1
  Na  Na16  1  0.17738485  0.65017930  0.66359261  1
  Na  Na17  1  0.67194746  0.66404015  0.66794898  1
  Nb  Nb18  1  0.00258757  0.99625190  0.35831154  1
  Nb  Nb19  1  0.50068502  0.00207065  0.34678080  1
  Nb  Nb20  1  0.00143076  0.01152889  0.85026862  1
  Nb  Nb21  1  0.50326128  0.00868889  0.85888462  1
  Nb  Nb22  1  0.99626457  0.00494112  0.64783402  1
  Nb  Nb23  1  0.50264915  0.00744380  0.64076057  1
  Nb  Nb24  1  0.00336316  0.99857371  0.14092655  1
  Nb  Nb25  1  0.49671240  0.00309465  0.15165812  1
  Nb  Nb26  1  0.33820514  0.33876774  0.97730961  1
  Nb  Nb27  1  0.83651403  0.33052907  0.98686662  1
  Nb  Nb28  1  0.33800292  0.34449088  0.48575019  1
  Nb  Nb29  1  0.83589274  0.33224009  0.47523039  1
  Zn  Zn30  1  0.33278885  0.36110460  0.68114503  1
  Zn  Zn31  1  0.81970081  0.31173993  0.69385439  1
  Zn  Zn32  1  0.32956650  0.32377735  0.19762129  1
  Zn  Zn33  1  0.83218275  0.30557604  0.18144895  1
  Zn  Zn34  1  0.17277440  0.67943550  0.02054079  1
  Zn  Zn35  1  0.66277858  0.67037613  0.01499644  1
  Zn  Zn36  1  0.16662849  0.66080563  0.51217618  1
  Zn  Zn37  1  0.66942183  0.66367807  0.51776855  1
  Zn  Zn38  1  0.16716683  0.68862299  0.30856372  1
  Zn  Zn39  1  0.67252802  0.69584594  0.30683332  1
  Zn  Zn40  1  0.18250250  0.65022478  0.81182016  1
  Zn  Zn41  1  0.66634931  0.64733464  0.80868985  1
  Si  Si42  1  0.14493655  0.99837860  0.24888684  1
  Si  Si43  1  0.65353396  0.01328625  0.24643905  1
  Si  Si44  1  0.34485506  0.70026279  0.25107863  1
  Si  Si45  1  0.50785000  0.30851573  0.25077854  1
  Si  Si46  1  0.15430283  0.30208385  0.74755263  1
  Si  Si47  1  0.64618326  0.29277052  0.74902724  1
  Si  Si48  1  0.84518784  0.99369391  0.75100260  1
  Si  Si49  1  0.48666058  0.35578751  0.59059970  1
  Si  Si50  1  0.32351679  0.62608158  0.58600443  1
  Si  Si51  1  0.98707568  0.61901176  0.09052925  1
  Si  Si52  1  0.82442139  0.02014796  0.08557484  1
  Si  Si53  1  0.30755812  0.66602205  0.91908966  1
  Si  Si54  1  0.53026178  0.39378927  0.91411331  1
  Si  Si55  1  0.80433165  0.93757229  0.41780003  1
  Si  Si56  1  0.03080620  0.66875577  0.41505310  1
  S  S57  1  0.85798176  0.71756917  0.24911296  1
  S  S58  1  -0.00007933  0.27893926  0.24993397  1
  S  S59  1  0.00459999  0.72043974  0.74969706  1
  S  S60  1  0.49975305  0.72013548  0.74966719  1
  S  S61  1  0.35562773  0.99570425  0.74988978  1
  S  S62  1  0.97645760  0.33009722  0.58691971  1
  S  S63  1  0.18427373  0.04314205  0.58490816  1
  S  S64  1  0.69029743  0.04360100  0.58433258  1
  S  S65  1  0.83712564  0.61975265  0.58783457  1
  S  S66  1  0.47744491  0.62892458  0.08514043  1
  S  S67  1  0.33663272  0.05112546  0.08576572  1
  S  S68  1  0.19237382  0.33591442  0.08521716  1
  S  S69  1  0.68364092  0.32419310  0.08348070  1
  S  S70  1  0.82010591  0.66341775  0.91681886  1
  S  S71  1  0.01509436  0.36805328  0.91455927  1
  S  S72  1  0.16474665  0.95984372  0.91571648  1
  S  S73  1  0.67126882  0.96957375  0.91623223  1
  S  S74  1  0.31982495  0.97428244  0.41960332  1
  S  S75  1  0.17063731  0.37152712  0.41758797  1
  S  S76  1  0.66340169  0.36415824  0.41888132  1
  S  S77  1  0.51602809  0.66919939  0.41742729  1
  O  O78  1  0.08799523  0.00600793  0.30627730  1
  O  O79  1  0.59563690  0.01510809  0.30634337  1
  O  O80  1  0.41064074  0.81552328  0.30768364  1
  O  O81  1  0.91088747  0.82143823  0.30055237  1
  O  O82  1  0.49680444  0.17789642  0.30719756  1
  O  O83  1  0.99597418  0.18111687  0.30375930  1
  O  O84  1  0.09457971  0.18025407  0.80651231  1
  O  O85  1  0.59005392  0.16913999  0.80610311  1
  O  O86  1  0.49571379  0.80991987  0.80365369  1
  O  O87  1  0.99683660  0.81168543  0.80310197  1
  O  O88  1  0.40792414  0.99601207  0.80112700  1
  O  O89  1  0.91292875  0.00585954  0.80564736  1
  O  O90  1  0.39737409  0.98179681  0.69315485  1
  O  O91  1  0.90206245  0.97679511  0.69226396  1
  O  O92  1  0.08488267  0.18029278  0.69233830  1
  O  O93  1  0.58564570  0.17167219  0.69186534  1
  O  O94  1  0.00918121  0.82259998  0.69582799  1
  O  O95  1  0.49538110  0.81294151  0.69586032  1
  O  O96  1  0.40085917  0.83233543  0.19255771  1
  O  O97  1  0.90102958  0.81383768  0.19230915  1
  O  O98  1  0.99562179  0.17748759  0.19575636  1
  O  O99  1  0.51174761  0.19738149  0.19163728  1
  O  O100  1  0.08371855  0.99462896  0.19169138  1
  O  O101  1  0.58575014  0.99274286  0.19057422  1
  O  O102  1  0.43747445  0.35565579  0.64997284  1
  O  O103  1  0.93588438  0.34138310  0.64153259  1
  O  O104  1  0.23628330  0.12521459  0.63698314  1
  O  O105  1  0.73847380  0.12436775  0.63769067  1
  O  O106  1  0.30205053  0.51268390  0.64338511  1
  O  O107  1  0.83509312  0.52408330  0.64009813  1
  O  O108  1  0.43611880  0.53559075  0.13900435  1
  O  O109  1  0.93699679  0.51932404  0.14927560  1
  O  O110  1  0.33482433  0.14205495  0.13793747  1
  O  O111  1  0.80498336  0.09732262  0.14175800  1
  O  O112  1  0.24091936  0.34740687  0.13730787  1
  O  O113  1  0.73579388  0.34729883  0.13514581  1
  O  O114  1  0.23125812  0.30567252  0.03089363  1
  O  O115  1  0.73123669  0.30820443  0.02845642  1
  O  O116  1  0.42162215  0.52801444  0.03209108  1
  O  O117  1  0.91628774  0.51769392  0.03214158  1
  O  O118  1  0.34166997  0.15097906  0.03065286  1
  O  O119  1  0.84007617  0.15701448  0.02743090  1
  O  O120  1  0.22786403  0.15163487  0.53035157  1
  O  O121  1  0.73189803  0.15621082  0.53194848  1
  O  O122  1  0.33893014  0.52113783  0.52886375  1
  O  O123  1  0.84562777  0.53628497  0.53276604  1
  O  O124  1  0.41545983  0.31409027  0.53341139  1
  O  O125  1  0.92167322  0.30884400  0.53445369  1
  O  O126  1  0.27105948  0.71226436  0.97583600  1
  O  O127  1  0.79031742  0.69551440  0.97310570  1
  O  O128  1  0.06691648  0.44610934  0.96633810  1
  O  O129  1  0.58778961  0.47034007  0.97111838  1
  O  O130  1  0.14713842  0.85983447  0.96952454  1
  O  O131  1  0.65853416  0.87424139  0.97054645  1
  O  O132  1  0.28594161  0.88267153  0.47580763  1
  O  O133  1  0.77274641  0.83209949  0.47798739  1
  O  O134  1  0.15673441  0.44086776  0.47194566  1
  O  O135  1  0.64939725  0.43463216  0.47254509  1
  O  O136  1  0.08594379  0.70352200  0.47308652  1
  O  O137  1  0.56673272  0.68713595  0.46916179  1
  O  O138  1  0.05910937  0.62294404  0.35387443  1
  O  O139  1  0.54713346  0.64163822  0.36139904  1
  O  O140  1  0.26728007  0.88941824  0.36846378  1
  O  O141  1  0.74825650  0.87665692  0.35943195  1
  O  O142  1  0.18636006  0.47245413  0.36479663  1
  O  O143  1  0.67906966  0.46151758  0.36520922  1
  O  O144  1  0.04850811  0.45742659  0.85855549  1
  O  O145  1  0.55761904  0.49360586  0.85241727  1
  O  O146  1  0.17787536  0.88617915  0.86251984  1
  O  O147  1  0.68610065  0.89942417  0.86311267  1
  O  O148  1  0.25437043  0.60648011  0.85912036  1
  O  O149  1  0.76732596  0.64398221  0.86601884  1
  O  O150  1  0.00822639  0.83030978  0.40800017  1
  O  O151  1  0.50018572  0.81895058  0.41468883  1
  O  O152  1  0.41108942  0.00326901  0.41363048  1
  O  O153  1  0.90717153  0.98501783  0.40509498  1
  O  O154  1  0.08934370  0.19124419  0.41179649  1
  O  O155  1  0.58853335  0.18015947  0.41405147  1
  O  O156  1  0.00057530  0.18286292  0.91062642  1
  O  O157  1  0.50825685  0.18657790  0.90665051  1
  O  O158  1  0.08808952  0.99110326  0.90873779  1
  O  O159  1  0.59025047  0.98749332  0.91088850  1
  O  O160  1  0.40954344  0.82891894  0.90648711  1
  O  O161  1  0.91292348  0.81750295  0.90809871  1
  O  O162  1  0.48642407  0.16380471  0.59116589  1
  O  O163  1  0.98058435  0.16076841  0.58759241  1
  O  O164  1  0.09609602  0.02952429  0.58694720  1
  O  O165  1  0.60039225  0.02994699  0.58644779  1
  O  O166  1  0.41806569  0.81562385  0.58924647  1
  O  O167  1  0.92198153  0.79869897  0.58888904  1
  O  O168  1  0.48047220  0.79995914  0.08266483  1
  O  O169  1  0.98682494  0.80931570  0.08964898  1
  O  O170  1  0.41993470  0.04208997  0.08375570  1
  O  O171  1  0.91858300  0.01994718  0.08786339  1
  O  O172  1  0.10094387  0.16963238  0.08669879  1
  O  O173  1  0.59756683  0.16057523  0.08276069  1
  O  O174  1  0.35596686  0.15830433  0.75121833  1
  O  O175  1  0.85789614  0.18368910  0.74912453  1
  O  O176  1  0.24268130  0.30143435  0.74659017  1
  O  O177  1  0.73920001  0.30947948  0.75016900  1
  O  O178  1  0.42283921  0.54421057  0.75136468  1
  O  O179  1  0.92635408  0.54895154  0.74829193  1
  O  O180  1  0.35553175  0.53535537  0.24752928  1
  O  O181  1  0.85845008  0.55573398  0.25079681  1
  O  O182  1  0.42190449  0.32038360  0.24835865  1
  O  O183  1  0.92297295  0.29989477  0.25167951  1
  O  O184  1  0.23485237  0.17217413  0.24957551  1
  O  O185  1  0.74261414  0.19175179  0.24478488  1
  O  O186  1  0.32545471  0.49916284  0.93320446  1
  O  O187  1  0.83126977  0.50751450  0.92117219  1
  O  O188  1  0.42660362  0.34870638  0.92990732  1
  O  O189  1  0.92366625  0.33847075  0.92188001  1
  O  O190  1  0.24297751  0.14229035  0.92335765  1
  O  O191  1  0.74539382  0.15528063  0.92289631  1
  O  O192  1  0.33013174  0.15254682  0.42495547  1
  O  O193  1  0.82352279  0.14582274  0.43208196  1
  O  O194  1  0.24422027  0.33421296  0.42536035  1
  O  O195  1  0.74378906  0.34102752  0.42748163  1
  O  O196  1  0.42372386  0.50780720  0.42580425  1
  O  O197  1  0.92697936  0.50177199  0.43089328  1
  O  O198  1  0.17753083  0.47969125  0.07903227  1
  O  O199  1  0.67447998  0.47517837  0.07542710  1
  O  O200  1  0.08074854  0.64808928  0.07576327  1
  O  O201  1  0.56457497  0.65390876  0.07770285  1
  O  O202  1  0.26120177  0.87672095  0.08280058  1
  O  O203  1  0.75033781  0.82450149  0.07124040  1
  O  O204  1  0.17321836  0.87167156  0.57819064  1
  O  O205  1  0.67560327  0.87080493  0.57754436  1
  O  O206  1  0.24996519  0.67499870  0.57210525  1
  O  O207  1  0.76395510  0.64846478  0.58523340  1
  O  O208  1  0.06472079  0.47443213  0.58040576  1
  O  O209  1  0.58144853  0.51271528  0.57678950  1
  O  O210  1  0.13859880  0.81452876  0.24579848  1
  O  O211  1  0.64777708  0.83013613  0.24615791  1
  O  O212  1  0.25367862  0.68946608  0.25522608  1
  O  O213  1  0.77264182  0.69996448  0.24976032  1
  O  O214  1  0.08106017  0.44444208  0.24683704  1
  O  O215  1  0.59614450  0.49044761  0.25516132  1
  O  O216  1  0.14581676  0.47291237  0.74739560  1
  O  O217  1  0.63998959  0.46397400  0.74593182  1
  O  O218  1  0.08420029  0.71211543  0.75215771  1
  O  O219  1  0.58084719  0.71724390  0.74649242  1
  O  O220  1  0.26780795  0.84301269  0.75098296  1
  O  O221  1  0.75398519  0.82294346  0.75462886  1
