# generated using pymatgen
data_NaScGeP2SO12
_symmetry_space_group_name_H-M   'P 1'
_cell_length_a   8.57243921
_cell_length_b   8.63367489
_cell_length_c   22.43782041
_cell_angle_alpha   88.79416337
_cell_angle_beta   90.00000000
_cell_angle_gamma   119.76565287
_symmetry_Int_Tables_number   1
_chemical_formula_structural   NaScGeP2SO12
_chemical_formula_sum   'Na6 Sc6 Ge6 P12 S6 O72'
_cell_volume   1441.13434914
_cell_formula_units_Z   6
loop_
 _symmetry_equiv_pos_site_id
 _symmetry_equiv_pos_as_xyz
  1  'x, y, z'
loop_
 _atom_site_type_symbol
 _atom_site_label
 _atom_site_symmetry_multiplicity
 _atom_site_fract_x
 _atom_site_fract_y
 _atom_site_fract_z
 _atom_site_occupancy
  Na  Na0  1  0.99019060  0.99467655  0.50032947  1
  Na  Na1  1  0.00448594  0.99467655  0.00032947  1
  Na  Na2  1  0.65685760  0.32800955  0.83366247  1
  Na  Na3  1  0.67115294  0.32800955  0.33366247  1
  Na  Na4  1  0.32352360  0.66134355  0.16699647  1
  Na  Na5  1  0.33781894  0.66134355  0.66699647  1
  Sc  Sc6  1  0.99413101  0.00420268  0.64538636  1
  Sc  Sc7  1  0.01007167  0.00420268  0.14538636  1
  Sc  Sc8  1  0.66079801  0.33753568  0.97871936  1
  Sc  Sc9  1  0.67673867  0.33753568  0.47871936  1
  Sc  Sc10  1  0.32746401  0.67086968  0.31205336  1
  Sc  Sc11  1  0.34340467  0.67086968  0.81205336  1
  Ge  Ge12  1  0.99879245  0.00112433  0.35141619  1
  Ge  Ge13  1  0.00233188  0.00112433  0.85141619  1
  Ge  Ge14  1  0.66545945  0.33445733  0.68474919  1
  Ge  Ge15  1  0.66899888  0.33445733  0.18474919  1
  Ge  Ge16  1  0.33212545  0.66779133  0.01808319  1
  Ge  Ge17  1  0.33566488  0.66779133  0.51808319  1
  P  P18  1  0.29585734  0.01192236  0.24979439  1
  P  P19  1  0.99272730  0.28507423  0.24886261  1
  P  P20  1  0.29234693  0.28507423  0.74886261  1
  P  P21  1  0.71606501  0.01192236  0.74979439  1
  P  P22  1  0.96252434  0.34525536  0.58312739  1
  P  P23  1  0.65939430  0.61840723  0.58219561  1
  P  P24  1  0.95901393  0.61840723  0.08219561  1
  P  P25  1  0.38273201  0.34525536  0.08312739  1
  P  P26  1  0.62919034  0.67858936  0.91646139  1
  P  P27  1  0.32606030  0.95174123  0.91552961  1
  P  P28  1  0.62567993  0.95174123  0.41552961  1
  P  P29  1  0.04939801  0.67858936  0.41646139  1
  S  S30  1  0.71325657  0.70510781  0.24996664  1
  S  S31  1  0.99185124  0.70510781  0.74996664  1
  S  S32  1  0.37992357  0.03844081  0.58329964  1
  S  S33  1  0.65851824  0.03844081  0.08329964  1
  S  S34  1  0.04658957  0.37177481  0.91663364  1
  S  S35  1  0.32518424  0.37177481  0.41663364  1
  O  O36  1  0.20820163  0.04182038  0.30720932  1
  O  O37  1  0.82389000  0.78287854  0.30486374  1
  O  O38  1  0.95611097  0.16485367  0.30775429  1
  O  O39  1  0.20874270  0.16485367  0.80775429  1
  O  O40  1  0.95898853  0.78287854  0.80486374  1
  O  O41  1  0.83361875  0.04182038  0.80720932  1
  O  O42  1  0.79607745  0.97765189  0.69523790  1
  O  O43  1  0.18152729  0.20007568  0.69456966  1
  O  O44  1  0.02258827  0.81394357  0.69628806  1
  O  O45  1  0.79135530  0.81394357  0.19628806  1
  O  O46  1  0.01854838  0.20007568  0.19456966  1
  O  O47  1  0.18157444  0.97765189  0.19523790  1
  O  O48  1  0.87486863  0.37515338  0.64054232  1
  O  O49  1  0.49055700  0.11621154  0.63819674  1
  O  O50  1  0.62277797  0.49818667  0.64108729  1
  O  O51  1  0.87540970  0.49818667  0.14108729  1
  O  O52  1  0.62565553  0.11621154  0.13819674  1
  O  O53  1  0.50028575  0.37515338  0.14054232  1
  O  O54  1  0.46274445  0.31098489  0.02857090  1
  O  O55  1  0.84819429  0.53340868  0.02790266  1
  O  O56  1  0.68925527  0.14727657  0.02962106  1
  O  O57  1  0.45802230  0.14727657  0.52962106  1
  O  O58  1  0.68521538  0.53340868  0.52790266  1
  O  O59  1  0.84824144  0.31098489  0.52857090  1
  O  O60  1  0.54153463  0.70848738  0.97387632  1
  O  O61  1  0.15722300  0.44954554  0.97153074  1
  O  O62  1  0.28944397  0.83152067  0.97442129  1
  O  O63  1  0.54207570  0.83152067  0.47442129  1
  O  O64  1  0.29232153  0.44954554  0.47153074  1
  O  O65  1  0.16695175  0.70848738  0.47387632  1
  O  O66  1  0.12941045  0.64431889  0.36190490  1
  O  O67  1  0.51486029  0.86674268  0.36123666  1
  O  O68  1  0.35592127  0.48061057  0.36295506  1
  O  O69  1  0.12468830  0.48061057  0.86295506  1
  O  O70  1  0.35188138  0.86674268  0.86123666  1
  O  O71  1  0.51490744  0.64431889  0.86190490  1
  O  O72  1  0.03414181  0.85225950  0.40858683  1
  O  O73  1  0.81816226  0.96993481  0.40914406  1
  O  O74  1  0.15966021  0.19201977  0.41181443  1
  O  O75  1  0.03235955  0.19201977  0.91181443  1
  O  O76  1  0.15177255  0.96993481  0.90914406  1
  O  O77  1  0.81811768  0.85225950  0.90858683  1
  O  O78  1  0.99062243  0.18473621  0.58934092  1
  O  O79  1  0.19956715  0.01517985  0.58989114  1
  O  O80  1  0.82352731  0.80253820  0.58954399  1
  O  O81  1  0.97901088  0.80253820  0.08954399  1
  O  O82  1  0.81561270  0.01517985  0.08989114  1
  O  O83  1  0.19411378  0.18473621  0.08934092  1
  O  O84  1  0.70080881  0.18559250  0.74191983  1
  O  O85  1  0.48482926  0.30326781  0.74247706  1
  O  O86  1  0.82632721  0.52535277  0.74514743  1
  O  O87  1  0.69902655  0.52535277  0.24514743  1
  O  O88  1  0.81843955  0.30326781  0.24247706  1
  O  O89  1  0.48478468  0.18559250  0.24191983  1
  O  O90  1  0.65728943  0.51806921  0.92267392  1
  O  O91  1  0.86623415  0.34851285  0.92322414  1
  O  O92  1  0.49019431  0.13587120  0.92287699  1
  O  O93  1  0.64567788  0.13587120  0.42287699  1
  O  O94  1  0.48227970  0.34851285  0.42322414  1
  O  O95  1  0.86078078  0.51806921  0.42267392  1
  O  O96  1  0.36747481  0.51892650  0.07525383  1
  O  O97  1  0.15149526  0.63660181  0.07581106  1
  O  O98  1  0.49299321  0.85868677  0.07848143  1
  O  O99  1  0.36569255  0.85868677  0.57848143  1
  O  O100  1  0.48510555  0.63660181  0.57581106  1
  O  O101  1  0.15145068  0.51892650  0.57525383  1
  O  O102  1  0.32395543  0.85140321  0.25600792  1
  O  O103  1  0.53290015  0.68184685  0.25655814  1
  O  O104  1  0.15686031  0.46920520  0.25621099  1
  O  O105  1  0.31234388  0.46920520  0.75621099  1
  O  O106  1  0.14894570  0.68184685  0.75655814  1
  O  O107  1  0.52744678  0.85140321  0.75600792  1
