# generated using pymatgen
data_Na10Mg4Si5Ge4S7O48
_symmetry_space_group_name_H-M   'P 1'
_cell_length_a   17.66712543
_cell_length_b   8.79002395
_cell_length_c   21.98255050
_cell_angle_alpha   89.45244998
_cell_angle_beta   90.94968576
_cell_angle_gamma   119.65773855
_symmetry_Int_Tables_number   1
_chemical_formula_structural   Na10Mg4Si5Ge4S7O48
_chemical_formula_sum   'Na30 Mg12 Si15 Ge12 S21 O144'
_cell_volume   2966.14230492
_cell_formula_units_Z   3
loop_
 _symmetry_equiv_pos_site_id
 _symmetry_equiv_pos_as_xyz
  1  'x, y, z'
loop_
 _atom_site_type_symbol
 _atom_site_label
 _atom_site_symmetry_multiplicity
 _atom_site_fract_x
 _atom_site_fract_y
 _atom_site_fract_z
 _atom_site_occupancy
  Na  Na0  1  0.32504568  0.01898336  0.25320125  1
  Na  Na1  1  0.68082273  0.35083869  0.25602266  1
  Na  Na2  1  0.99878235  0.63532709  0.24203312  1
  Na  Na3  1  0.49817881  0.63409564  0.23975116  1
  Na  Na4  1  0.32154282  0.62574853  0.75563166  1
  Na  Na5  1  0.82160623  0.62571428  0.75424097  1
  Na  Na6  1  0.99760737  0.36301144  0.74054102  1
  Na  Na7  1  0.49749698  0.36259155  0.74024908  1
  Na  Na8  1  0.17995780  0.01010629  0.75487849  1
  Na  Na9  1  0.68077710  0.01052889  0.75416042  1
  Na  Na10  1  0.33452633  0.96734076  0.57531698  1
  Na  Na11  1  0.83401905  0.96637858  0.57413849  1
  Na  Na12  1  0.33423323  0.70197206  0.07511460  1
  Na  Na13  1  0.83331907  0.69884027  0.07359792  1
  Na  Na14  1  0.48200360  0.67546527  0.91159188  1
  Na  Na15  1  0.98238924  0.67623231  0.91074361  1
  Na  Na16  1  0.48602246  0.29226365  0.40911228  1
  Na  Na17  1  0.16605620  0.02871640  0.40922106  1
  Na  Na18  1  0.98717695  0.99908124  0.49629877  1
  Na  Na19  1  0.50073701  0.99169173  0.49734824  1
  Na  Na20  1  0.99771769  0.00575437  0.99557425  1
  Na  Na21  1  0.49621363  0.00430693  0.99703861  1
  Na  Na22  1  0.32675730  0.33379737  0.83260608  1
  Na  Na23  1  0.82739617  0.33515471  0.83177600  1
  Na  Na24  1  0.32792496  0.33315741  0.32704112  1
  Na  Na25  1  0.82329548  0.29640219  0.33342639  1
  Na  Na26  1  0.15484192  0.65871413  0.16214551  1
  Na  Na27  1  0.65673129  0.68019464  0.16261327  1
  Na  Na28  1  0.15097207  0.63712397  0.66167779  1
  Na  Na29  1  0.65374648  0.63941083  0.66063075  1
  Mg  Mg30  1  0.99676874  0.00161123  0.35435166  1
  Mg  Mg31  1  0.50163700  0.00041950  0.35323182  1
  Mg  Mg32  1  0.99990574  0.99907604  0.85354338  1
  Mg  Mg33  1  0.49949807  0.99878734  0.85364968  1
  Mg  Mg34  1  0.33815143  0.34125781  0.68583423  1
  Mg  Mg35  1  0.83836764  0.34263445  0.68549247  1
  Mg  Mg36  1  0.33531682  0.33350838  0.18697335  1
  Mg  Mg37  1  0.83567370  0.32666528  0.18607007  1
  Mg  Mg38  1  0.16453623  0.66852937  0.01999101  1
  Mg  Mg39  1  0.66419400  0.66849790  0.02003186  1
  Mg  Mg40  1  0.16335882  0.65653243  0.52045763  1
  Mg  Mg41  1  0.66707564  0.66125535  0.51925598  1
  Si  Si42  1  0.14632181  0.00103433  0.25648534  1
  Si  Si43  1  0.65050608  0.00380731  0.25404444  1
  Si  Si44  1  0.50332674  0.29199342  0.25321955  1
  Si  Si45  1  0.14681469  0.29281223  0.75355012  1
  Si  Si46  1  0.64743160  0.29386873  0.75406067  1
  Si  Si47  1  0.00241426  0.71492024  0.75354969  1
  Si  Si48  1  0.50269151  0.71526649  0.75350818  1
  Si  Si49  1  0.48500094  0.32924838  0.58801732  1
  Si  Si50  1  0.98243867  0.32855975  0.58810280  1
  Si  Si51  1  0.48257824  0.63721470  0.08793413  1
  Si  Si52  1  0.98176538  0.62733300  0.08757836  1
  Si  Si53  1  0.31075255  0.66954028  0.92209156  1
  Si  Si54  1  0.81092825  0.67039046  0.92175415  1
  Si  Si55  1  0.31497763  0.95877015  0.42395680  1
  Si  Si56  1  0.81159648  0.95373608  0.42076951  1
  Ge  Ge57  1  0.01395404  0.02462661  0.65086126  1
  Ge  Ge58  1  0.51794678  0.02884634  0.65081487  1
  Ge  Ge59  1  0.00668863  0.98768622  0.14837916  1
  Ge  Ge60  1  0.51631884  0.00707890  0.15087471  1
  Ge  Ge61  1  0.32999546  0.35536865  0.98587068  1
  Ge  Ge62  1  0.83097406  0.35283727  0.98328328  1
  Ge  Ge63  1  0.34112534  0.32336205  0.48494511  1
  Ge  Ge64  1  0.83432888  0.30515699  0.48238143  1
  Ge  Ge65  1  0.17037016  0.68553782  0.31977386  1
  Ge  Ge66  1  0.66764022  0.68256364  0.31295141  1
  Ge  Ge67  1  0.16288972  0.64744874  0.81494652  1
  Ge  Ge68  1  0.66267098  0.64672182  0.81492146  1
  S  S69  1  0.34860269  0.70788531  0.25182580  1
  S  S70  1  0.85418434  0.71571939  0.24846379  1
  S  S71  1  0.00460412  0.28928840  0.24905852  1
  S  S72  1  0.35246105  0.99335667  0.74948372  1
  S  S73  1  0.85263673  0.99368343  0.74980409  1
  S  S74  1  0.18564974  0.04631323  0.58330876  1
  S  S75  1  0.68601678  0.04580228  0.58437761  1
  S  S76  1  0.33559028  0.61821945  0.58141699  1
  S  S77  1  0.83606474  0.61974342  0.58192082  1
  S  S78  1  0.33520495  0.05383025  0.08224013  1
  S  S79  1  0.83768489  0.05248858  0.08283245  1
  S  S80  1  0.18376149  0.32245392  0.08563740  1
  S  S81  1  0.68548322  0.32569071  0.08392948  1
  S  S82  1  0.01852996  0.37350199  0.91767638  1
  S  S83  1  0.51850613  0.37351637  0.91763920  1
  S  S84  1  0.17295609  0.96838860  0.91797865  1
  S  S85  1  0.67331750  0.96918883  0.91820292  1
  S  S86  1  0.17021623  0.38454284  0.41644268  1
  S  S87  1  0.67400368  0.37804638  0.41802362  1
  S  S88  1  0.01697689  0.65547357  0.41692108  1
  S  S89  1  0.51801181  0.66230279  0.41784832  1
  O  O90  1  0.10153011  0.01490276  0.31628363  1
  O  O91  1  0.60228570  0.03179399  0.30884658  1
  O  O92  1  0.40337532  0.78803268  0.30468715  1
  O  O93  1  0.91022996  0.80162291  0.30011534  1
  O  O94  1  0.48243280  0.17492083  0.31249540  1
  O  O95  1  0.99502818  0.18661240  0.30306611  1
  O  O96  1  0.10097709  0.17032535  0.80930458  1
  O  O97  1  0.60055218  0.16981477  0.80920904  1
  O  O98  1  0.48232025  0.78903025  0.81256217  1
  O  O99  1  0.98250962  0.78933360  0.81265573  1
  O  O100  1  0.40694878  0.02434654  0.80282415  1
  O  O101  1  0.90712403  0.02450869  0.80306942  1
  O  O102  1  0.39052748  0.96199049  0.69329154  1
  O  O103  1  0.89072271  0.96184878  0.69352996  1
  O  O104  1  0.08263769  0.22043274  0.69090281  1
  O  O105  1  0.58373778  0.22401244  0.69100671  1
  O  O106  1  0.02486770  0.85480960  0.69232697  1
  O  O107  1  0.52496807  0.85516662  0.69213162  1
  O  O108  1  0.38428488  0.81684068  0.19512714  1
  O  O109  1  0.89059919  0.81931831  0.18957332  1
  O  O110  1  0.01544058  0.20625481  0.19135353  1
  O  O111  1  0.52362889  0.19397565  0.19229264  1
  O  O112  1  0.07733660  0.94883984  0.19567524  1
  O  O113  1  0.58517053  0.94848138  0.19079922  1
  O  O114  1  0.43510052  0.33724645  0.64590873  1
  O  O115  1  0.93624385  0.33833589  0.64782110  1
  O  O116  1  0.23825647  0.13189270  0.63726452  1
  O  O117  1  0.73663334  0.12764349  0.63951536  1
  O  O118  1  0.32549720  0.51961376  0.63699163  1
  O  O119  1  0.82638753  0.52365431  0.63850076  1
  O  O120  1  0.43350735  0.53102877  0.14652278  1
  O  O121  1  0.93524745  0.52546411  0.14783495  1
  O  O122  1  0.32559100  0.13077677  0.13766782  1
  O  O123  1  0.82686878  0.13203827  0.13668298  1
  O  O124  1  0.23761541  0.34166584  0.13809971  1
  O  O125  1  0.73806329  0.34670810  0.13843932  1
  O  O126  1  0.21983186  0.28833424  0.02783154  1
  O  O127  1  0.72484962  0.29399680  0.02780865  1
  O  O128  1  0.41350086  0.54596978  0.02548213  1
  O  O129  1  0.91267906  0.53708384  0.02592896  1
  O  O130  1  0.34348803  0.16538187  0.02579254  1
  O  O131  1  0.84744748  0.15892239  0.02557419  1
  O  O132  1  0.22591400  0.15315450  0.52562651  1
  O  O133  1  0.72525396  0.15549266  0.52836661  1
  O  O134  1  0.34416582  0.52463518  0.52483411  1
  O  O135  1  0.84415520  0.52713089  0.52686183  1
  O  O136  1  0.41708730  0.28219849  0.52545141  1
  O  O137  1  0.91093083  0.27821535  0.52814180  1
  O  O138  1  0.26528969  0.67645592  0.98246504  1
  O  O139  1  0.76519676  0.67699088  0.98201044  1
  O  O140  1  0.07232351  0.46269946  0.97009828  1
  O  O141  1  0.57277439  0.46291551  0.96986080  1
  O  O142  1  0.15962119  0.85143046  0.96901751  1
  O  O143  1  0.66066787  0.85303905  0.96928177  1
  O  O144  1  0.26436641  0.85448363  0.48228043  1
  O  O145  1  0.76884023  0.85646427  0.48262741  1
  O  O146  1  0.16039359  0.46763134  0.46949152  1
  O  O147  1  0.65941997  0.46754137  0.46810346  1
  O  O148  1  0.07441206  0.67968447  0.46840243  1
  O  O149  1  0.57111308  0.67877192  0.47113207  1
  O  O150  1  0.05506047  0.62522025  0.35804218  1
  O  O151  1  0.55233452  0.62112068  0.36067072  1
  O  O152  1  0.24979346  0.87574537  0.36051959  1
  O  O153  1  0.74457807  0.85291567  0.35960786  1
  O  O154  1  0.18092429  0.49314138  0.35797913  1
  O  O155  1  0.68390204  0.47505231  0.35853043  1
  O  O156  1  0.05519159  0.48619483  0.85926776  1
  O  O157  1  0.55544670  0.48656013  0.85897779  1
  O  O158  1  0.18353141  0.89146918  0.85920104  1
  O  O159  1  0.68452579  0.89426793  0.85950154  1
  O  O160  1  0.24883041  0.63945452  0.85760037  1
  O  O161  1  0.74873590  0.64031154  0.85756903  1
  O  O162  1  0.01042389  0.81541846  0.41098787  1
  O  O163  1  0.50636405  0.81290099  0.41085320  1
  O  O164  1  0.41184781  0.99272913  0.41703664  1
  O  O165  1  0.90770917  0.98566581  0.41031039  1
  O  O166  1  0.09515205  0.20757264  0.41067811  1
  O  O167  1  0.59797419  0.20121148  0.41481134  1
  O  O168  1  0.00939124  0.20113459  0.91064278  1
  O  O169  1  0.50966485  0.20112979  0.91050059  1
  O  O170  1  0.09602013  0.99120835  0.91442060  1
  O  O171  1  0.59677376  0.99272026  0.91470695  1
  O  O172  1  0.40862072  0.82966866  0.91503524  1
  O  O173  1  0.90881936  0.83073567  0.91509056  1
  O  O174  1  0.48414983  0.13015762  0.59053081  1
  O  O175  1  0.98333004  0.13116937  0.59054060  1
  O  O176  1  0.09742934  0.03016859  0.58452997  1
  O  O177  1  0.59701426  0.02937087  0.58584189  1
  O  O178  1  0.41583869  0.79162893  0.58185765  1
  O  O179  1  0.91633037  0.79630030  0.58349196  1
  O  O180  1  0.48332917  0.83730777  0.09101700  1
  O  O181  1  0.98346780  0.82744690  0.08839696  1
  O  O182  1  0.41597635  0.04002548  0.08278365  1
  O  O183  1  0.92002437  0.03858221  0.08589043  1
  O  O184  1  0.09371169  0.16401912  0.08884333  1
  O  O185  1  0.59717710  0.16601455  0.08564995  1
  O  O186  1  0.33674491  0.14297502  0.74312588  1
  O  O187  1  0.83693276  0.14309527  0.74337056  1
  O  O188  1  0.24291897  0.31931118  0.74344796  1
  O  O189  1  0.74312409  0.31927508  0.74388056  1
  O  O190  1  0.42335330  0.52021800  0.74338249  1
  O  O191  1  0.92295940  0.51974487  0.74415318  1
  O  O192  1  0.33555257  0.53027639  0.24486094  1
  O  O193  1  0.84402258  0.53819340  0.24398999  1
  O  O194  1  0.42382472  0.32932211  0.24346493  1
  O  O195  1  0.92893546  0.31632397  0.24388841  1
  O  O196  1  0.24314729  0.15492893  0.24488225  1
  O  O197  1  0.74414528  0.17425174  0.24396821  1
  O  O198  1  0.31910205  0.47957981  0.92267031  1
  O  O199  1  0.81988161  0.48136349  0.92181851  1
  O  O200  1  0.43095377  0.36172273  0.92053721  1
  O  O201  1  0.93047316  0.36156797  0.92042512  1
  O  O202  1  0.25532981  0.14226249  0.92377928  1
  O  O203  1  0.75647178  0.14417250  0.92436688  1
  O  O204  1  0.31900540  0.16332408  0.42366372  1
  O  O205  1  0.81597437  0.15435431  0.42201534  1
  O  O206  1  0.25150592  0.36977932  0.41863802  1
  O  O207  1  0.75727233  0.37144738  0.42456367  1
  O  O208  1  0.42808020  0.49544264  0.42265464  1
  O  O209  1  0.92896230  0.49901326  0.42090263  1
  O  O210  1  0.17611546  0.48109819  0.07928018  1
  O  O211  1  0.67698867  0.48307968  0.07781650  1
  O  O212  1  0.07651168  0.65575562  0.07721655  1
  O  O213  1  0.57711233  0.66389511  0.07682399  1
  O  O214  1  0.25958998  0.87575894  0.07674895  1
  O  O215  1  0.76336293  0.87324674  0.07759062  1
  O  O216  1  0.17758911  0.87167034  0.57891780  1
  O  O217  1  0.67708923  0.87088813  0.57910369  1
  O  O218  1  0.25955527  0.64376186  0.57564993  1
  O  O219  1  0.75992708  0.64670474  0.57732342  1
  O  O220  1  0.07654750  0.49122313  0.57707753  1
  O  O221  1  0.57850857  0.49235465  0.57653426  1
  O  O222  1  0.15017961  0.80586979  0.25859427  1
  O  O223  1  0.65206749  0.81434643  0.25638046  1
  O  O224  1  0.25970612  0.69680980  0.25727859  1
  O  O225  1  0.76478403  0.69260371  0.25176050  1
  O  O226  1  0.08506601  0.46825154  0.25239399  1
  O  O227  1  0.59733013  0.48900833  0.26025096  1
  O  O228  1  0.15404196  0.49159869  0.75675729  1
  O  O229  1  0.65426471  0.49206253  0.75683877  1
  O  O230  1  0.09662442  0.70483513  0.76044204  1
  O  O231  1  0.59693627  0.70574979  0.76057469  1
  O  O232  1  0.26426137  0.83073903  0.75356064  1
  O  O233  1  0.76455701  0.83090519  0.75360131  1
