# generated using pymatgen
data_Cd(FeO2)2
_symmetry_space_group_name_H-M   'P 1'
_cell_length_a   6.01859183
_cell_length_b   6.31905715
_cell_length_c   6.31611535
_cell_angle_alpha   56.93513206
_cell_angle_beta   61.50486157
_cell_angle_gamma   61.46340942
_symmetry_Int_Tables_number   1
_chemical_formula_structural   Cd(FeO2)2
_chemical_formula_sum   'Cd2 Fe4 O8'
_cell_volume   169.03937463
_cell_formula_units_Z   2
loop_
 _symmetry_equiv_pos_site_id
 _symmetry_equiv_pos_as_xyz
  1  'x, y, z'
loop_
 _atom_site_type_symbol
 _atom_site_label
 _atom_site_symmetry_multiplicity
 _atom_site_fract_x
 _atom_site_fract_y
 _atom_site_fract_z
 _atom_site_occupancy
  Cd  Cd0  1  0.12579400  0.12492100  0.12554200  1
  Cd  Cd1  1  0.87423400  0.87507200  0.87443700  1
  Fe  Fe2  1  0.49999900  0.00015000  0.49990000  1
  Fe  Fe3  1  0.00015400  0.49997700  0.49998700  1
  Fe  Fe4  1  0.49998600  0.49991000  0.00014500  1
  Fe  Fe5  1  0.49992900  0.49997900  0.49996400  1
  O  O6  1  0.72815400  0.73238200  0.73437500  1
  O  O7  1  0.26657700  0.27132800  0.69561000  1
  O  O8  1  0.26671200  0.69519800  0.27148200  1
  O  O9  1  0.69539400  0.26628000  0.26738100  1
  O  O10  1  0.73325200  0.30475700  0.72857100  1
  O  O11  1  0.30455800  0.73370600  0.73263200  1
  O  O12  1  0.27187100  0.26762600  0.26561800  1
  O  O13  1  0.73338400  0.72871300  0.30435700  1
