# generated using pymatgen
data_MgNbP(SO6)2
_symmetry_space_group_name_H-M   'P 1'
_cell_length_a   8.74274716
_cell_length_b   8.73725593
_cell_length_c   22.51936438
_cell_angle_alpha   90.15177520
_cell_angle_beta   90.00000000
_cell_angle_gamma   120.02079229
_symmetry_Int_Tables_number   1
_chemical_formula_structural   MgNbP(SO6)2
_chemical_formula_sum   'Mg6 Nb6 P6 S12 O72'
_cell_volume   1489.41825701
_cell_formula_units_Z   6
loop_
 _symmetry_equiv_pos_site_id
 _symmetry_equiv_pos_as_xyz
  1  'x, y, z'
loop_
 _atom_site_type_symbol
 _atom_site_label
 _atom_site_symmetry_multiplicity
 _atom_site_fract_x
 _atom_site_fract_y
 _atom_site_fract_z
 _atom_site_occupancy
  Mg  Mg0  1  0.99556288  0.00376418  0.35503113  1
  Mg  Mg1  1  0.00820131  0.00376418  0.85503113  1
  Mg  Mg2  1  0.66765558  0.33575170  0.68818004  1
  Mg  Mg3  1  0.66809713  0.33575170  0.18818004  1
  Mg  Mg4  1  0.33051740  0.66668982  0.02166764  1
  Mg  Mg5  1  0.33617142  0.66668982  0.52166764  1
  Nb  Nb6  1  0.00640792  0.01366498  0.64281584  1
  Nb  Nb7  1  0.00725705  0.01366498  0.14281584  1
  Nb  Nb8  1  0.65439601  0.32779437  0.97624544  1
  Nb  Nb9  1  0.67339935  0.32779437  0.47624544  1
  Nb  Nb10  1  0.33718275  0.66927595  0.30952053  1
  Nb  Nb11  1  0.33209220  0.66927595  0.80952053  1
  P  P12  1  0.99096673  0.28619000  0.25249938  1
  P  P13  1  0.29522326  0.28619000  0.75249938  1
  P  P14  1  0.96001330  0.34575334  0.58567122  1
  P  P15  1  0.38574104  0.34575334  0.08567122  1
  P  P16  1  0.32224279  0.94587928  0.91874495  1
  P  P17  1  0.62363549  0.94587928  0.41874495  1
  S  S18  1  0.29007797  0.00591786  0.25126537  1
  S  S19  1  0.71724918  0.71008574  0.25067667  1
  S  S20  1  0.99283656  0.71008574  0.75067667  1
  S  S21  1  0.71583988  0.00591786  0.75126537  1
  S  S22  1  0.38223864  0.04231918  0.58425870  1
  S  S23  1  0.66269895  0.61938558  0.58444995  1
  S  S24  1  0.95668763  0.61938558  0.08444995  1
  S  S25  1  0.66008154  0.04231918  0.08425870  1
  S  S26  1  0.62460894  0.67410405  0.91741613  1
  S  S27  1  0.04627163  0.37589147  0.91801216  1
  S  S28  1  0.32961884  0.37589147  0.41801216  1
  S  S29  1  0.04949411  0.67410405  0.41741613  1
  O  O30  1  0.20610137  0.02565916  0.30380964  1
  O  O31  1  0.82070767  0.79141107  0.30353784  1
  O  O32  1  0.97460350  0.17489083  0.30469365  1
  O  O33  1  0.20028734  0.17489083  0.80469365  1
  O  O34  1  0.97070339  0.79141107  0.80353784  1
  O  O35  1  0.81955780  0.02565916  0.80380964  1
  O  O36  1  0.79263304  0.96607941  0.69675799  1
  O  O37  1  0.16668098  0.19809796  0.69492510  1
  O  O38  1  0.03246072  0.82526383  0.69686969  1
  O  O39  1  0.79280312  0.82526383  0.19686969  1
  O  O40  1  0.03141698  0.19809796  0.19492510  1
  O  O41  1  0.17344637  0.96607941  0.19675799  1
  O  O42  1  0.86645139  0.35901780  0.63892483  1
  O  O43  1  0.48632231  0.12568457  0.63666733  1
  O  O44  1  0.63887307  0.51315897  0.63662067  1
  O  O45  1  0.87428690  0.51315897  0.13662067  1
  O  O46  1  0.63936326  0.12568457  0.13666733  1
  O  O47  1  0.49256741  0.35901780  0.13892483  1
  O  O48  1  0.46897006  0.30222495  0.02838913  1
  O  O49  1  0.84063740  0.53896999  0.03009203  1
  O  O50  1  0.70123682  0.15927766  0.03002072  1
  O  O51  1  0.45804184  0.15927766  0.53002072  1
  O  O52  1  0.69833359  0.53896999  0.53009203  1
  O  O53  1  0.83325590  0.30222495  0.52838913  1
  O  O54  1  0.54198707  0.69434470  0.96993148  1
  O  O55  1  0.15419067  0.45841653  0.96977653  1
  O  O56  1  0.30934569  0.84085993  0.97236685  1
  O  O57  1  0.53151324  0.84085993  0.47236685  1
  O  O58  1  0.30422487  0.45841653  0.46977653  1
  O  O59  1  0.15235662  0.69434470  0.46993148  1
  O  O60  1  0.12529681  0.63286335  0.36307755  1
  O  O61  1  0.49880914  0.86353082  0.36180709  1
  O  O62  1  0.36520880  0.49306209  0.36349235  1
  O  O63  1  0.12785229  0.49306209  0.86349235  1
  O  O64  1  0.36472068  0.86353082  0.86180709  1
  O  O65  1  0.50756555  0.63286335  0.86307755  1
  O  O66  1  0.02312920  0.82184488  0.40631153  1
  O  O67  1  0.80507913  0.98024169  0.40673669  1
  O  O68  1  0.18256137  0.20082719  0.40707256  1
  O  O69  1  0.01826583  0.20082719  0.90707256  1
  O  O70  1  0.17516256  0.98024169  0.90673669  1
  O  O71  1  0.79871568  0.82184488  0.90631153  1
  O  O72  1  0.96841520  0.16609051  0.59282592  1
  O  O73  1  0.19982946  0.02651812  0.59147547  1
  O  O74  1  0.82923254  0.79945285  0.59276616  1
  O  O75  1  0.97022031  0.79945285  0.09276616  1
  O  O76  1  0.82668866  0.02651812  0.09147547  1
  O  O77  1  0.19767531  0.16609051  0.09282592  1
  O  O78  1  0.68797786  0.15249869  0.74095674  1
  O  O79  1  0.47332512  0.31489971  0.73814722  1
  O  O80  1  0.84740534  0.53407395  0.74097782  1
  O  O81  1  0.68666960  0.53407395  0.24097782  1
  O  O82  1  0.84157560  0.31489971  0.23814722  1
  O  O83  1  0.46452183  0.15249869  0.24095674  1
  O  O84  1  0.64056907  0.50747497  0.92475867  1
  O  O85  1  0.86780430  0.36404583  0.92545975  1
  O  O86  1  0.50119109  0.13628174  0.92667485  1
  O  O87  1  0.63509165  0.13628174  0.42667485  1
  O  O88  1  0.49624253  0.36404583  0.42545975  1
  O  O89  1  0.86690690  0.50747497  0.42475867  1
  O  O90  1  0.35174123  0.49191701  0.07176642  1
  O  O91  1  0.13104248  0.64563492  0.07420567  1
  O  O92  1  0.51334314  0.86752423  0.07401159  1
  O  O93  1  0.35418009  0.86752423  0.57401159  1
  O  O94  1  0.51459145  0.64563492  0.57420567  1
  O  O95  1  0.14017478  0.49191701  0.57176642  1
  O  O96  1  0.30274143  0.83766110  0.25821779  1
  O  O97  1  0.53425427  0.69488518  0.25851338  1
  O  O98  1  0.16745029  0.47284629  0.26090610  1
  O  O99  1  0.30539500  0.47284629  0.76090610  1
  O  O100  1  0.16062992  0.69488518  0.75851338  1
  O  O101  1  0.53491867  0.83766110  0.75821779  1
