# generated using pymatgen
data_Li2ZnCl4
_symmetry_space_group_name_H-M   'P 1'
_cell_length_a   6.06333861
_cell_length_b   7.35840117
_cell_length_c   12.65210377
_cell_angle_alpha   90.00000000
_cell_angle_beta   90.00000000
_cell_angle_gamma   90.00000000
_symmetry_Int_Tables_number   1
_chemical_formula_structural   Li2ZnCl4
_chemical_formula_sum   'Li8 Zn4 Cl16'
_cell_volume   564.49230852
_cell_formula_units_Z   4
loop_
 _symmetry_equiv_pos_site_id
 _symmetry_equiv_pos_as_xyz
  1  'x, y, z'
loop_
 _atom_site_type_symbol
 _atom_site_label
 _atom_site_symmetry_multiplicity
 _atom_site_fract_x
 _atom_site_fract_y
 _atom_site_fract_z
 _atom_site_occupancy
  Li  Li0  1  -0.00000000  -0.00000000  -0.00000000  1
  Li  Li1  1  0.50000000  0.00000000  0.50000000  1
  Li  Li2  1  -0.00000000  0.50000000  -0.00000000  1
  Li  Li3  1  0.50000000  0.50000000  0.50000000  1
  Li  Li4  1  0.00375720  0.75000000  0.26869992  1
  Li  Li5  1  0.50375720  0.25000000  0.23130008  1
  Li  Li6  1  0.99624280  0.25000000  0.73130008  1
  Li  Li7  1  0.49624280  0.75000000  0.76869992  1
  Zn  Zn8  1  0.58268472  0.75000000  0.08909463  1
  Zn  Zn9  1  0.91731528  0.75000000  0.58909463  1
  Zn  Zn10  1  0.41731528  0.25000000  0.91090537  1
  Zn  Zn11  1  0.08268472  0.25000000  0.41090537  1
  Cl  Cl12  1  0.75092920  0.99366244  0.66617579  1
  Cl  Cl13  1  0.24907080  0.49366244  0.33382421  1
  Cl  Cl14  1  0.74907080  0.50633756  0.16617579  1
  Cl  Cl15  1  0.78552026  0.25000000  0.91066539  1
  Cl  Cl16  1  0.21447974  0.75000000  0.08933461  1
  Cl  Cl17  1  0.71447974  0.25000000  0.41066539  1
  Cl  Cl18  1  0.24691972  0.25000000  0.57426319  1
  Cl  Cl19  1  0.28552026  0.75000000  0.58933461  1
  Cl  Cl20  1  0.75308028  0.75000000  0.42573681  1
  Cl  Cl21  1  0.25308028  0.25000000  0.07426319  1
  Cl  Cl22  1  0.75092920  0.50633756  0.66617579  1
  Cl  Cl23  1  0.74691972  0.75000000  0.92573681  1
  Cl  Cl24  1  0.74907080  0.99366244  0.16617579  1
  Cl  Cl25  1  0.24907080  0.00633756  0.33382421  1
  Cl  Cl26  1  0.25092920  0.49366244  0.83382421  1
  Cl  Cl27  1  0.25092920  0.00633756  0.83382421  1
