# generated using pymatgen
data_Li7Fe4P9O32
_symmetry_space_group_name_H-M   'P 1'
_cell_length_a   13.87419000
_cell_length_b   13.87419000
_cell_length_c   6.39533800
_cell_angle_alpha   90.00000000
_cell_angle_beta   90.00000000
_cell_angle_gamma   90.00000000
_symmetry_Int_Tables_number   1
_chemical_formula_structural   Li7Fe4P9O32
_chemical_formula_sum   'Li14 Fe8 P18 O64'
_cell_volume   1231.05874514
_cell_formula_units_Z   2
loop_
 _symmetry_equiv_pos_site_id
 _symmetry_equiv_pos_as_xyz
  1  'x, y, z'
loop_
 _atom_site_type_symbol
 _atom_site_label
 _atom_site_symmetry_multiplicity
 _atom_site_fract_x
 _atom_site_fract_y
 _atom_site_fract_z
 _atom_site_occupancy
  Li  Li0  1  0.00000000  0.00000000  0.00000000  1
  Li  Li1  1  0.00000000  0.50000000  0.13401100  1
  Li  Li2  1  0.00000000  0.50000000  0.63401100  1
  Li  Li3  1  0.10627300  0.74475500  0.81205000  1
  Li  Li4  1  0.24475500  0.60627300  0.31205000  1
  Li  Li5  1  0.25524500  0.10627300  0.18795000  1
  Li  Li6  1  0.39372700  0.24475500  0.68795000  1
  Li  Li7  1  0.50000000  0.00000000  0.36598900  1
  Li  Li8  1  0.50000000  0.00000000  0.86598900  1
  Li  Li9  1  0.50000000  0.50000000  0.50000000  1
  Li  Li10  1  0.60627300  0.75524500  0.68795000  1
  Li  Li11  1  0.74475500  0.89372700  0.18795000  1
  Li  Li12  1  0.75524500  0.39372700  0.31205000  1
  Li  Li13  1  0.89372700  0.25524500  0.81205000  1
  Fe  Fe14  1  0.12098700  0.19665800  0.62436600  1
  Fe  Fe15  1  0.19665800  0.87901300  0.37563400  1
  Fe  Fe16  1  0.30334200  0.37901300  0.12436600  1
  Fe  Fe17  1  0.37901300  0.69665800  0.87563400  1
  Fe  Fe18  1  0.62098700  0.30334200  0.87563400  1
  Fe  Fe19  1  0.69665800  0.62098700  0.12436600  1
  Fe  Fe20  1  0.80334200  0.12098700  0.37563400  1
  Fe  Fe21  1  0.87901300  0.80334200  0.62436600  1
  P  P22  1  0.00000000  0.00000000  0.50000000  1
  P  P23  1  0.06022200  0.69188000  0.38317400  1
  P  P24  1  0.10714700  0.24686700  0.13393000  1
  P  P25  1  0.19188000  0.56022200  0.88317400  1
  P  P26  1  0.24686700  0.89285300  0.86607000  1
  P  P27  1  0.25313300  0.39285300  0.63393000  1
  P  P28  1  0.30812000  0.06022200  0.61682600  1
  P  P29  1  0.39285300  0.74686700  0.36607000  1
  P  P30  1  0.43977800  0.19188000  0.11682600  1
  P  P31  1  0.50000000  0.50000000  0.00000000  1
  P  P32  1  0.56022200  0.80812000  0.11682600  1
  P  P33  1  0.60714700  0.25313300  0.36607000  1
  P  P34  1  0.69188000  0.93977800  0.61682600  1
  P  P35  1  0.74686700  0.60714700  0.63393000  1
  P  P36  1  0.75313300  0.10714700  0.86607000  1
  P  P37  1  0.80812000  0.43977800  0.88317400  1
  P  P38  1  0.89285300  0.75313300  0.13393000  1
  P  P39  1  0.93977800  0.30812000  0.38317400  1
  O  O40  1  0.00573200  0.72891200  0.17080400  1
  O  O41  1  0.01335300  0.74190400  0.57276900  1
  O  O42  1  0.05617200  0.58292900  0.38526600  1
  O  O43  1  0.06051900  0.06505500  0.64855900  1
  O  O44  1  0.06505500  0.93948100  0.35144100  1
  O  O45  1  0.08292900  0.55617200  0.88526600  1
  O  O46  1  0.10600000  0.18813700  0.93232300  1
  O  O47  1  0.13997400  0.17994300  0.31218600  1
  O  O48  1  0.15826100  0.33835300  0.62438400  1
  O  O49  1  0.16164700  0.34173900  0.12438400  1
  O  O50  1  0.16409200  0.72942900  0.35261700  1
  O  O51  1  0.17994300  0.86002600  0.68781400  1
  O  O52  1  0.18813700  0.89400000  0.06767700  1
  O  O53  1  0.22891200  0.50573200  0.67080400  1
  O  O54  1  0.22942900  0.66409200  0.85261700  1
  O  O55  1  0.24190400  0.51335300  0.07276900  1
  O  O56  1  0.25809600  0.01335300  0.42723100  1
  O  O57  1  0.27057100  0.16409200  0.64738300  1
  O  O58  1  0.27108800  0.00573200  0.82919600  1
  O  O59  1  0.31186300  0.39400000  0.43232300  1
  O  O60  1  0.32005700  0.36002600  0.81218600  1
  O  O61  1  0.33590800  0.22942900  0.14738300  1
  O  O62  1  0.33835300  0.84173900  0.37561600  1
  O  O63  1  0.34173900  0.83835300  0.87561600  1
  O  O64  1  0.36002600  0.67994300  0.18781400  1
  O  O65  1  0.39400000  0.68813700  0.56767700  1
  O  O66  1  0.41707100  0.05617200  0.61473400  1
  O  O67  1  0.43494500  0.43948100  0.14855900  1
  O  O68  1  0.43948100  0.56505500  0.85144100  1
  O  O69  1  0.44382800  0.08292900  0.11473400  1
  O  O70  1  0.48664700  0.24190400  0.92723100  1
  O  O71  1  0.49426800  0.22891200  0.32919600  1
  O  O72  1  0.50573200  0.77108800  0.32919600  1
  O  O73  1  0.51335300  0.75809600  0.92723100  1
  O  O74  1  0.55617200  0.91707100  0.11473400  1
  O  O75  1  0.56051900  0.43494500  0.85144100  1
  O  O76  1  0.56505500  0.56051900  0.14855900  1
  O  O77  1  0.58292900  0.94382800  0.61473400  1
  O  O78  1  0.60600000  0.31186300  0.56767700  1
  O  O79  1  0.63997400  0.32005700  0.18781400  1
  O  O80  1  0.65826100  0.16164700  0.87561600  1
  O  O81  1  0.66164700  0.15826100  0.37561600  1
  O  O82  1  0.66409200  0.77057100  0.14738300  1
  O  O83  1  0.67994300  0.63997400  0.81218600  1
  O  O84  1  0.68813700  0.60600000  0.43232300  1
  O  O85  1  0.72891200  0.99426800  0.82919600  1
  O  O86  1  0.72942900  0.83590800  0.64738300  1
  O  O87  1  0.74190400  0.98664700  0.42723100  1
  O  O88  1  0.75809600  0.48664700  0.07276900  1
  O  O89  1  0.77057100  0.33590800  0.85261700  1
  O  O90  1  0.77108800  0.49426800  0.67080400  1
  O  O91  1  0.81186300  0.10600000  0.06767700  1
  O  O92  1  0.82005700  0.13997400  0.68781400  1
  O  O93  1  0.83590800  0.27057100  0.35261700  1
  O  O94  1  0.83835300  0.65826100  0.12438400  1
  O  O95  1  0.84173900  0.66164700  0.62438400  1
  O  O96  1  0.86002600  0.82005700  0.31218600  1
  O  O97  1  0.89400000  0.81186300  0.93232300  1
  O  O98  1  0.91707100  0.44382800  0.88526600  1
  O  O99  1  0.93494500  0.06051900  0.35144100  1
  O  O100  1  0.93948100  0.93494500  0.64855900  1
  O  O101  1  0.94382800  0.41707100  0.38526600  1
  O  O102  1  0.98664700  0.25809600  0.57276900  1
  O  O103  1  0.99426800  0.27108800  0.17080400  1
