# generated using pymatgen
data_Na10ScTa7(SiO4)12
_symmetry_space_group_name_H-M   'P 1'
_cell_length_a   18.08338218
_cell_length_b   9.05218508
_cell_length_c   22.48932048
_cell_angle_alpha   89.99842565
_cell_angle_beta   90.01594931
_cell_angle_gamma   120.05393586
_symmetry_Int_Tables_number   1
_chemical_formula_structural   Na10ScTa7(SiO4)12
_chemical_formula_sum   'Na30 Sc3 Ta21 Si36 O144'
_cell_volume   3186.42526970
_cell_formula_units_Z   3
loop_
 _symmetry_equiv_pos_site_id
 _symmetry_equiv_pos_as_xyz
  1  'x, y, z'
loop_
 _atom_site_type_symbol
 _atom_site_label
 _atom_site_symmetry_multiplicity
 _atom_site_fract_x
 _atom_site_fract_y
 _atom_site_fract_z
 _atom_site_occupancy
  Na  Na0  1  0.81497963  0.01201285  0.24606474  1
  Na  Na1  1  0.18414442  0.36686135  0.24867463  1
  Na  Na2  1  0.68885704  0.36573064  0.24524630  1
  Na  Na3  1  0.99393340  0.61769761  0.24611841  1
  Na  Na4  1  0.31558102  0.61868068  0.74708215  1
  Na  Na5  1  0.81609863  0.61901028  0.74631068  1
  Na  Na6  1  0.99319944  0.36682273  0.74601073  1
  Na  Na7  1  0.49305730  0.36585164  0.74613693  1
  Na  Na8  1  0.19052195  0.01365206  0.74752266  1
  Na  Na9  1  0.69059057  0.01415662  0.74668566  1
  Na  Na10  1  0.15483498  0.33891003  0.58473368  1
  Na  Na11  1  0.65631583  0.33878646  0.58389407  1
  Na  Na12  1  0.33297334  0.97419794  0.58401164  1
  Na  Na13  1  0.83362394  0.97690676  0.58358051  1
  Na  Na14  1  0.65280444  0.97063460  0.08551880  1
  Na  Na15  1  0.83135161  0.68922301  0.08386426  1
  Na  Na16  1  0.01579314  0.33786309  0.08267531  1
  Na  Na17  1  0.48360940  0.29982702  0.41674470  1
  Na  Na18  1  0.99977106  0.98795753  0.49632920  1
  Na  Na19  1  0.50183913  0.97919030  0.49772188  1
  Na  Na20  1  0.00715283  0.99973871  0.99674689  1
  Na  Na21  1  0.49317625  0.00089044  0.99926455  1
  Na  Na22  1  0.33272540  0.33281214  0.83460454  1
  Na  Na23  1  0.83363105  0.33320653  0.83346693  1
  Na  Na24  1  0.33318388  0.33335394  0.33181273  1
  Na  Na25  1  0.83271221  0.33175303  0.33227321  1
  Na  Na26  1  0.17856064  0.69276005  0.16327897  1
  Na  Na27  1  0.65375727  0.65068698  0.16573454  1
  Na  Na28  1  0.16005486  0.66680762  0.66502780  1
  Na  Na29  1  0.66041421  0.66738140  0.66465217  1
  Sc  Sc30  1  0.33409422  0.33378395  0.68633407  1
  Sc  Sc31  1  0.83410193  0.33429273  0.68595928  1
  Sc  Sc32  1  0.83245249  0.33296453  0.18608914  1
  Ta  Ta33  1  0.00100693  0.00144346  0.35728074  1
  Ta  Ta34  1  0.49822697  0.99548164  0.35548469  1
  Ta  Ta35  1  0.00002126  0.00110185  0.85876662  1
  Ta  Ta36  1  0.50005346  0.99929712  0.85858892  1
  Ta  Ta37  1  0.99981391  0.99648222  0.64448382  1
  Ta  Ta38  1  0.50035242  0.99771582  0.64451896  1
  Ta  Ta39  1  0.00322147  0.00077133  0.14416488  1
  Ta  Ta40  1  0.49659132  0.99788937  0.14345065  1
  Ta  Ta41  1  0.33648612  0.33406572  0.18823839  1
  Ta  Ta42  1  0.33273387  0.33280876  0.97661668  1
  Ta  Ta43  1  0.83364414  0.33407718  0.97767671  1
  Ta  Ta44  1  0.33075978  0.33541152  0.47861133  1
  Ta  Ta45  1  0.83438545  0.33376163  0.47733403  1
  Ta  Ta46  1  0.17070537  0.67354255  0.02131832  1
  Ta  Ta47  1  0.66281351  0.65995150  0.01939913  1
  Ta  Ta48  1  0.16481220  0.66621471  0.51836887  1
  Ta  Ta49  1  0.66580295  0.66832245  0.51859775  1
  Ta  Ta50  1  0.16945261  0.67154867  0.31186264  1
  Ta  Ta51  1  0.66444804  0.66591158  0.31145893  1
  Ta  Ta52  1  0.16675507  0.66618759  0.81393024  1
  Ta  Ta53  1  0.66678677  0.66658584  0.81385369  1
  Si  Si54  1  0.14467387  0.99988803  0.25120139  1
  Si  Si55  1  0.64145648  0.99601047  0.24915183  1
  Si  Si56  1  0.35654490  0.71194659  0.24999934  1
  Si  Si57  1  0.85637568  0.71467917  0.25047897  1
  Si  Si58  1  0.00082817  0.28874207  0.25083079  1
  Si  Si59  1  0.49854473  0.28436085  0.25121347  1
  Si  Si60  1  0.14233131  0.28770359  0.75076846  1
  Si  Si61  1  0.64265350  0.28808847  0.75088032  1
  Si  Si62  1  0.00126675  0.71504374  0.75223069  1
  Si  Si63  1  0.50138887  0.71476999  0.75185042  1
  Si  Si64  1  0.35583718  0.99711117  0.75108007  1
  Si  Si65  1  0.85584092  0.99765447  0.75119204  1
  Si  Si66  1  0.47976081  0.33677296  0.58419325  1
  Si  Si67  1  0.97947772  0.33674275  0.58534522  1
  Si  Si68  1  0.18735469  0.03969583  0.58495403  1
  Si  Si69  1  0.68854300  0.04243545  0.58436534  1
  Si  Si70  1  0.33387895  0.62552124  0.58448346  1
  Si  Si71  1  0.83422201  0.62342829  0.58361005  1
  Si  Si72  1  0.47603864  0.62094418  0.08210179  1
  Si  Si73  1  0.97945710  0.62338541  0.08453433  1
  Si  Si74  1  0.33327151  0.04870047  0.08256997  1
  Si  Si75  1  0.83282166  0.04200791  0.08437406  1
  Si  Si76  1  0.19191871  0.33705329  0.08413725  1
  Si  Si77  1  0.68701795  0.33212910  0.08428253  1
  Si  Si78  1  0.31158528  0.66445404  0.91636123  1
  Si  Si79  1  0.81131395  0.66554732  0.91746775  1
  Si  Si80  1  0.02254211  0.37931821  0.91863950  1
  Si  Si81  1  0.51941761  0.37498974  0.91512533  1
  Si  Si82  1  0.16737562  0.95647239  0.91649524  1
  Si  Si83  1  0.66743124  0.95780968  0.91742164  1
  Si  Si84  1  0.31148926  0.95820858  0.41752572  1
  Si  Si85  1  0.81160128  0.95656011  0.41571455  1
  Si  Si86  1  0.16694581  0.37716533  0.41578869  1
  Si  Si87  1  0.66881242  0.37741205  0.41514043  1
  Si  Si88  1  0.02144674  0.66445703  0.41415759  1
  Si  Si89  1  0.52104118  0.66856372  0.41645181  1
  O  O90  1  0.09906656  0.03103697  0.30833429  1
  O  O91  1  0.58956723  0.01842380  0.30532082  1
  O  O92  1  0.41350714  0.80801428  0.30880096  1
  O  O93  1  0.91949484  0.81729003  0.30596798  1
  O  O94  1  0.48633658  0.17448994  0.31202962  1
  O  O95  1  0.99147058  0.16651385  0.30687432  1
  O  O96  1  0.09195220  0.16448831  0.80664723  1
  O  O97  1  0.59213993  0.16385637  0.80655248  1
  O  O98  1  0.48967908  0.81213527  0.80837531  1
  O  O99  1  0.98974908  0.81337183  0.80852101  1
  O  O100  1  0.41775275  0.01893342  0.80670602  1
  O  O101  1  0.91729831  0.01880303  0.80699895  1
  O  O102  1  0.40034918  0.96919686  0.69027501  1
  O  O103  1  0.90013092  0.96910242  0.69050094  1
  O  O104  1  0.08370807  0.20018162  0.69005826  1
  O  O105  1  0.58382014  0.20091886  0.69007058  1
  O  O106  1  0.01592135  0.83856317  0.69329512  1
  O  O107  1  0.51599908  0.83897137  0.69319699  1
  O  O108  1  0.40355558  0.83023552  0.19209842  1
  O  O109  1  0.90103041  0.83367647  0.19050979  1
  O  O110  1  0.01569193  0.19861449  0.19099682  1
  O  O111  1  0.51481837  0.18939435  0.19480390  1
  O  O112  1  0.08175417  0.96769128  0.19320015  1
  O  O113  1  0.58659206  0.97473986  0.18868033  1
  O  O114  1  0.44206272  0.36535616  0.64537489  1
  O  O115  1  0.94393844  0.36661943  0.64741642  1
  O  O116  1  0.24365173  0.10968377  0.64531122  1
  O  O117  1  0.74379185  0.10969485  0.64531010  1
  O  O118  1  0.31088867  0.51038147  0.64422051  1
  O  O119  1  0.81070895  0.51108914  0.64416793  1
  O  O120  1  0.42932601  0.50312475  0.14107406  1
  O  O121  1  0.94353328  0.51149976  0.14516005  1
  O  O122  1  0.32129650  0.14286269  0.14134658  1
  O  O123  1  0.81089620  0.11066200  0.14475042  1
  O  O124  1  0.24679755  0.35788860  0.14484692  1
  O  O125  1  0.74367764  0.37855733  0.14493512  1
  O  O126  1  0.23865492  0.31027839  0.02678762  1
  O  O127  1  0.73761719  0.30190009  0.02908590  1
  O  O128  1  0.41739944  0.52547590  0.02450135  1
  O  O129  1  0.91342040  0.52697326  0.02897808  1
  O  O130  1  0.34586712  0.16635184  0.02466526  1
  O  O131  1  0.84994019  0.17399030  0.02917514  1
  O  O132  1  0.23781095  0.17021509  0.52885139  1
  O  O133  1  0.73726553  0.17234384  0.52865688  1
  O  O134  1  0.34561227  0.52398889  0.52781183  1
  O  O135  1  0.84584427  0.52249500  0.52738095  1
  O  O136  1  0.41717829  0.30504758  0.52630068  1
  O  O137  1  0.91365220  0.30239214  0.52984957  1
  O  O138  1  0.26220825  0.68721287  0.97314150  1
  O  O139  1  0.76284376  0.68748417  0.97522028  1
  O  O140  1  0.08094209  0.47097182  0.97715945  1
  O  O141  1  0.58096495  0.47709640  0.97152373  1
  O  O142  1  0.15684711  0.83377156  0.97264713  1
  O  O143  1  0.65566881  0.84076646  0.97596128  1
  O  O144  1  0.26640065  0.84410509  0.47663806  1
  O  O145  1  0.76452772  0.83913471  0.47431153  1
  O  O146  1  0.15793979  0.47266536  0.47480508  1
  O  O147  1  0.65347118  0.47054938  0.47289683  1
  O  O148  1  0.08288210  0.68643878  0.47098040  1
  O  O149  1  0.58078759  0.68961867  0.47388740  1
  O  O150  1  0.06800144  0.64145507  0.35491340  1
  O  O151  1  0.56880994  0.63699182  0.35956181  1
  O  O152  1  0.25075329  0.85736345  0.36012663  1
  O  O153  1  0.75136495  0.85932739  0.35732907  1
  O  O154  1  0.17824627  0.49451830  0.35693491  1
  O  O155  1  0.67840393  0.49404136  0.35626418  1
  O  O156  1  0.06998850  0.49662892  0.85873729  1
  O  O157  1  0.56768991  0.49247172  0.85570209  1
  O  O158  1  0.17844827  0.86295870  0.85626669  1
  O  O159  1  0.67826834  0.86073472  0.85811761  1
  O  O160  1  0.25342783  0.64258716  0.85624671  1
  O  O161  1  0.75244749  0.64317907  0.85780321  1
  O  O162  1  0.01362965  0.83585938  0.41000289  1
  O  O163  1  0.51136942  0.83724221  0.41163757  1
  O  O164  1  0.40782091  0.98408461  0.41254158  1
  O  O165  1  0.90577412  0.97386457  0.41024907  1
  O  O166  1  0.08182267  0.18871697  0.41180756  1
  O  O167  1  0.57988374  0.19178511  0.41041991  1
  O  O168  1  0.01325837  0.19065276  0.91141916  1
  O  O169  1  0.51277371  0.18881908  0.91098202  1
  O  O170  1  0.08184276  0.97378788  0.91143680  1
  O  O171  1  0.58201538  0.97472108  0.91117621  1
  O  O172  1  0.40522666  0.83656295  0.91118961  1
  O  O173  1  0.90511123  0.83712696  0.91184958  1
  O  O174  1  0.48730228  0.16044636  0.58743585  1
  O  O175  1  0.98750656  0.16099929  0.58813134  1
  O  O176  1  0.09488234  0.03295649  0.58802671  1
  O  O177  1  0.59498366  0.03255791  0.58838509  1
  O  O178  1  0.41803696  0.81836206  0.58754379  1
  O  O179  1  0.91758386  0.81804301  0.58783248  1
  O  O180  1  0.48930747  0.81381519  0.08856194  1
  O  O181  1  0.98480115  0.81128923  0.08865474  1
  O  O182  1  0.41826735  0.02882410  0.09055951  1
  O  O183  1  0.92022780  0.02616218  0.08805792  1
  O  O184  1  0.09445613  0.16716649  0.09025370  1
  O  O185  1  0.59373309  0.15627321  0.08771192  1
  O  O186  1  0.34483209  0.16395900  0.74951135  1
  O  O187  1  0.84455711  0.16400125  0.74986963  1
  O  O188  1  0.23676981  0.30943793  0.74863507  1
  O  O189  1  0.73696807  0.30954788  0.74875189  1
  O  O190  1  0.41772070  0.52636696  0.74859898  1
  O  O191  1  0.91748711  0.52668631  0.74896230  1
  O  O192  1  0.34236106  0.51837732  0.24560994  1
  O  O193  1  0.84609107  0.52679882  0.24925275  1
  O  O194  1  0.41540583  0.30897756  0.24460228  1
  O  O195  1  0.91640799  0.30693205  0.24945979  1
  O  O196  1  0.23762213  0.17308721  0.24455188  1
  O  O197  1  0.73581133  0.16577625  0.24953266  1
  O  O198  1  0.31909575  0.49310823  0.92144396  1
  O  O199  1  0.81876130  0.49368522  0.92344797  1
  O  O200  1  0.42635284  0.35951120  0.92077479  1
  O  O201  1  0.92867312  0.36380789  0.92392263  1
  O  O202  1  0.25239178  0.14431546  0.92190710  1
  O  O203  1  0.75368219  0.14468709  0.92330483  1
  O  O204  1  0.32357642  0.15024169  0.42262502  1
  O  O205  1  0.81929829  0.14350363  0.42342190  1
  O  O206  1  0.25325691  0.36059473  0.42222701  1
  O  O207  1  0.75299515  0.35784695  0.42214763  1
  O  O208  1  0.42901463  0.49149992  0.42310396  1
  O  O209  1  0.92807422  0.49286934  0.42296114  1
  O  O210  1  0.17627599  0.50095238  0.07877700  1
  O  O211  1  0.67649253  0.50057768  0.07348061  1
  O  O212  1  0.07350717  0.64318057  0.07418502  1
  O  O213  1  0.57391271  0.65007481  0.07776561  1
  O  O214  1  0.24902968  0.85736822  0.07749018  1
  O  O215  1  0.75029176  0.84866049  0.07446806  1
  O  O216  1  0.17672775  0.85136903  0.57395485  1
  O  O217  1  0.67790239  0.85297239  0.57374058  1
  O  O218  1  0.25102860  0.65248984  0.57418906  1
  O  O219  1  0.75112249  0.65124346  0.57292149  1
  O  O220  1  0.07782123  0.49506712  0.57523930  1
  O  O221  1  0.57841826  0.49475922  0.57517139  1
  O  O222  1  0.14998325  0.82420738  0.25541185  1
  O  O223  1  0.65155808  0.82523024  0.25589556  1
  O  O224  1  0.26004620  0.68818448  0.25555869  1
  O  O225  1  0.76163713  0.70124794  0.25508153  1
  O  O226  1  0.08869549  0.47746092  0.25513013  1
  O  O227  1  0.58783651  0.47156902  0.25564070  1
  O  O228  1  0.14770407  0.47570887  0.75487770  1
  O  O229  1  0.64850670  0.47644492  0.75497323  1
  O  O230  1  0.08930868  0.70245624  0.75487339  1
  O  O231  1  0.58990670  0.70400104  0.75473122  1
  O  O232  1  0.26168003  0.82002952  0.75469467  1
  O  O233  1  0.76164971  0.82006320  0.75500600  1
