# generated using pymatgen
data_Na3ScTiSi(PO6)2
_symmetry_space_group_name_H-M   'P 1'
_cell_length_a   15.52764471
_cell_length_b   9.00890761
_cell_length_c   8.95469027
_cell_angle_alpha   90.00000000
_cell_angle_beta   125.21914648
_cell_angle_gamma   90.00000000
_symmetry_Int_Tables_number   1
_chemical_formula_structural   Na3ScTiSi(PO6)2
_chemical_formula_sum   'Na12 Sc4 Ti4 Si4 P8 O48'
_cell_volume   1023.35177747
_cell_formula_units_Z   4
loop_
 _symmetry_equiv_pos_site_id
 _symmetry_equiv_pos_as_xyz
  1  'x, y, z'
loop_
 _atom_site_type_symbol
 _atom_site_label
 _atom_site_symmetry_multiplicity
 _atom_site_fract_x
 _atom_site_fract_y
 _atom_site_fract_z
 _atom_site_occupancy
  Na  Na0  1  0.25341911  0.72759127  -0.00005618  1
  Na  Na1  1  0.75341911  0.77240873  0.49994382  1
  Na  Na2  1  0.75341911  0.22759127  -0.00005618  1
  Na  Na3  1  0.25341911  0.27240873  0.49994382  1
  Na  Na4  1  0.50271543  0.10301664  0.75253213  1
  Na  Na5  1  0.50271543  0.89698336  0.25253213  1
  Na  Na6  1  0.00271543  0.60301664  0.75253213  1
  Na  Na7  1  0.00271543  0.39698336  0.25253213  1
  Na  Na8  1  0.18990114  0.93350036  0.29478586  1
  Na  Na9  1  0.18990114  0.06649964  0.79478586  1
  Na  Na10  1  0.68990114  0.43350036  0.29478586  1
  Na  Na11  1  0.68990114  0.56649964  0.79478586  1
  Sc  Sc12  1  0.10571205  0.74389408  0.56459305  1
  Sc  Sc13  1  0.10571205  0.25610592  0.06459305  1
  Sc  Sc14  1  0.60571205  0.24389408  0.56459305  1
  Sc  Sc15  1  0.60571205  0.75610592  0.06459305  1
  Ti  Ti16  1  0.89729532  0.75880145  0.93942923  1
  Ti  Ti17  1  0.89729532  0.24119855  0.43942923  1
  Ti  Ti18  1  0.39729532  0.25880145  0.93942923  1
  Ti  Ti19  1  0.39729532  0.74119855  0.43942923  1
  Si  Si20  1  0.64810957  0.89110430  0.74558687  1
  Si  Si21  1  0.64810957  0.10889570  0.24558687  1
  Si  Si22  1  0.14810957  0.39110430  0.74558687  1
  Si  Si23  1  0.14810957  0.60889570  0.24558687  1
  P  P24  1  0.99581608  0.95896518  0.75447700  1
  P  P25  1  0.99581608  0.04103482  0.25447700  1
  P  P26  1  0.49581608  0.45896518  0.75447700  1
  P  P27  1  0.49581608  0.54103482  0.25447700  1
  P  P28  1  0.35357469  0.90244388  0.75376478  1
  P  P29  1  0.35357469  0.09755612  0.25376478  1
  P  P30  1  0.85357469  0.40244388  0.75376478  1
  P  P31  1  0.85357469  0.59755612  0.25376478  1
  O  O32  1  0.15305990  0.57067177  0.74619862  1
  O  O33  1  0.85012219  0.57670440  0.75224695  1
  O  O34  1  0.85012219  0.42329560  0.25224695  1
  O  O35  1  0.15305990  0.42932823  0.24619862  1
  O  O36  1  0.65305990  0.07067177  0.74619862  1
  O  O37  1  0.35012219  0.07670440  0.75224695  1
  O  O38  1  0.35012219  0.92329560  0.25224695  1
  O  O39  1  0.65305990  0.92932823  0.24619862  1
  O  O40  1  0.43278180  0.56728035  0.58510789  1
  O  O41  1  0.56230326  0.54801637  0.92969614  1
  O  O42  1  0.56230326  0.45198363  0.42969614  1
  O  O43  1  0.43278180  0.43271965  0.08510789  1
  O  O44  1  0.93278180  0.06728035  0.58510789  1
  O  O45  1  0.06230326  0.04801637  0.92969614  1
  O  O46  1  0.06230326  0.95198363  0.42969614  1
  O  O47  1  0.93278180  0.93271965  0.08510789  1
  O  O48  1  0.25676848  0.84828435  0.74518446  1
  O  O49  1  0.74671469  0.80637512  0.75944737  1
  O  O50  1  0.74671469  0.19362488  0.25944737  1
  O  O51  1  0.25676848  0.15171565  0.24518446  1
  O  O52  1  0.75676848  0.34828435  0.74518446  1
  O  O53  1  0.24671469  0.30637512  0.75944737  1
  O  O54  1  0.24671469  0.69362488  0.25944737  1
  O  O55  1  0.75676848  0.65171565  0.24518446  1
  O  O56  1  0.35318022  0.85939617  0.58257501  1
  O  O57  1  0.64467472  0.84114959  0.91447789  1
  O  O58  1  0.64467472  0.15885041  0.41447789  1
  O  O59  1  0.35318022  0.14060383  0.08257501  1
  O  O60  1  0.85318022  0.35939617  0.58257501  1
  O  O61  1  0.14467472  0.34114959  0.91447789  1
  O  O62  1  0.14467472  0.65885041  0.41447789  1
  O  O63  1  0.85318022  0.64060383  0.08257501  1
  O  O64  1  0.45328817  0.84555454  0.93005155  1
  O  O65  1  0.53546757  0.82292958  0.55882990  1
  O  O66  1  0.53546757  0.17707042  0.05882990  1
  O  O67  1  0.45328817  0.15444546  0.43005155  1
  O  O68  1  0.95328817  0.34555454  0.93005155  1
  O  O69  1  0.03546757  0.32292958  0.55882990  1
  O  O70  1  0.03546757  0.67707042  0.05882990  1
  O  O71  1  0.95328817  0.65444546  0.43005155  1
  O  O72  1  0.07082850  0.85937748  0.73843223  1
  O  O73  1  0.91426712  0.85740652  0.75263924  1
  O  O74  1  0.91426712  0.14259348  0.25263924  1
  O  O75  1  0.07082850  0.14062252  0.23843223  1
  O  O76  1  0.57082850  0.35937748  0.73843223  1
  O  O77  1  0.41426712  0.35740652  0.75263924  1
  O  O78  1  0.41426712  0.64259348  0.25263924  1
  O  O79  1  0.57082850  0.64062252  0.23843223  1
