# generated using pymatgen
data_Na7Ca2Sc2P5SO24
_symmetry_space_group_name_H-M   'P 1'
_cell_length_a   9.26821322
_cell_length_b   9.24867392
_cell_length_c   22.92717532
_cell_angle_alpha   90.01208088
_cell_angle_beta   90.04947116
_cell_angle_gamma   119.92623773
_symmetry_Int_Tables_number   1
_chemical_formula_structural   Na7Ca2Sc2P5SO24
_chemical_formula_sum   'Na21 Ca6 Sc6 P15 S3 O72'
_cell_volume   1703.25122098
_cell_formula_units_Z   3
loop_
 _symmetry_equiv_pos_site_id
 _symmetry_equiv_pos_as_xyz
  1  'x, y, z'
loop_
 _atom_site_type_symbol
 _atom_site_label
 _atom_site_symmetry_multiplicity
 _atom_site_fract_x
 _atom_site_fract_y
 _atom_site_fract_z
 _atom_site_occupancy
  Na  Na0  1  0.64119556  0.99678796  0.25168007  1
  Na  Na1  1  0.99707354  0.62872251  0.25356123  1
  Na  Na2  1  0.63478815  0.63890875  0.74831110  1
  Na  Na3  1  0.00494193  0.36745843  0.75209146  1
  Na  Na4  1  0.36309163  0.99497333  0.75209834  1
  Na  Na5  1  0.29617174  0.33250159  0.58600362  1
  Na  Na6  1  0.03778577  0.70491032  0.58254946  1
  Na  Na7  1  0.66816093  0.96192131  0.58370709  1
  Na  Na8  1  0.29696914  0.96296164  0.08010868  1
  Na  Na9  1  0.66810040  0.70372127  0.08672242  1
  Na  Na10  1  0.03821826  0.33305270  0.08398396  1
  Na  Na11  1  0.98229423  0.66741549  0.91623728  1
  Na  Na12  1  0.32602580  0.29992797  0.91894870  1
  Na  Na13  1  0.96725138  0.30927460  0.41435557  1
  Na  Na14  1  0.69814661  0.67157039  0.41843862  1
  Na  Na15  1  0.00559699  0.99358578  0.50045835  1
  Na  Na16  1  0.99788376  0.00688024  0.99988086  1
  Na  Na17  1  0.66831225  0.31628989  0.83417267  1
  Na  Na18  1  0.66002809  0.32861381  0.33322281  1
  Na  Na19  1  0.33391604  0.64734394  0.16810718  1
  Na  Na20  1  0.33369069  0.66787416  0.66695663  1
  Ca  Ca21  1  0.99976226  0.99993464  0.64962606  1
  Ca  Ca22  1  0.00114445  0.00454690  0.14963590  1
  Ca  Ca23  1  0.33042237  0.66785817  0.01467178  1
  Ca  Ca24  1  0.33420082  0.67596137  0.51401599  1
  Ca  Ca25  1  0.33226374  0.66417633  0.31971568  1
  Ca  Ca26  1  0.33169469  0.67118826  0.82113532  1
  Sc  Sc27  1  0.99120025  0.99393697  0.34767135  1
  Sc  Sc28  1  0.00199974  0.00777763  0.84647417  1
  Sc  Sc29  1  0.66738971  0.33309710  0.68409483  1
  Sc  Sc30  1  0.66809870  0.33919680  0.18372247  1
  Sc  Sc31  1  0.66699411  0.32147795  0.98385486  1
  Sc  Sc32  1  0.66722520  0.32775874  0.48417338  1
  P  P33  1  0.70262657  0.69914349  0.24865050  1
  P  P34  1  0.99476535  0.29835083  0.24935026  1
  P  P35  1  0.30269012  0.29878958  0.74931305  1
  P  P36  1  0.99516239  0.69931350  0.74977307  1
  P  P37  1  0.70385049  0.00314275  0.74821306  1
  P  P38  1  0.95735346  0.33463689  0.58340869  1
  P  P39  1  0.37992297  0.04620505  0.58432939  1
  P  P40  1  0.66446092  0.61971951  0.58274238  1
  P  P41  1  0.95463492  0.62092905  0.08273977  1
  P  P42  1  0.66517072  0.04331333  0.08561667  1
  P  P43  1  0.38176748  0.33475653  0.08201025  1
  P  P44  1  0.02392477  0.35630300  0.91648490  1
  P  P45  1  0.33065518  0.97782344  0.91618872  1
  P  P46  1  0.64407272  0.97597164  0.41565379  1
  P  P47  1  0.02167668  0.66694425  0.41684211  1
  S  S48  1  0.29947453  0.00491003  0.24976332  1
  S  S49  1  0.64319920  0.66718229  0.91677112  1
  S  S50  1  0.33216376  0.35813071  0.41801029  1
  O  O51  1  0.20976644  0.02254521  0.30039767  1
  O  O52  1  0.81901369  0.79121081  0.30270150  1
  O  O53  1  0.97637590  0.18499955  0.30330498  1
  O  O54  1  0.21170608  0.18459190  0.80330494  1
  O  O55  1  0.97177898  0.78926270  0.80397843  1
  O  O56  1  0.82351147  0.02720088  0.80002749  1
  O  O57  1  0.77301910  0.97435759  0.69160873  1
  O  O58  1  0.19897227  0.22527889  0.69410947  1
  O  O59  1  0.02263302  0.80171125  0.69443894  1
  O  O60  1  0.78154124  0.80070236  0.19318208  1
  O  O61  1  0.01679756  0.22278858  0.19322340  1
  O  O62  1  0.20483335  0.98035292  0.19543403  1
  O  O63  1  0.86731274  0.35044607  0.63848460  1
  O  O64  1  0.48190238  0.13250974  0.64057928  1
  O  O65  1  0.64955248  0.51520796  0.63832141  1
  O  O66  1  0.86582940  0.51554527  0.13821740  1
  O  O67  1  0.64770230  0.12980320  0.14126547  1
  O  O68  1  0.49091673  0.34968742  0.13564310  1
  O  O69  1  0.46777267  0.31986662  0.02611222  1
  O  O70  1  0.84841701  0.53205988  0.02804781  1
  O  O71  1  0.68119744  0.15290304  0.03220884  1
  O  O72  1  0.47470682  0.15597949  0.53132853  1
  O  O73  1  0.67865427  0.52905353  0.52783075  1
  O  O74  1  0.85197407  0.31983351  0.52849779  1
  O  O75  1  0.56692476  0.69231199  0.96980029  1
  O  O76  1  0.13633574  0.43147187  0.97091032  1
  O  O77  1  0.29743343  0.86758389  0.97081344  1
  O  O78  1  0.57219596  0.86433923  0.46981732  1
  O  O79  1  0.30029467  0.42940377  0.47116769  1
  O  O80  1  0.12329659  0.69281407  0.47242184  1
  O  O81  1  0.09770019  0.63012251  0.36294208  1
  O  O82  1  0.54058038  0.89902876  0.36040392  1
  O  O83  1  0.36458829  0.47024364  0.36755379  1
  O  O84  1  0.10021580  0.46673766  0.86225293  1
  O  O85  1  0.36018359  0.90321232  0.86119583  1
  O  O86  1  0.53840583  0.63913828  0.86497573  1
  O  O87  1  0.99823647  0.82246803  0.40806784  1
  O  O88  1  0.82453649  0.99702025  0.40816160  1
  O  O89  1  0.18011592  0.19263426  0.40835665  1
  O  O90  1  0.00997245  0.18181306  0.90787312  1
  O  O91  1  0.16799165  0.99209247  0.90921907  1
  O  O92  1  0.81381191  0.81448017  0.91007241  1
  O  O93  1  0.97245374  0.17553426  0.58360832  1
  O  O94  1  0.20535820  0.02975842  0.58402178  1
  O  O95  1  0.82332598  0.79404639  0.58341694  1
  O  O96  1  0.97285717  0.79682033  0.08439451  1
  O  O97  1  0.82390824  0.02746455  0.08483803  1
  O  O98  1  0.20718380  0.17565304  0.08395982  1
  O  O99  1  0.69162087  0.16686600  0.74624662  1
  O  O100  1  0.47666654  0.30850741  0.74630985  1
  O  O101  1  0.83201767  0.52362002  0.74640650  1
  O  O102  1  0.69527711  0.52625073  0.24625238  1
  O  O103  1  0.82601338  0.30363967  0.24763925  1
  O  O104  1  0.46964612  0.15448079  0.24704333  1
  O  O105  1  0.65966751  0.51414493  0.92264286  1
  O  O106  1  0.85184306  0.34684773  0.92462179  1
  O  O107  1  0.48185541  0.15855890  0.92375315  1
  O  O108  1  0.67059400  0.15539737  0.42360421  1
  O  O109  1  0.48442625  0.34360695  0.42432384  1
  O  O110  1  0.84148807  0.50871270  0.42294577  1
  O  O111  1  0.36566201  0.49413436  0.08146181  1
  O  O112  1  0.12889308  0.63541154  0.08175048  1
  O  O113  1  0.50711355  0.86828039  0.08225612  1
  O  O114  1  0.36496271  0.87157776  0.58250230  1
  O  O115  1  0.50513137  0.63492569  0.58144083  1
  O  O116  1  0.13194417  0.49308223  0.58169877  1
  O  O117  1  0.31742187  0.85350526  0.25588434  1
  O  O118  1  0.53217749  0.68775182  0.25572392  1
  O  O119  1  0.13992689  0.47918219  0.25506224  1
  O  O120  1  0.32895257  0.47659709  0.75673476  1
  O  O121  1  0.14800923  0.67451121  0.75549290  1
  O  O122  1  0.52801725  0.84990889  0.75612464  1
