# generated using pymatgen
data_Na3YSiSn(PO6)2
_symmetry_space_group_name_H-M   'P 1'
_cell_length_a   9.25359325
_cell_length_b   9.25359053
_cell_length_c   22.61334240
_cell_angle_alpha   90.39792773
_cell_angle_beta   89.60207603
_cell_angle_gamma   119.89448869
_symmetry_Int_Tables_number   1
_chemical_formula_structural   Na3YSiSn(PO6)2
_chemical_formula_sum   'Na18 Y6 Si6 Sn6 P12 O72'
_cell_volume   1678.66043728
_cell_formula_units_Z   6
loop_
 _symmetry_equiv_pos_site_id
 _symmetry_equiv_pos_as_xyz
  1  'x, y, z'
loop_
 _atom_site_type_symbol
 _atom_site_label
 _atom_site_symmetry_multiplicity
 _atom_site_fract_x
 _atom_site_fract_y
 _atom_site_fract_z
 _atom_site_occupancy
  Na  Na0  1  0.00155626  0.98966455  0.50062834  1
  Na  Na1  1  0.01033539  0.99844312  0.00062825  1
  Na  Na2  1  0.66687540  0.32062459  0.83419458  1
  Na  Na3  1  0.67937507  0.33312450  0.33419460  1
  Na  Na4  1  0.35232630  0.67855330  0.16722532  1
  Na  Na5  1  0.32144658  0.64767356  0.66722517  1
  Na  Na6  1  0.35788880  0.35651978  0.24754673  1
  Na  Na7  1  0.99947448  0.63609013  0.24717067  1
  Na  Na8  1  0.64348016  0.64211090  0.74754656  1
  Na  Na9  1  0.36390997  0.00052546  0.74717062  1
  Na  Na10  1  0.03938892  0.70114679  0.57785109  1
  Na  Na11  1  0.65110154  0.96897014  0.58733943  1
  Na  Na12  1  0.29885411  0.96061259  0.07785112  1
  Na  Na13  1  0.03102992  0.34889837  0.08733936  1
  Na  Na14  1  0.97884621  0.68025645  0.92144804  1
  Na  Na15  1  0.69017383  0.02176250  0.90909733  1
  Na  Na16  1  0.97823739  0.30982559  0.40909727  1
  Na  Na17  1  0.31974371  0.02115355  0.42144810  1
  Y  Y18  1  0.98513731  0.98933449  0.35234319  1
  Y  Y19  1  0.01066534  0.01486281  0.85234317  1
  Y  Y20  1  0.67104805  0.32992059  0.68638488  1
  Y  Y21  1  0.67007948  0.32895133  0.18638494  1
  Y  Y22  1  0.33817616  0.66339355  0.01870203  1
  Y  Y23  1  0.33660656  0.66182332  0.51870192  1
  Si  Si24  1  0.01110616  0.30667057  0.25279199  1
  Si  Si25  1  0.69332951  0.98889388  0.75279201  1
  Si  Si26  1  0.36035614  0.03939654  0.58433397  1
  Si  Si27  1  0.96060337  0.63964390  0.08433395  1
  Si  Si28  1  0.34439639  0.97373435  0.92005921  1
  Si  Si29  1  0.02626559  0.65560360  0.42005917  1
  Sn  Sn30  1  0.00566630  0.00996133  0.64986585  1
  Sn  Sn31  1  0.99003878  0.99433387  0.14986586  1
  Sn  Sn32  1  0.66417222  0.33854477  0.98285630  1
  Sn  Sn33  1  0.66145525  0.33582783  0.48285624  1
  Sn  Sn34  1  0.33055493  0.66347052  0.31650742  1
  Sn  Sn35  1  0.33652968  0.66944535  0.81650733  1
  P  P36  1  0.28856206  0.98615985  0.25120971  1
  P  P37  1  0.69050024  0.70625955  0.24839478  1
  P  P38  1  0.29374040  0.30949985  0.74839475  1
  P  P39  1  0.01383996  0.71143780  0.75120959  1
  P  P40  1  0.95696930  0.31858373  0.57975309  1
  P  P41  1  0.68282809  0.64030372  0.58743062  1
  P  P42  1  0.68141593  0.04303049  0.07975317  1
  P  P43  1  0.35969608  0.31717159  0.08743057  1
  P  P44  1  0.62769110  0.65218811  0.91223403  1
  P  P45  1  0.02806567  0.37803747  0.91886301  1
  P  P46  1  0.62196265  0.97193448  0.41886291  1
  P  P47  1  0.34781189  0.37230896  0.41223408  1
  O  O48  1  0.20319991  0.00004381  0.30725212  1
  O  O49  1  0.80394143  0.77997504  0.30157088  1
  O  O50  1  0.00270071  0.21053188  0.31258411  1
  O  O51  1  0.22002478  0.19605844  0.80157092  1
  O  O52  1  -0.00004396  0.79680022  0.80725217  1
  O  O53  1  0.78946795  0.99729921  0.81258421  1
  O  O54  1  0.79262453  0.96884535  0.69278507  1
  O  O55  1  0.18913168  0.22485223  0.69159008  1
  O  O56  1  0.04329095  0.82582362  0.69538494  1
  O  O57  1  0.77514783  0.81086827  0.19159010  1
  O  O58  1  0.03115468  0.20737548  0.19278508  1
  O  O59  1  0.17417659  0.95670917  0.19538498  1
  O  O60  1  0.87343776  0.34952989  0.63276489  1
  O  O61  1  0.46975133  0.12441813  0.64241143  1
  O  O62  1  0.66813286  0.55121979  0.64521768  1
  O  O63  1  0.87558162  0.53024831  0.14241148  1
  O  O64  1  0.65046993  0.12656261  0.13276501  1
  O  O65  1  0.44878000  0.33186687  0.14521766  1
  O  O66  1  0.45415475  0.29366246  0.03335771  1
  O  O67  1  0.84977964  0.54649686  0.02304806  1
  O  O68  1  0.70583477  0.15006931  0.02256730  1
  O  O69  1  0.45350323  0.15022042  0.52304792  1
  O  O70  1  0.70633759  0.54584492  0.53335763  1
  O  O71  1  0.84993099  0.29416522  0.52256729  1
  O  O72  1  0.53657199  0.67301625  0.96469427  1
  O  O73  1  0.11801221  0.44913445  0.97740625  1
  O  O74  1  0.32644617  0.86692594  0.97848786  1
  O  O75  1  0.55086560  0.88198772  0.47740633  1
  O  O76  1  0.32698366  0.46342810  0.46469427  1
  O  O77  1  0.13307429  0.67355367  0.47848784  1
  O  O78  1  0.11888941  0.62456308  0.36006264  1
  O  O79  1  0.50704221  0.87059463  0.36560707  1
  O  O80  1  0.36754021  0.47153090  0.35350572  1
  O  O81  1  0.12940516  0.49295763  0.86560717  1
  O  O82  1  0.37543704  0.88111053  0.86006253  1
  O  O83  1  0.52846930  0.63245990  0.85350576  1
  O  O84  1  0.01480507  0.82467813  0.41646059  1
  O  O85  1  0.80326829  0.01113998  0.41327835  1
  O  O86  1  0.19359246  0.19512081  0.41074177  1
  O  O87  1  0.98886008  0.19673154  0.91327830  1
  O  O88  1  0.17532160  0.98519500  0.91646051  1
  O  O89  1  0.80487931  0.80640766  0.91074175  1
  O  O90  1  0.95364954  0.14794437  0.58540999  1
  O  O91  1  0.17053739  0.01729378  0.58705372  1
  O  O92  1  0.84843196  0.81448631  0.58698359  1
  O  O93  1  0.98270619  0.82946253  0.08705373  1
  O  O94  1  0.85205602  0.04635061  0.08540999  1
  O  O95  1  0.18551420  0.15156860  0.08698352  1
  O  O96  1  0.65429953  0.14214124  0.75079287  1
  O  O97  1  0.47527216  0.34629818  0.74302892  1
  O  O98  1  0.85554918  0.54180570  0.74636217  1
  O  O99  1  0.65370175  0.52472752  0.24302893  1
  O  O100  1  0.85785923  0.34570050  0.25079282  1
  O  O101  1  0.45819466  0.14445101  0.24636218  1
  O  O102  1  0.64637035  0.49414706  0.91706216  1
  O  O103  1  0.85816870  0.37809122  0.91781368  1
  O  O104  1  0.52262559  0.15599964  0.92197866  1
  O  O105  1  0.62190871  0.14183143  0.41781357  1
  O  O106  1  0.50585321  0.35362958  0.41706221  1
  O  O107  1  0.84400030  0.47737442  0.42197859  1
  O  O108  1  0.32716411  0.46403629  0.08121486  1
  O  O109  1  0.14869802  0.66217659  0.08175298  1
  O  O110  1  0.53434963  0.86513790  0.07645277  1
  O  O111  1  0.33782361  0.85130230  0.58175306  1
  O  O112  1  0.53596345  0.67283603  0.58121486  1
  O  O113  1  0.13486197  0.46565026  0.57645266  1
  O  O114  1  0.30310164  0.82441895  0.25351186  1
  O  O115  1  0.52044188  0.70243528  0.25489006  1
  O  O116  1  0.19075057  0.49098954  0.25068183  1
  O  O117  1  0.29756466  0.47955785  0.75488999  1
  O  O118  1  0.17558106  0.69689838  0.75351188  1
  O  O119  1  0.50901049  0.80924941  0.75068195  1
