# generated using pymatgen
data_Na10Y4Mg4Si3(S3O16)3
_symmetry_space_group_name_H-M   'P 1'
_cell_length_a   18.41370961
_cell_length_b   9.19290117
_cell_length_c   23.16951467
_cell_angle_alpha   90.02276507
_cell_angle_beta   89.89251391
_cell_angle_gamma   120.20956693
_symmetry_Int_Tables_number   1
_chemical_formula_structural   Na10Y4Mg4Si3(S3O16)3
_chemical_formula_sum   'Na30 Y12 Mg12 Si9 S27 O144'
_cell_volume   3389.37486494
_cell_formula_units_Z   3
loop_
 _symmetry_equiv_pos_site_id
 _symmetry_equiv_pos_as_xyz
  1  'x, y, z'
loop_
 _atom_site_type_symbol
 _atom_site_label
 _atom_site_symmetry_multiplicity
 _atom_site_fract_x
 _atom_site_fract_y
 _atom_site_fract_z
 _atom_site_occupancy
  Na  Na0  1  0.19277325  0.36773815  0.24055248  1
  Na  Na1  1  0.69226432  0.37159965  0.24058405  1
  Na  Na2  1  0.99070900  0.64270061  0.25487226  1
  Na  Na3  1  0.49206825  0.63566198  0.26352759  1
  Na  Na4  1  0.32518949  0.66060821  0.74305787  1
  Na  Na5  1  0.82228513  0.65436358  0.74243227  1
  Na  Na6  1  0.99194686  0.34319357  0.75250523  1
  Na  Na7  1  0.19322352  0.01051163  0.73622262  1
  Na  Na8  1  0.69387611  0.01078276  0.73747752  1
  Na  Na9  1  0.52403550  0.70462892  0.56870327  1
  Na  Na10  1  0.32565632  0.97156589  0.59087210  1
  Na  Na11  1  0.82548000  0.96648790  0.59015766  1
  Na  Na12  1  0.15507587  0.98831828  0.07774722  1
  Na  Na13  1  0.65496757  0.98761024  0.07756599  1
  Na  Na14  1  0.32740638  0.67929337  0.09393679  1
  Na  Na15  1  0.82692264  0.67967042  0.09471461  1
  Na  Na16  1  0.65844270  0.00971909  0.42695579  1
  Na  Na17  1  0.35865941  0.67674649  0.40637679  1
  Na  Na18  1  0.02234573  0.00300947  0.49732650  1
  Na  Na19  1  0.51471473  0.01180589  0.49437195  1
  Na  Na20  1  0.01189157  0.03637383  0.99637670  1
  Na  Na21  1  0.51220834  0.03708245  0.99562769  1
  Na  Na22  1  0.34746802  0.31602430  0.82695969  1
  Na  Na23  1  0.83380492  0.31203245  0.83026615  1
  Na  Na24  1  0.34547581  0.34483603  0.33171335  1
  Na  Na25  1  0.84018756  0.35354798  0.32745846  1
  Na  Na26  1  0.17599211  0.65160439  0.16109685  1
  Na  Na27  1  0.67687319  0.65214400  0.16367024  1
  Na  Na28  1  0.16975677  0.68781847  0.65498699  1
  Na  Na29  1  0.66924738  0.67189875  0.65723435  1
  Y  Y30  1  0.00327391  0.00017431  0.64716437  1
  Y  Y31  1  0.50248707  0.00848323  0.65000540  1
  Y  Y32  1  0.99566933  0.00517163  0.15148531  1
  Y  Y33  1  0.49636857  0.00454553  0.15069080  1
  Y  Y34  1  0.32981038  0.33234136  0.98141028  1
  Y  Y35  1  0.82965292  0.33314289  0.98129559  1
  Y  Y36  1  0.32839559  0.32579116  0.48121687  1
  Y  Y37  1  0.83069116  0.33383609  0.48436694  1
  Y  Y38  1  0.17247893  0.67386239  0.31516919  1
  Y  Y39  1  0.67008166  0.67168449  0.31865443  1
  Y  Y40  1  0.17212661  0.67631508  0.81977141  1
  Y  Y41  1  0.66633265  0.66767438  0.81785873  1
  Mg  Mg42  1  0.99168823  0.98259530  0.34985878  1
  Mg  Mg43  1  0.49520041  0.98561954  0.34964465  1
  Mg  Mg44  1  0.99407680  0.00595424  0.85176803  1
  Mg  Mg45  1  0.49398635  0.00751144  0.85121854  1
  Mg  Mg46  1  0.33401883  0.30606774  0.68090054  1
  Mg  Mg47  1  0.83154167  0.31357058  0.67904857  1
  Mg  Mg48  1  0.33196231  0.34535580  0.18259840  1
  Mg  Mg49  1  0.83051663  0.34396157  0.18213954  1
  Mg  Mg50  1  0.16293252  0.64374363  0.01687122  1
  Mg  Mg51  1  0.66271489  0.64368367  0.01732514  1
  Mg  Mg52  1  0.15986471  0.67296374  0.51711511  1
  Mg  Mg53  1  0.66393564  0.67469603  0.51349526  1
  Si  Si54  1  0.35043479  0.69160035  0.24941967  1
  Si  Si55  1  0.85069347  0.69367446  0.24818615  1
  Si  Si56  1  0.35329029  0.00806860  0.74987251  1
  Si  Si57  1  0.85331702  0.00726889  0.74887947  1
  Si  Si58  1  0.18225132  0.02163960  0.58511649  1
  Si  Si59  1  0.68241746  0.02335801  0.58381603  1
  Si  Si60  1  0.18290163  0.33686509  0.08596828  1
  Si  Si61  1  0.68291056  0.33724662  0.08558042  1
  Si  Si62  1  0.51666251  0.67393728  0.41585790  1
  S  S63  1  0.14770890  0.00575750  0.25059537  1
  S  S64  1  0.64994190  0.00604757  0.25034402  1
  S  S65  1  0.99618197  0.29515961  0.25386663  1
  S  S66  1  0.49716552  0.29440596  0.25327896  1
  S  S67  1  0.14806480  0.29275251  0.75382982  1
  S  S68  1  0.65165675  0.29507646  0.75345004  1
  S  S69  1  0.99722735  0.70215097  0.75395083  1
  S  S70  1  0.49687261  0.70313997  0.75203373  1
  S  S71  1  0.48269324  0.34144991  0.58413157  1
  S  S72  1  0.98435250  0.34355781  0.58545088  1
  S  S73  1  0.33050868  0.62554788  0.58619209  1
  S  S74  1  0.82897810  0.62716728  0.58676259  1
  S  S75  1  0.48473905  0.62682279  0.08471889  1
  S  S76  1  0.98488142  0.62725271  0.08465141  1
  S  S77  1  0.32901254  0.03544564  0.08369918  1
  S  S78  1  0.82941036  0.03653540  0.08350758  1
  S  S79  1  0.32091605  0.67863354  0.91840238  1
  S  S80  1  0.81955260  0.67817724  0.91731424  1
  S  S81  1  0.01917124  0.36328993  0.91592095  1
  S  S82  1  0.51923205  0.36213070  0.91816130  1
  S  S83  1  0.15994626  0.96171883  0.91878107  1
  S  S84  1  0.66082427  0.96094870  0.91824278  1
  S  S85  1  0.31730383  0.95899505  0.41972832  1
  S  S86  1  0.82158214  0.96629133  0.41966212  1
  S  S87  1  0.15928472  0.36632162  0.41782628  1
  S  S88  1  0.66395059  0.36561182  0.41695537  1
  S  S89  1  0.01975930  0.67604927  0.41559269  1
  O  O90  1  0.10563304  0.03432879  0.29974882  1
  O  O91  1  0.60854551  0.03132610  0.30140982  1
  O  O92  1  0.40786532  0.79076551  0.30545808  1
  O  O93  1  0.91651655  0.79809956  0.29965975  1
  O  O94  1  0.49051969  0.19285333  0.30385505  1
  O  O95  1  0.98976405  0.19389925  0.30439411  1
  O  O96  1  0.10827423  0.18262296  0.80387983  1
  O  O97  1  0.60882893  0.18684171  0.80351726  1
  O  O98  1  0.48897478  0.79318488  0.80192944  1
  O  O99  1  0.98832712  0.78775389  0.80458964  1
  O  O100  1  0.40947943  0.01291531  0.80377245  1
  O  O101  1  0.91720532  0.03690873  0.80160526  1
  O  O102  1  0.38704662  0.96880184  0.68877193  1
  O  O103  1  0.88728420  0.96505428  0.68906433  1
  O  O104  1  0.09732242  0.21855504  0.70102533  1
  O  O105  1  0.60345235  0.22192668  0.69970836  1
  O  O106  1  0.01668086  0.80850168  0.70167892  1
  O  O107  1  0.51419226  0.80647612  0.69840119  1
  O  O108  1  0.38931629  0.79256734  0.18848253  1
  O  O109  1  0.88707318  0.78786836  0.18535848  1
  O  O110  1  0.01577840  0.22830419  0.20109280  1
  O  O111  1  0.51282877  0.22275685  0.20017233  1
  O  O112  1  0.09858731  0.98047826  0.19634433  1
  O  O113  1  0.59859191  0.98323569  0.19760392  1
  O  O114  1  0.44219303  0.36689750  0.63499415  1
  O  O115  1  0.94595012  0.36569833  0.63929732  1
  O  O116  1  0.23687410  0.10788531  0.64453038  1
  O  O117  1  0.73879244  0.11631372  0.64124283  1
  O  O118  1  0.32490215  0.52987816  0.63855154  1
  O  O119  1  0.82515698  0.53421591  0.64051403  1
  O  O120  1  0.44680410  0.52770370  0.13741162  1
  O  O121  1  0.94737198  0.52898169  0.13761506  1
  O  O122  1  0.32392199  0.12527238  0.13488386  1
  O  O123  1  0.82432234  0.12609430  0.13474109  1
  O  O124  1  0.23788598  0.36084475  0.14475870  1
  O  O125  1  0.73769678  0.36062405  0.14421839  1
  O  O126  1  0.23140031  0.30420015  0.03189845  1
  O  O127  1  0.73120604  0.30421813  0.03138142  1
  O  O128  1  0.43179625  0.54363380  0.03373154  1
  O  O129  1  0.93188381  0.54310340  0.03384775  1
  O  O130  1  0.34366999  0.13607312  0.03056686  1
  O  O131  1  0.84390120  0.13725890  0.03039098  1
  O  O132  1  0.23234046  0.14165519  0.53012793  1
  O  O133  1  0.72673532  0.13193372  0.52465587  1
  O  O134  1  0.34487336  0.54951376  0.53375204  1
  O  O135  1  0.84092201  0.54508566  0.53567553  1
  O  O136  1  0.43214036  0.31942507  0.53155670  1
  O  O137  1  0.92937714  0.32165913  0.53537112  1
  O  O138  1  0.27424902  0.68991184  0.96865729  1
  O  O139  1  0.77421065  0.68954748  0.96819321  1
  O  O140  1  0.07256131  0.46051580  0.96472095  1
  O  O141  1  0.57013950  0.45351469  0.96870763  1
  O  O142  1  0.15458415  0.86079560  0.97001220  1
  O  O143  1  0.65552004  0.86147996  0.96982253  1
  O  O144  1  0.27474626  0.85526786  0.47084655  1
  O  O145  1  0.78023263  0.86621704  0.47247202  1
  O  O146  1  0.15234557  0.45857013  0.46748232  1
  O  O147  1  0.66080982  0.46035635  0.46727564  1
  O  O148  1  0.07239370  0.68618278  0.46488195  1
  O  O149  1  0.57517259  0.69492524  0.47227821  1
  O  O150  1  0.05601101  0.65559391  0.36040473  1
  O  O151  1  0.55970722  0.65626551  0.35609368  1
  O  O152  1  0.26655006  0.87783373  0.36724873  1
  O  O153  1  0.76700442  0.88487936  0.36882611  1
  O  O154  1  0.17078343  0.46410259  0.36331824  1
  O  O155  1  0.67552192  0.45943943  0.36241141  1
  O  O156  1  0.05491069  0.45402263  0.86040356  1
  O  O157  1  0.55780703  0.45971225  0.86451939  1
  O  O158  1  0.16780921  0.87961809  0.86514437  1
  O  O159  1  0.66873453  0.87806117  0.86482176  1
  O  O160  1  0.27152735  0.65416211  0.86429616  1
  O  O161  1  0.76987401  0.65550195  0.86347142  1
  O  O162  1  0.01400712  0.83136627  0.41337922  1
  O  O163  1  0.51112549  0.84872194  0.41278127  1
  O  O164  1  0.40083408  0.97103938  0.41409076  1
  O  O165  1  0.90530655  0.98584702  0.41272511  1
  O  O166  1  0.08610551  0.19561106  0.41329404  1
  O  O167  1  0.58794916  0.19661524  0.41417489  1
  O  O168  1  0.01323679  0.19601738  0.91455301  1
  O  O169  1  0.51335843  0.19529503  0.91483796  1
  O  O170  1  0.08494092  0.98020622  0.91496368  1
  O  O171  1  0.58574882  0.97963473  0.91423709  1
  O  O172  1  0.40451321  0.83157736  0.91468133  1
  O  O173  1  0.90339462  0.83150706  0.91310859  1
  O  O174  1  0.48728511  0.18506298  0.58869885  1
  O  O175  1  0.98629451  0.18353583  0.58851859  1
  O  O176  1  0.08763614  -0.00189994  0.58548250  1
  O  O177  1  0.58578562  0.99209614  0.58556722  1
  O  O178  1  0.40674962  0.80010708  0.58809051  1
  O  O179  1  0.90169830  0.80203529  0.58743739  1
  O  O180  1  0.49067275  0.79632697  0.08797591  1
  O  O181  1  0.99134429  0.79711425  0.08762212  1
  O  O182  1  0.39965996  -0.00086784  0.08685505  1
  O  O183  1  0.90037025  0.00118618  0.08660069  1
  O  O184  1  0.09009354  0.16147088  0.08640777  1
  O  O185  1  0.59031313  0.16143149  0.08592403  1
  O  O186  1  0.33976374  0.17061102  0.74645061  1
  O  O187  1  0.84390845  0.17680086  0.74372970  1
  O  O188  1  0.23519531  0.32415973  0.74684762  1
  O  O189  1  0.73728582  0.31641233  0.74829587  1
  O  O190  1  0.41839722  0.53904823  0.74557623  1
  O  O191  1  0.91810561  0.53671769  0.74632034  1
  O  O192  1  0.34442537  0.50540428  0.24740106  1
  O  O193  1  0.84326855  0.50557803  0.24617762  1
  O  O194  1  0.42180402  0.31178262  0.24699858  1
  O  O195  1  0.92012423  0.30905845  0.24655927  1
  O  O196  1  0.23375564  0.15071702  0.24488401  1
  O  O197  1  0.73477298  0.15504623  0.24467872  1
  O  O198  1  0.33079357  0.52754971  0.92175800  1
  O  O199  1  0.82959100  0.52682788  0.92006306  1
  O  O200  1  0.43362005  0.34049430  0.92130912  1
  O  O201  1  0.93372350  0.34244063  0.92023024  1
  O  O202  1  0.23820536  0.13090268  0.91956813  1
  O  O203  1  0.73910818  0.13056629  0.91866265  1
  O  O204  1  0.32854425  0.12971310  0.42163464  1
  O  O205  1  0.82785921  0.13546280  0.42268053  1
  O  O206  1  0.23910592  0.35934230  0.42116124  1
  O  O207  1  0.73866007  0.33905433  0.41974120  1
  O  O208  1  0.41963731  0.51290545  0.41808637  1
  O  O209  1  0.93387627  0.52442679  0.42019611  1
  O  O210  1  0.17951766  0.51069777  0.07706333  1
  O  O211  1  0.67971915  0.51119917  0.07711535  1
  O  O212  1  0.07197471  0.65762381  0.07694031  1
  O  O213  1  0.57186331  0.65846846  0.07709355  1
  O  O214  1  0.24891431  0.87076429  0.07900301  1
  O  O215  1  0.74939608  0.87163861  0.07881900  1
  O  O216  1  0.17869029  0.84007211  0.57767848  1
  O  O217  1  0.67614085  0.83743696  0.57896380  1
  O  O218  1  0.25491715  0.64296672  0.58017169  1
  O  O219  1  0.75109750  0.63696777  0.58151488  1
  O  O220  1  0.06898513  0.48794685  0.57801633  1
  O  O221  1  0.56817619  0.49055756  0.57845817  1
  O  O222  1  0.14972037  0.84594623  0.25660179  1
  O  O223  1  0.65469084  0.84987424  0.25442675  1
  O  O224  1  0.25239696  0.65775777  0.25193430  1
  O  O225  1  0.75420296  0.66238952  0.25331324  1
  O  O226  1  0.06985485  0.47237304  0.25838060  1
  O  O227  1  0.57291568  0.46852605  0.25633837  1
  O  O228  1  0.15263441  0.45985512  0.75981620  1
  O  O229  1  0.66300332  0.46749533  0.75817846  1
  O  O230  1  0.06841726  0.66778527  0.75936870  1
  O  O231  1  0.57128882  0.67925062  0.75723600  1
  O  O232  1  0.25491717  0.83374302  0.75366246  1
  O  O233  1  0.75660758  0.83907274  0.75583041  1
