# generated using pymatgen
data_Na12TaZn5(PO4)9
_symmetry_space_group_name_H-M   'P 1'
_cell_length_a   9.10087385
_cell_length_b   9.10087354
_cell_length_c   21.88999467
_cell_angle_alpha   90.00000000
_cell_angle_beta   90.00000000
_cell_angle_gamma   120.00000111
_symmetry_Int_Tables_number   1
_chemical_formula_structural   Na12TaZn5(PO4)9
_chemical_formula_sum   'Na24 Ta2 Zn10 P18 O72'
_cell_volume   1570.15474757
_cell_formula_units_Z   2
loop_
 _symmetry_equiv_pos_site_id
 _symmetry_equiv_pos_as_xyz
  1  'x, y, z'
loop_
 _atom_site_type_symbol
 _atom_site_label
 _atom_site_symmetry_multiplicity
 _atom_site_fract_x
 _atom_site_fract_y
 _atom_site_fract_z
 _atom_site_occupancy
  Na  Na0  1  0.63217035  0.99939944  0.24980410  1
  Na  Na1  1  0.36722909  0.36782965  0.24980410  1
  Na  Na2  1  0.00060056  0.63277091  0.24980410  1
  Na  Na3  1  0.63217035  0.63277091  0.74980410  1
  Na  Na4  1  0.00060056  0.36782965  0.74980410  1
  Na  Na5  1  0.36722909  0.99939944  0.74980410  1
  Na  Na6  1  0.29082966  0.33393123  0.58863268  1
  Na  Na7  1  0.04310257  0.70917034  0.58863268  1
  Na  Na8  1  0.66606877  0.95689743  0.58863268  1
  Na  Na9  1  0.29082966  0.95689743  0.08863268  1
  Na  Na10  1  0.66606877  0.70917034  0.08863268  1
  Na  Na11  1  0.04310257  0.33393123  0.08863268  1
  Na  Na12  1  0.98353702  0.68540676  0.90574064  1
  Na  Na13  1  0.70186874  0.01646298  0.90574064  1
  Na  Na14  1  0.31459324  0.29813126  0.90574064  1
  Na  Na15  1  0.98353702  0.29813126  0.40574064  1
  Na  Na16  1  0.31459324  0.01646298  0.40574064  1
  Na  Na17  1  0.70186874  0.68540676  0.40574064  1
  Na  Na18  1  0.00000000  0.00000000  0.50008530  1
  Na  Na19  1  0.00000000  0.00000000  0.00008530  1
  Na  Na20  1  0.66666700  0.33333300  0.82162159  1
  Na  Na21  1  0.66666700  0.33333300  0.32162159  1
  Na  Na22  1  0.33333300  0.66666700  0.17010516  1
  Na  Na23  1  0.33333300  0.66666700  0.67010516  1
  Ta  Ta24  1  0.66666700  0.33333300  0.98200678  1
  Ta  Ta25  1  0.66666700  0.33333300  0.48200678  1
  Zn  Zn26  1  0.00000000  0.00000000  0.34103668  1
  Zn  Zn27  1  0.00000000  0.00000000  0.84103668  1
  Zn  Zn28  1  0.00000000  0.00000000  0.65687548  1
  Zn  Zn29  1  0.00000000  0.00000000  0.15687548  1
  Zn  Zn30  1  0.66666700  0.33333300  0.68197342  1
  Zn  Zn31  1  0.66666700  0.33333300  0.18197342  1
  Zn  Zn32  1  0.33333300  0.66666700  0.01334615  1
  Zn  Zn33  1  0.33333300  0.66666700  0.51334615  1
  Zn  Zn34  1  0.33333300  0.66666700  0.31878377  1
  Zn  Zn35  1  0.33333300  0.66666700  0.81878377  1
  P  P36  1  0.29899482  0.99842984  0.24973632  1
  P  P37  1  0.69943502  0.70100518  0.24973632  1
  P  P38  1  0.00157016  0.30056498  0.24973632  1
  P  P39  1  0.29899482  0.30056498  0.74973632  1
  P  P40  1  0.00157016  0.70100518  0.74973632  1
  P  P41  1  0.69943502  0.99842984  0.74973632  1
  P  P42  1  0.96354558  0.33600562  0.58550340  1
  P  P43  1  0.37246104  0.03645442  0.58550340  1
  P  P44  1  0.66399438  0.62753896  0.58550340  1
  P  P45  1  0.96354558  0.62753896  0.08550340  1
  P  P46  1  0.66399438  0.03645442  0.08550340  1
  P  P47  1  0.37246104  0.33600562  0.08550340  1
  P  P48  1  0.63044617  0.66513315  0.91834183  1
  P  P49  1  0.03468598  0.36955383  0.91834183  1
  P  P50  1  0.33486685  0.96531402  0.91834183  1
  P  P51  1  0.63044617  0.96531402  0.41834183  1
  P  P52  1  0.33486685  0.36955383  0.41834183  1
  P  P53  1  0.03468598  0.66513315  0.41834183  1
  O  O54  1  0.21476566  0.02169624  0.30778884  1
  O  O55  1  0.80693058  0.78523434  0.30778884  1
  O  O56  1  0.97830376  0.19306942  0.30778884  1
  O  O57  1  0.21476566  0.19306942  0.80778884  1
  O  O58  1  0.97830376  0.78523434  0.80778884  1
  O  O59  1  0.80693058  0.02169624  0.80778884  1
  O  O60  1  0.78314526  0.97425640  0.69160133  1
  O  O61  1  0.19111115  0.21685474  0.69160133  1
  O  O62  1  0.02574360  0.80888885  0.69160133  1
  O  O63  1  0.78314526  0.80888885  0.19160133  1
  O  O64  1  0.02574360  0.21685474  0.19160133  1
  O  O65  1  0.19111115  0.97425640  0.19160133  1
  O  O66  1  0.88156803  0.35880546  0.64236395  1
  O  O67  1  0.47723843  0.11843197  0.64236395  1
  O  O68  1  0.64119454  0.52276157  0.64236395  1
  O  O69  1  0.88156803  0.52276157  0.14236395  1
  O  O70  1  0.64119454  0.11843197  0.14236395  1
  O  O71  1  0.47723843  0.35880546  0.14236395  1
  O  O72  1  0.47938114  0.32427563  0.02837378  1
  O  O73  1  0.84489549  0.52061886  0.02837378  1
  O  O74  1  0.67572437  0.15510451  0.02837378  1
  O  O75  1  0.47938114  0.15510451  0.52837378  1
  O  O76  1  0.67572437  0.52061886  0.52837378  1
  O  O77  1  0.84489549  0.32427563  0.52837378  1
  O  O78  1  0.55057892  0.68957194  0.97623072  1
  O  O79  1  0.13899201  0.44942108  0.97623072  1
  O  O80  1  0.31042806  0.86100799  0.97623072  1
  O  O81  1  0.55057892  0.86100799  0.47623072  1
  O  O82  1  0.31042806  0.44942108  0.47623072  1
  O  O83  1  0.13899201  0.68957194  0.47623072  1
  O  O84  1  0.10692333  0.62496630  0.36152290  1
  O  O85  1  0.51804196  0.89307667  0.36152290  1
  O  O86  1  0.37503370  0.48195804  0.36152290  1
  O  O87  1  0.10692333  0.48195804  0.86152290  1
  O  O88  1  0.37503370  0.89307667  0.86152290  1
  O  O89  1  0.51804196  0.62496630  0.86152290  1
  O  O90  1  0.00458379  0.81684465  0.41281824  1
  O  O91  1  0.81226086  0.99541621  0.41281824  1
  O  O92  1  0.18315535  0.18773914  0.41281824  1
  O  O93  1  0.00458379  0.18773914  0.91281824  1
  O  O94  1  0.18315535  0.99541621  0.91281824  1
  O  O95  1  0.81226086  0.81684465  0.91281824  1
  O  O96  1  0.96866503  0.16933045  0.58191941  1
  O  O97  1  0.20066542  0.03133497  0.58191941  1
  O  O98  1  0.83066955  0.79933458  0.58191941  1
  O  O99  1  0.96866503  0.79933458  0.08191941  1
  O  O100  1  0.83066955  0.03133497  0.08191941  1
  O  O101  1  0.20066542  0.16933045  0.08191941  1
  O  O102  1  0.68130971  0.15910533  0.74696011  1
  O  O103  1  0.47779662  0.31869029  0.74696011  1
  O  O104  1  0.84089467  0.52220338  0.74696011  1
  O  O105  1  0.68130971  0.52220338  0.24696011  1
  O  O106  1  0.84089467  0.31869029  0.24696011  1
  O  O107  1  0.47779662  0.15910533  0.24696011  1
  O  O108  1  0.65093012  0.49918298  0.92512373  1
  O  O109  1  0.84825385  0.34906988  0.92512373  1
  O  O110  1  0.50081702  0.15174615  0.92512373  1
  O  O111  1  0.65093012  0.15174615  0.42512373  1
  O  O112  1  0.50081702  0.34906988  0.42512373  1
  O  O113  1  0.84825385  0.49918298  0.42512373  1
  O  O114  1  0.35324868  0.49383317  0.07841925  1
  O  O115  1  0.14058349  0.64675132  0.07841925  1
  O  O116  1  0.50616683  0.85941651  0.07841925  1
  O  O117  1  0.35324868  0.85941651  0.57841925  1
  O  O118  1  0.50616683  0.64675132  0.57841925  1
  O  O119  1  0.14058349  0.49383317  0.57841925  1
  O  O120  1  0.31663028  0.83725708  0.25384067  1
  O  O121  1  0.52062580  0.68336972  0.25384067  1
  O  O122  1  0.16274292  0.47937420  0.25384067  1
  O  O123  1  0.31663028  0.47937420  0.75384067  1
  O  O124  1  0.16274292  0.68336972  0.75384067  1
  O  O125  1  0.52062580  0.83725708  0.75384067  1
