# generated using pymatgen
data_B6P
_symmetry_space_group_name_H-M   'P 1'
_cell_length_a   5.24035510
_cell_length_b   5.24035533
_cell_length_c   5.24035492
_cell_angle_alpha   69.57181904
_cell_angle_beta   69.57182192
_cell_angle_gamma   69.57181233
_symmetry_Int_Tables_number   1
_chemical_formula_structural   B6P
_chemical_formula_sum   'B12 P2'
_cell_volume   122.07265749
_cell_formula_units_Z   2
loop_
 _symmetry_equiv_pos_site_id
 _symmetry_equiv_pos_as_xyz
  1  'x, y, z'
loop_
 _atom_site_type_symbol
 _atom_site_label
 _atom_site_symmetry_multiplicity
 _atom_site_fract_x
 _atom_site_fract_y
 _atom_site_fract_z
 _atom_site_occupancy
  B  B0  1  0.18404650  0.71732670  0.18404650  1
  B  B1  1  0.18404650  0.18404650  0.71732670  1
  B  B2  1  0.71732670  0.18404650  0.18404650  1
  B  B3  1  0.28267330  0.81595350  0.81595350  1
  B  B4  1  0.81595350  0.28267330  0.81595350  1
  B  B5  1  0.81595350  0.81595350  0.28267330  1
  B  B6  1  0.01281765  0.32655965  0.01281765  1
  B  B7  1  0.01281765  0.01281765  0.32655965  1
  B  B8  1  0.32655965  0.01281765  0.01281765  1
  B  B9  1  0.67344035  0.98718235  0.98718235  1
  B  B10  1  0.98718235  0.67344035  0.98718235  1
  B  B11  1  0.98718235  0.98718235  0.67344035  1
  P  P12  1  0.40525432  0.40525432  0.40525432  1
  P  P13  1  0.59474568  0.59474568  0.59474568  1
