# generated using pymatgen
data_AuSCl5
_symmetry_space_group_name_H-M   'P 1'
_cell_length_a   8.28514940
_cell_length_b   8.11513393
_cell_length_c   13.14404905
_cell_angle_alpha   64.56390719
_cell_angle_beta   90.00000000
_cell_angle_gamma   90.00000000
_symmetry_Int_Tables_number   1
_chemical_formula_structural   AuSCl5
_chemical_formula_sum   'Au4 S4 Cl20'
_cell_volume   798.07585993
_cell_formula_units_Z   4
loop_
 _symmetry_equiv_pos_site_id
 _symmetry_equiv_pos_as_xyz
  1  'x, y, z'
loop_
 _atom_site_type_symbol
 _atom_site_label
 _atom_site_symmetry_multiplicity
 _atom_site_fract_x
 _atom_site_fract_y
 _atom_site_fract_z
 _atom_site_occupancy
  Au  Au0  1  0.66920273  0.91088048  0.65456207  1
  Au  Au1  1  0.16920273  0.08911952  0.84543793  1
  Au  Au2  1  0.33079727  0.08911952  0.34543793  1
  Au  Au3  1  0.83079727  0.91088048  0.15456207  1
  S  S4  1  0.77664571  0.76508422  0.03749973  1
  S  S5  1  0.72335429  0.76508422  0.53749973  1
  S  S6  1  0.22335429  0.23491578  0.96250027  1
  S  S7  1  0.27664571  0.23491578  0.46250027  1
  Cl  Cl8  1  0.66525881  0.50187328  0.61700916  1
  Cl  Cl9  1  0.83474119  0.50187328  0.11700916  1
  Cl  Cl10  1  0.33474119  0.49812672  0.38299084  1
  Cl  Cl11  1  0.16525881  0.49812672  0.88299084  1
  Cl  Cl12  1  0.84057734  0.17081061  0.98479383  1
  Cl  Cl13  1  0.34057734  0.82918939  0.51520617  1
  Cl  Cl14  1  0.15942266  0.82918939  0.01520617  1
  Cl  Cl15  1  0.65942266  0.17081061  0.48479383  1
  Cl  Cl16  1  0.88580859  0.07814885  0.25448336  1
  Cl  Cl17  1  0.38580859  0.92185115  0.24551664  1
  Cl  Cl18  1  0.11419141  0.92185115  0.74551664  1
  Cl  Cl19  1  0.61419141  0.07814885  0.75448336  1
  Cl  Cl20  1  0.80853869  0.65059205  0.31756407  1
  Cl  Cl21  1  0.30853869  0.34940795  0.18243593  1
  Cl  Cl22  1  0.19146131  0.34940795  0.68243593  1
  Cl  Cl23  1  0.69146131  0.65059205  0.81756407  1
  Cl  Cl24  1  0.53522037  0.75957218  0.04456655  1
  Cl  Cl25  1  0.03522037  0.24042782  0.45543345  1
  Cl  Cl26  1  0.46477963  0.24042782  0.95543345  1
  Cl  Cl27  1  0.96477963  0.75957218  0.54456655  1
