# generated using pymatgen
data_Na3Ca3GePS5O24
_symmetry_space_group_name_H-M   'P 1'
_cell_length_a   9.10986963
_cell_length_b   9.07142979
_cell_length_c   23.19104272
_cell_angle_alpha   90.19118536
_cell_angle_beta   89.65184690
_cell_angle_gamma   120.65793959
_symmetry_Int_Tables_number   1
_chemical_formula_structural   Na3Ca3GePS5O24
_chemical_formula_sum   'Na9 Ca9 Ge3 P3 S15 O72'
_cell_volume   1648.59177505
_cell_formula_units_Z   3
loop_
 _symmetry_equiv_pos_site_id
 _symmetry_equiv_pos_as_xyz
  1  'x, y, z'
loop_
 _atom_site_type_symbol
 _atom_site_label
 _atom_site_symmetry_multiplicity
 _atom_site_fract_x
 _atom_site_fract_y
 _atom_site_fract_z
 _atom_site_occupancy
  Na  Na0  1  0.35586767  0.35286509  0.25517588  1
  Na  Na1  1  0.03309424  0.70090104  0.58294952  1
  Na  Na2  1  0.29752439  0.96277886  0.07299381  1
  Na  Na3  1  0.98637751  0.00312374  0.50120149  1
  Na  Na4  1  0.99521371  0.01217219  0.98986105  1
  Na  Na5  1  0.66248853  0.32904419  0.83275024  1
  Na  Na6  1  0.68463120  0.33208038  0.33761620  1
  Na  Na7  1  0.33096472  0.66540796  0.17180334  1
  Na  Na8  1  0.37527219  0.66137727  0.67278500  1
  Ca  Ca9  1  0.99277839  0.99205393  0.35433484  1
  Ca  Ca10  1  0.00307687  0.00156208  0.85262824  1
  Ca  Ca11  1  0.98955300  0.00502585  0.65233474  1
  Ca  Ca12  1  0.98509475  0.99429258  0.14532388  1
  Ca  Ca13  1  0.65838799  0.33096920  0.69040776  1
  Ca  Ca14  1  0.68256980  0.34052027  0.18590147  1
  Ca  Ca15  1  0.33545899  0.65765223  0.01496164  1
  Ca  Ca16  1  0.34438709  0.66335950  0.51656913  1
  Ca  Ca17  1  0.33578452  0.67998961  0.32518670  1
  Ge  Ge18  1  0.67455108  0.32808582  0.97160512  1
  Ge  Ge19  1  0.66412654  0.33823015  0.48622673  1
  Ge  Ge20  1  0.31222798  0.67269514  0.82292233  1
  P  P21  1  0.67521355  0.62360907  0.58119788  1
  P  P22  1  0.02851639  0.37900853  0.91690396  1
  P  P23  1  0.34627457  0.96905045  0.92085742  1
  S  S24  1  0.29718007  0.99555079  0.24643956  1
  S  S25  1  0.68700119  0.69343180  0.25123566  1
  S  S26  1  0.00804130  0.30536723  0.25204821  1
  S  S27  1  0.30197707  0.32801446  0.75715456  1
  S  S28  1  0.01900508  0.69709343  0.75348617  1
  S  S29  1  0.67238413  0.97765797  0.75854019  1
  S  S30  1  0.94218306  0.32532539  0.57838309  1
  S  S31  1  0.37413527  0.04953054  0.57852411  1
  S  S32  1  0.95409564  0.62599811  0.07442635  1
  S  S33  1  0.67404000  0.05535571  0.07450668  1
  S  S34  1  0.38385724  0.32752952  0.07965053  1
  S  S35  1  0.62505889  0.64478499  0.91824252  1
  S  S36  1  0.64292643  0.99942406  0.42323625  1
  S  S37  1  0.35203956  0.35577130  0.41892728  1
  S  S38  1  0.00885887  0.64981786  0.42545152  1
  O  O39  1  0.19855967  0.00472962  0.29581203  1
  O  O40  1  0.78209116  0.78396162  0.30313704  1
  O  O41  1  0.00003177  0.20678764  0.30355350  1
  O  O42  1  0.21538385  0.21872943  0.80623324  1
  O  O43  1  0.99819217  0.78852265  0.80124199  1
  O  O44  1  0.78270653  0.00001933  0.80661761  1
  O  O45  1  0.73817369  0.95116798  0.70275556  1
  O  O46  1  0.20907576  0.25505241  0.70203504  1
  O  O47  1  0.04354361  0.78543394  0.69717148  1
  O  O48  1  0.77317555  0.78436539  0.19775309  1
  O  O49  1  0.01762102  0.21992984  0.19852918  1
  O  O50  1  0.21059176  0.98459118  0.19090029  1
  O  O51  1  0.85901918  0.33575757  0.63043897  1
  O  O52  1  0.47269381  0.12823685  0.62976251  1
  O  O53  1  0.66806052  0.52646720  0.63476777  1
  O  O54  1  0.86836204  0.53657962  0.12738038  1
  O  O55  1  0.66481876  0.14311790  0.12610537  1
  O  O56  1  0.46722465  0.33405814  0.13473864  1
  O  O57  1  0.47871559  0.30880275  0.02831460  1
  O  O58  1  0.85445695  0.53271460  0.02101333  1
  O  O59  1  0.68900704  0.15653058  0.01985562  1
  O  O60  1  0.46489793  0.15253587  0.52391679  1
  O  O61  1  0.69635449  0.52644955  0.52481955  1
  O  O62  1  0.83455230  0.30250734  0.52454083  1
  O  O63  1  0.55444794  0.66283344  0.97187543  1
  O  O64  1  0.12308620  0.45531742  0.97132933  1
  O  O65  1  0.33268364  0.88192397  0.97755632  1
  O  O66  1  0.55595612  0.89237992  0.47297367  1
  O  O67  1  0.33147918  0.44700945  0.46715905  1
  O  O68  1  0.10707563  0.66917425  0.47774007  1
  O  O69  1  0.09109541  0.63054724  0.37309386  1
  O  O70  1  0.54830762  0.92630052  0.36883708  1
  O  O71  1  0.37484924  0.44714663  0.36325593  1
  O  O72  1  0.12169032  0.50374235  0.86198507  1
  O  O73  1  0.37509890  0.87048195  0.86725751  1
  O  O74  1  0.51402693  0.61717234  0.86684760  1
  O  O75  1  0.97874508  0.79458754  0.42059837  1
  O  O76  1  0.81893495  0.03162453  0.41932176  1
  O  O77  1  0.20572005  0.17853928  0.41691477  1
  O  O78  1  0.99546252  0.19956334  0.90714894  1
  O  O79  1  0.19668113  0.99457638  0.91093055  1
  O  O80  1  0.79866062  0.79098970  0.91105625  1
  O  O81  1  0.96728516  0.17660537  0.57832295  1
  O  O82  1  0.20416331  0.03617435  0.57976126  1
  O  O83  1  0.84466986  0.80008711  0.57877674  1
  O  O84  1  0.97635768  0.80135051  0.07306669  1
  O  O85  1  0.82391271  0.03379088  0.07411545  1
  O  O86  1  0.21142647  0.16729029  0.07800759  1
  O  O87  1  0.64294327  0.12356892  0.75460664  1
  O  O88  1  0.47868420  0.36087149  0.75353886  1
  O  O89  1  0.87735707  0.51761231  0.75197041  1
  O  O90  1  0.66277288  0.51717250  0.25205507  1
  O  O91  1  0.85867973  0.32856771  0.25228786  1
  O  O92  1  0.46678616  0.15821839  0.24828271  1
  O  O93  1  0.63548320  0.47862141  0.92054062  1
  O  O94  1  0.84690153  0.37017230  0.91854688  1
  O  O95  1  0.51952186  0.15439279  0.92090233  1
  O  O96  1  0.65021140  0.17135865  0.42864007  1
  O  O97  1  0.51584649  0.34951496  0.42589701  1
  O  O98  1  0.83610396  0.48290162  0.42788780  1
  O  O99  1  0.36665556  0.47975667  0.07684889  1
  O  O100  1  0.12831087  0.64952422  0.07524657  1
  O  O101  1  0.51362652  0.88620954  0.07411167  1
  O  O102  1  0.34429506  0.87312479  0.57280092  1
  O  O103  1  0.51749061  0.64055638  0.57674885  1
  O  O104  1  0.10871818  0.48763878  0.57307105  1
  O  O105  1  0.32029486  0.84554719  0.25083054  1
  O  O106  1  0.51196740  0.67037993  0.25235391  1
  O  O107  1  0.17002999  0.47622137  0.25365040  1
  O  O108  1  0.30842161  0.49976126  0.76412842  1
  O  O109  1  0.18731160  0.69677631  0.76152327  1
  O  O110  1  0.49887403  0.81073043  0.76611754  1
