# generated using pymatgen
data_Na2YTa3Si2(PO6)4
_symmetry_space_group_name_H-M   'P 1'
_cell_length_a   8.88925202
_cell_length_b   8.89747333
_cell_length_c   23.13006431
_cell_angle_alpha   90.08303090
_cell_angle_beta   90.02901706
_cell_angle_gamma   119.95952455
_symmetry_Int_Tables_number   1
_chemical_formula_structural   Na2YTa3Si2(PO6)4
_chemical_formula_sum   'Na6 Y3 Ta9 Si6 P12 O72'
_cell_volume   1584.94967873
_cell_formula_units_Z   3
loop_
 _symmetry_equiv_pos_site_id
 _symmetry_equiv_pos_as_xyz
  1  'x, y, z'
loop_
 _atom_site_type_symbol
 _atom_site_label
 _atom_site_symmetry_multiplicity
 _atom_site_fract_x
 _atom_site_fract_y
 _atom_site_fract_z
 _atom_site_occupancy
  Na  Na0  1  0.99571708  0.99944998  0.49608437  1
  Na  Na1  1  0.00001943  0.99972839  0.00125848  1
  Na  Na2  1  0.66782414  0.33364238  0.83323267  1
  Na  Na3  1  0.66632187  0.33352156  0.32821811  1
  Na  Na4  1  0.33370987  0.66266818  0.16477868  1
  Na  Na5  1  0.32863392  0.66325367  0.66738919  1
  Y  Y6  1  0.99796788  0.00024543  0.35724101  1
  Y  Y7  1  0.67065098  0.33507138  0.68732366  1
  Y  Y8  1  0.66461631  0.33462224  0.18219280  1
  Ta  Ta9  1  0.00031704  0.00008753  0.85803743  1
  Ta  Ta10  1  0.99938178  0.00208245  0.64540236  1
  Ta  Ta11  1  0.00282711  0.00309329  0.14646008  1
  Ta  Ta12  1  0.66185124  0.33188562  0.97851604  1
  Ta  Ta13  1  0.66972019  0.32963866  0.47899330  1
  Ta  Ta14  1  0.33313679  0.66450208  0.01758066  1
  Ta  Ta15  1  0.33561811  0.66740934  0.52004818  1
  Ta  Ta16  1  0.33701493  0.67082682  0.31133302  1
  Ta  Ta17  1  0.33247400  0.66607903  0.81433276  1
  Si  Si18  1  0.96090359  0.33438930  0.58313434  1
  Si  Si19  1  0.37104102  0.33452662  0.08231817  1
  Si  Si20  1  0.61906311  0.66439320  0.91613906  1
  Si  Si21  1  0.04386393  0.38109967  0.91610296  1
  Si  Si22  1  0.33607922  0.95403189  0.91648882  1
  Si  Si23  1  0.61792894  0.95602803  0.41791340  1
  P  P24  1  0.28815043  0.99452352  0.25086315  1
  P  P25  1  0.70744674  0.71127147  0.25049136  1
  P  P26  1  0.00533031  0.29434352  0.25079276  1
  P  P27  1  0.27912908  0.28640624  0.75201969  1
  P  P28  1  0.00739320  0.72116734  0.75180367  1
  P  P29  1  0.71259210  0.99170364  0.75197864  1
  P  P30  1  0.37319309  0.04092557  0.58198074  1
  P  P31  1  0.66765816  0.62588380  0.58214565  1
  P  P32  1  0.96170387  0.62859455  0.08156447  1
  P  P33  1  0.66644732  0.03792737  0.08143937  1
  P  P34  1  0.34261140  0.38819171  0.41800395  1
  P  P35  1  0.04692510  0.65921842  0.41803878  1
  O  O36  1  0.20874572  0.01738867  0.30482140  1
  O  O37  1  0.80910264  0.79274990  0.30463595  1
  O  O38  1  0.98311988  0.19054348  0.30436156  1
  O  O39  1  0.18205126  0.17439975  0.80487517  1
  O  O40  1  0.99285478  0.81862051  0.80498765  1
  O  O41  1  0.82566144  0.00843292  0.80488726  1
  O  O42  1  0.80511584  0.97247097  0.69619952  1
  O  O43  1  0.16754416  0.19378148  0.69613028  1
  O  O44  1  0.02713143  0.83099206  0.69618200  1
  O  O45  1  0.79813994  0.82800291  0.19564198  1
  O  O46  1  0.02792515  0.19786916  0.19558774  1
  O  O47  1  0.16945757  0.97061153  0.19579223  1
  O  O48  1  0.89201388  0.37594892  0.64046161  1
  O  O49  1  0.47887183  0.10759149  0.63663172  1
  O  O50  1  0.62599498  0.52037263  0.63688264  1
  O  O51  1  0.89884528  0.52474788  0.13615427  1
  O  O52  1  0.63016519  0.10396376  0.13622357  1
  O  O53  1  0.47836856  0.37639300  0.13999854  1
  O  O54  1  0.47024933  0.30399463  0.02631978  1
  O  O55  1  0.84127112  0.53600867  0.02852200  1
  O  O56  1  0.69792410  0.15902648  0.02837613  1
  O  O57  1  0.46284013  0.16147368  0.52882198  1
  O  O58  1  0.69523785  0.53595884  0.52885316  1
  O  O59  1  0.83121882  0.30373643  0.52673455  1
  O  O60  1  0.53033588  0.69823535  0.97190760  1
  O  O61  1  0.16782443  0.47062453  0.97160531  1
  O  O62  1  0.30187969  0.83353832  0.97232176  1
  O  O63  1  0.51184897  0.83796430  0.47305323  1
  O  O64  1  0.32345004  0.48225006  0.47147961  1
  O  O65  1  0.15703264  0.67228914  0.47147223  1
  O  O66  1  0.13146433  0.63195362  0.36272937  1
  O  O67  1  0.49486705  0.85846963  0.36011220  1
  O  O68  1  0.36294365  0.49882148  0.36289880  1
  O  O69  1  0.13813845  0.50232877  0.85887225  1
  O  O70  1  0.36406064  0.86124849  0.85891379  1
  O  O71  1  0.49750926  0.63507701  0.85884359  1
  O  O72  1  0.03015905  0.81898128  0.41742841  1
  O  O73  1  0.80615186  0.97912935  0.42010145  1
  O  O74  1  0.18559275  0.20957980  0.41711704  1
  O  O75  1  0.02439934  0.18974235  0.90602666  1
  O  O76  1  0.16661203  0.97771309  0.90611316  1
  O  O77  1  0.81103569  0.83492777  0.90622691  1
  O  O78  1  0.97864250  0.15776773  0.59198892  1
  O  O79  1  0.18838469  0.01985571  0.59031288  1
  O  O80  1  0.83348364  0.80918793  0.59086608  1
  O  O81  1  0.97564819  0.81081254  0.09000038  1
  O  O82  1  0.83146572  0.01779241  0.08972641  1
  O  O83  1  0.17649842  0.15694189  0.09125984  1
  O  O84  1  0.69333976  0.15137620  0.74953161  1
  O  O85  1  0.45735399  0.30435185  0.74934427  1
  O  O86  1  0.84578901  0.54312448  0.75038344  1
  O  O87  1  0.67724872  0.52896501  0.24524597  1
  O  O88  1  0.85359686  0.32435436  0.24383533  1
  O  O89  1  0.47154209  0.14310802  0.24392736  1
  O  O90  1  0.64254400  0.49588101  0.92613764  1
  O  O91  1  0.85364262  0.35902251  0.92644255  1
  O  O92  1  0.50733288  0.14510636  0.92558560  1
  O  O93  1  0.62503574  0.14570748  0.42590767  1
  O  O94  1  0.51210829  0.37938158  0.42631560  1
  O  O95  1  0.86363510  0.49304088  0.42614146  1
  O  O96  1  0.34060837  0.49873734  0.07009863  1
  O  O97  1  0.14711366  0.65982967  0.06983678  1
  O  O98  1  0.50847613  0.85512384  0.06987679  1
  O  O99  1  0.34379178  0.85621622  0.57016858  1
  O  O100  1  0.51334611  0.65796820  0.57066027  1
  O  O101  1  0.15523400  0.49542791  0.56999649  1
  O  O102  1  0.29436087  0.81903457  0.25626481  1
  O  O103  1  0.52266238  0.69940124  0.25690269  1
  O  O104  1  0.17832691  0.47496879  0.25641717  1
  O  O105  1  0.29003425  0.46635460  0.75648672  1
  O  O106  1  0.17562668  0.70797128  0.75692122  1
  O  O107  1  0.53270670  0.82280043  0.75646904  1
