# generated using pymatgen
data_Na6Zn4Si3Sn4(S3O16)3
_symmetry_space_group_name_H-M   'P 1'
_cell_length_a   17.81394929
_cell_length_b   8.87332560
_cell_length_c   22.74953606
_cell_angle_alpha   90.44175953
_cell_angle_beta   89.83415933
_cell_angle_gamma   120.06438390
_symmetry_Int_Tables_number   1
_chemical_formula_structural   Na6Zn4Si3Sn4(S3O16)3
_chemical_formula_sum   'Na18 Zn12 Si9 Sn12 S27 O144'
_cell_volume   3112.10685501
_cell_formula_units_Z   3
loop_
 _symmetry_equiv_pos_site_id
 _symmetry_equiv_pos_as_xyz
  1  'x, y, z'
loop_
 _atom_site_type_symbol
 _atom_site_label
 _atom_site_symmetry_multiplicity
 _atom_site_fract_x
 _atom_site_fract_y
 _atom_site_fract_z
 _atom_site_occupancy
  Na  Na0  1  0.00082053  0.63466386  0.25212861  1
  Na  Na1  1  0.49860193  0.61952784  0.24270444  1
  Na  Na2  1  0.00378680  0.37242945  0.74131089  1
  Na  Na3  1  0.50163454  0.37232002  0.75136708  1
  Na  Na4  1  0.67080809  0.31487499  0.90920076  1
  Na  Na5  1  0.16944225  0.02928262  0.41444219  1
  Na  Na6  1  0.99166943  0.01122181  0.50042299  1
  Na  Na7  1  0.50595383  0.01358355  0.50084888  1
  Na  Na8  1  0.00696602  0.99962297  0.99552960  1
  Na  Na9  1  0.49083991  0.96839406  0.99557137  1
  Na  Na10  1  0.30748662  0.30574234  0.83056497  1
  Na  Na11  1  0.83601121  0.35479140  0.83468448  1
  Na  Na12  1  0.33015431  0.31130074  0.33850060  1
  Na  Na13  1  0.82017733  0.32628953  0.33716774  1
  Na  Na14  1  0.17626557  0.65518412  0.16547251  1
  Na  Na15  1  0.66771871  0.66340317  0.16455947  1
  Na  Na16  1  0.16513226  0.65202601  0.67288265  1
  Na  Na17  1  0.67844653  0.70247580  0.66844524  1
  Zn  Zn18  1  0.99685246  0.00364121  0.34862331  1
  Zn  Zn19  1  0.49611318  0.98942283  0.84806412  1
  Zn  Zn20  1  0.31674031  0.32838866  0.68719984  1
  Zn  Zn21  1  0.83447554  0.30927612  0.67108639  1
  Zn  Zn22  1  0.33177313  0.35810816  0.16607289  1
  Zn  Zn23  1  0.83032418  0.32975856  0.17939264  1
  Zn  Zn24  1  0.83981203  0.35293048  0.98079945  1
  Zn  Zn25  1  0.33893736  0.32673393  0.48477905  1
  Zn  Zn26  1  0.17458448  0.67543484  0.32316682  1
  Zn  Zn27  1  0.67498143  0.65729142  0.32414079  1
  Zn  Zn28  1  0.17265117  0.67583096  0.81509766  1
  Zn  Zn29  1  0.67965821  0.68022147  0.81979083  1
  Si  Si30  1  0.14915276  0.30440395  0.75445170  1
  Si  Si31  1  0.98256056  0.33771012  0.58306930  1
  Si  Si32  1  0.68207349  0.02881868  0.58454792  1
  Si  Si33  1  0.48399732  0.62415330  0.08417116  1
  Si  Si34  1  0.18213309  0.33852927  0.08428894  1
  Si  Si35  1  0.81373831  0.66550965  0.91631023  1
  Si  Si36  1  0.17270489  0.95736330  0.91645265  1
  Si  Si37  1  0.31137882  0.96306880  0.41725780  1
  Si  Si38  1  0.67374004  0.37817155  0.41677208  1
  Sn  Sn39  1  0.50109266  0.01635178  0.35936900  1
  Sn  Sn40  1  0.00774742  0.99228646  0.85710005  1
  Sn  Sn41  1  0.00273731  0.02204704  0.64858001  1
  Sn  Sn42  1  0.50416335  0.99418339  0.64837753  1
  Sn  Sn43  1  0.00378988  0.01231345  0.14787267  1
  Sn  Sn44  1  0.49930543  0.99018509  0.14560494  1
  Sn  Sn45  1  0.32624727  0.33210175  0.98325873  1
  Sn  Sn46  1  0.82630580  0.32107251  0.48693910  1
  Sn  Sn47  1  0.16612600  0.66316473  0.01528818  1
  Sn  Sn48  1  0.66885878  0.67559550  0.01547915  1
  Sn  Sn49  1  0.16803847  0.66222197  0.51779001  1
  Sn  Sn50  1  0.66449315  0.66242573  0.51825680  1
  S  S51  1  0.14828871  -0.00073723  0.25176715  1
  S  S52  1  0.64715819  0.00060834  0.25174394  1
  S  S53  1  0.35477774  0.71096620  0.25256233  1
  S  S54  1  0.85388432  0.71029309  0.24715387  1
  S  S55  1  0.99904441  0.29997279  0.25166692  1
  S  S56  1  0.49902790  0.28990548  0.24794942  1
  S  S57  1  0.64832588  0.29780848  0.75226695  1
  S  S58  1  0.99399723  0.70373410  0.74626882  1
  S  S59  1  0.50317480  0.70292140  0.75158108  1
  S  S60  1  0.35736151  0.00115549  0.74685999  1
  S  S61  1  0.85237083  0.99755761  0.75199772  1
  S  S62  1  0.47956249  0.33158891  0.58782045  1
  S  S63  1  0.18404414  0.03509596  0.58222686  1
  S  S64  1  0.33442733  0.62539975  0.58287204  1
  S  S65  1  0.83549548  0.63264153  0.58589049  1
  S  S66  1  0.98085353  0.62917375  0.08780468  1
  S  S67  1  0.33472942  0.03968361  0.08544572  1
  S  S68  1  0.83298116  0.04144394  0.08482510  1
  S  S69  1  0.68524915  0.33336262  0.08437590  1
  S  S70  1  0.31944054  0.67176436  0.91546770  1
  S  S71  1  0.01526229  0.36593029  0.91506621  1
  S  S72  1  0.51676984  0.36794417  0.91454460  1
  S  S73  1  0.66347173  0.96386682  0.91535031  1
  S  S74  1  0.81679322  0.96463377  0.41444933  1
  S  S75  1  0.16383895  0.36477395  0.41419528  1
  S  S76  1  0.01635218  0.66512662  0.41378527  1
  S  S77  1  0.51853747  0.66520348  0.41203732  1
  O  O78  1  0.10631656  0.01747354  0.30598944  1
  O  O79  1  0.60400606  0.02554433  0.30421238  1
  O  O80  1  0.41479423  0.80682883  0.30288517  1
  O  O81  1  0.90953956  0.79255704  0.29900172  1
  O  O82  1  0.49178380  0.18585201  0.30116494  1
  O  O83  1  0.98759462  0.19161124  0.30303099  1
  O  O84  1  0.09939569  0.17605364  0.81017287  1
  O  O85  1  0.60649847  0.19617086  0.80630995  1
  O  O86  1  0.49153781  0.78791631  0.80350403  1
  O  O87  1  0.98198977  0.78453199  0.80071240  1
  O  O88  1  0.41278048  0.02856847  0.79872613  1
  O  O89  1  0.90696415  0.01123251  0.80284200  1
  O  O90  1  0.39964886  0.97335549  0.69218274  1
  O  O91  1  0.88921932  0.96858654  0.69563437  1
  O  O92  1  0.08679244  0.22520627  0.69397215  1
  O  O93  1  0.58791204  0.20628018  0.69976267  1
  O  O94  1  0.00140611  0.81106920  0.69319952  1
  O  O95  1  0.51502720  0.80700094  0.69624330  1
  O  O96  1  0.39389090  0.81489699  0.19681864  1
  O  O97  1  0.89717909  0.81720431  0.19253263  1
  O  O98  1  0.00999852  0.21916043  0.19591877  1
  O  O99  1  0.51078516  0.20338581  0.19388505  1
  O  O100  1  0.08721461  0.96829226  0.19943510  1
  O  O101  1  0.59082543  0.96935482  0.19765213  1
  O  O102  1  0.43973770  0.35158535  0.64177117  1
  O  O103  1  0.94916369  0.36797124  0.64532973  1
  O  O104  1  0.23673180  0.12141747  0.63398248  1
  O  O105  1  0.73475485  0.10422040  0.64416043  1
  O  O106  1  0.32909586  0.53075510  0.63642355  1
  O  O107  1  0.82268590  0.52727400  0.63739283  1
  O  O108  1  0.45096511  0.53085247  0.14740231  1
  O  O109  1  0.94372814  0.53492196  0.14382541  1
  O  O110  1  0.32506188  0.11937286  0.13925548  1
  O  O111  1  0.82454028  0.12036588  0.14011086  1
  O  O112  1  0.23363028  0.37413552  0.14535122  1
  O  O113  1  0.73467296  0.35056720  0.13816096  1
  O  O114  1  0.22255610  0.30036851  0.02575002  1
  O  O115  1  0.72162094  0.30436241  0.03047467  1
  O  O116  1  0.42064960  0.52467288  0.02872845  1
  O  O117  1  0.92861791  0.54082583  0.03655254  1
  O  O118  1  0.34658439  0.14167347  0.03192301  1
  O  O119  1  0.84257808  0.14252456  0.03222619  1
  O  O120  1  0.21903504  0.13245881  0.52698786  1
  O  O121  1  0.71947650  0.14174797  0.52446146  1
  O  O122  1  0.34354901  0.54479936  0.52851414  1
  O  O123  1  0.84794837  0.55698670  0.53036504  1
  O  O124  1  0.43112387  0.31527693  0.53406951  1
  O  O125  1  0.92282638  0.31430444  0.52512497  1
  O  O126  1  0.27930271  0.68855846  0.97198510  1
  O  O127  1  0.77326395  0.70482333  0.97780076  1
  O  O128  1  0.06965234  0.44719171  0.96990850  1
  O  O129  1  0.57615115  0.45422282  0.96694500  1
  O  O130  1  0.15813230  0.84933288  0.97898992  1
  O  O131  1  0.64570671  0.85530749  0.97033149  1
  O  O132  1  0.26763955  0.84010146  0.47581829  1
  O  O133  1  0.77415786  0.86248818  0.46856847  1
  O  O134  1  0.14760582  0.44155666  0.46841340  1
  O  O135  1  0.65517354  0.46445513  0.47557181  1
  O  O136  1  0.07620313  0.69682397  0.46467484  1
  O  O137  1  0.57424918  0.69352317  0.46469107  1
  O  O138  1  0.05150668  0.63693308  0.35827206  1
  O  O139  1  0.55858612  0.64690711  0.35719473  1
  O  O140  1  0.24838759  0.88866521  0.36049589  1
  O  O141  1  0.76459873  0.88827119  0.36087376  1
  O  O142  1  0.16990964  0.46271996  0.36099591  1
  O  O143  1  0.68649002  0.47649487  0.35572220  1
  O  O144  1  0.05552115  0.46632060  0.86223712  1
  O  O145  1  0.55307565  0.46771656  0.86038926  1
  O  O146  1  0.18209368  0.86515071  0.85913518  1
  O  O147  1  0.66920727  0.87412116  0.86295726  1
  O  O148  1  0.26747519  0.64812659  0.86396277  1
  O  O149  1  0.74442950  0.60614032  0.86317322  1
  O  O150  1  0.01035598  0.82675876  0.41068784  1
  O  O151  1  0.51130006  0.82701867  0.40994747  1
  O  O152  1  0.40573864  0.96922471  0.41366498  1
  O  O153  1  0.90307116  0.97788993  0.41094953  1
  O  O154  1  0.08765391  0.18230175  0.41141084  1
  O  O155  1  0.58803175  0.17869304  0.41606169  1
  O  O156  1  0.00605238  0.18917190  0.91353381  1
  O  O157  1  0.50983229  0.19377414  0.91135529  1
  O  O158  1  0.08719005  0.98279110  0.91705194  1
  O  O159  1  0.58844357  0.99569046  0.91212069  1
  O  O160  1  0.40665696  0.83065602  0.91293171  1
  O  O161  1  0.90752583  0.84512396  0.90965533  1
  O  O162  1  0.48809920  0.17028584  0.59043296  1
  O  O163  1  0.98804726  0.15600090  0.58322764  1
  O  O164  1  0.09309114  0.00579336  0.58805551  1
  O  O165  1  0.58301051  0.00331287  0.58665421  1
  O  O166  1  0.41175591  0.80803126  0.58645766  1
  O  O167  1  0.91489573  0.81048859  0.58981490  1
  O  O168  1  0.49279860  0.82177953  0.08558905  1
  O  O169  1  0.98715666  0.80603431  0.09054404  1
  O  O170  1  0.41548367  0.02163619  0.08784350  1
  O  O171  1  0.91029953  0.01520986  0.08912932  1
  O  O172  1  0.08290006  0.16387237  0.08703269  1
  O  O173  1  0.59388770  0.17764226  0.08966887  1
  O  O174  1  0.35508401  0.16483793  0.73979021  1
  O  O175  1  0.85062612  0.16236065  0.74916043  1
  O  O176  1  0.24222012  0.31626178  0.74911565  1
  O  O177  1  0.73373143  0.31695967  0.74445921  1
  O  O178  1  0.42676004  0.52667996  0.74507499  1
  O  O179  1  0.91664463  0.52802037  0.74310255  1
  O  O180  1  0.35153376  0.54178151  0.24931433  1
  O  O181  1  0.84730584  0.53650722  0.24044978  1
  O  O182  1  0.41943122  0.29993751  0.24538047  1
  O  O183  1  0.92102675  0.32028525  0.24606659  1
  O  O184  1  0.23365521  0.15237903  0.24384061  1
  O  O185  1  0.73258000  0.15743832  0.24502626  1
  O  O186  1  0.33157849  0.51533968  0.91960185  1
  O  O187  1  0.82310411  0.49312562  0.92412847  1
  O  O188  1  0.43085395  0.34989475  0.92503587  1
  O  O189  1  0.92840656  0.34549792  0.92265886  1
  O  O190  1  0.26227545  0.15191142  0.92233203  1
  O  O191  1  0.74347454  0.13454063  0.92213688  1
  O  O192  1  0.32254880  0.15585806  0.42509549  1
  O  O193  1  0.82892551  0.14423507  0.41938004  1
  O  O194  1  0.24350428  0.35366570  0.42044045  1
  O  O195  1  0.76226693  0.36587840  0.42469979  1
  O  O196  1  0.43167224  0.51360816  0.41914470  1
  O  O197  1  0.92994594  0.51120050  0.42327268  1
  O  O198  1  0.17129786  0.51289361  0.07588115  1
  O  O199  1  0.67647161  0.49185939  0.08080626  1
  O  O200  1  0.07029789  0.65586765  0.08348267  1
  O  O201  1  0.58236086  0.65086293  0.07543400  1
  O  O202  1  0.25903133  0.86025309  0.07997347  1
  O  O203  1  0.75329897  0.86318714  0.08196606  1
  O  O204  1  0.17612241  0.85850051  0.57870602  1
  O  O205  1  0.67101947  0.83161034  0.57627776  1
  O  O206  1  0.25457674  0.64304151  0.58063079  1
  O  O207  1  0.75879005  0.65906538  0.57943183  1
  O  O208  1  0.08137971  0.50808808  0.57472932  1
  O  O209  1  0.57010323  0.48721924  0.58380875  1
  O  O210  1  0.15049073  0.83392466  0.25228342  1
  O  O211  1  0.65183273  0.83966389  0.25612783  1
  O  O212  1  0.26925260  0.69356398  0.25801148  1
  O  O213  1  0.76834113  0.69671156  0.25011832  1
  O  O214  1  0.07753197  0.47536948  0.25526873  1
  O  O215  1  0.57655267  0.46586695  0.25092045  1
  O  O216  1  0.15348449  0.49226408  0.75911222  1
  O  O217  1  0.65025525  0.46762108  0.75311701  1
  O  O218  1  0.07337105  0.69202860  0.74869096  1
  O  O219  1  0.58234681  0.68715312  0.75522569  1
  O  O220  1  0.27155883  0.84823015  0.74895171  1
  O  O221  1  0.76375157  0.84590256  0.75537540  1
