# generated using pymatgen
data_Na7Ca2Zn2P3(SO8)3
_symmetry_space_group_name_H-M   'P 1'
_cell_length_a   9.25091531
_cell_length_b   9.28457357
_cell_length_c   22.37150311
_cell_angle_alpha   89.83896059
_cell_angle_beta   89.65762920
_cell_angle_gamma   120.12614850
_symmetry_Int_Tables_number   1
_chemical_formula_structural   Na7Ca2Zn2P3(SO8)3
_chemical_formula_sum   'Na21 Ca6 Zn6 P9 S9 O72'
_cell_volume   1661.88684734
_cell_formula_units_Z   3
loop_
 _symmetry_equiv_pos_site_id
 _symmetry_equiv_pos_as_xyz
  1  'x, y, z'
loop_
 _atom_site_type_symbol
 _atom_site_label
 _atom_site_symmetry_multiplicity
 _atom_site_fract_x
 _atom_site_fract_y
 _atom_site_fract_z
 _atom_site_occupancy
  Na  Na0  1  0.63472461  0.00734315  0.25565193  1
  Na  Na1  1  0.36274385  0.36404902  0.24701464  1
  Na  Na2  1  0.00640726  0.62966263  0.25039400  1
  Na  Na3  1  0.64350082  0.65196185  0.74061654  1
  Na  Na4  1  0.98782021  0.34908179  0.76007658  1
  Na  Na5  1  0.02149631  0.69450669  0.57246625  1
  Na  Na6  1  0.67042940  0.95992418  0.58119586  1
  Na  Na7  1  0.29425072  0.96802621  0.08276755  1
  Na  Na8  1  0.03885106  0.32676510  0.08601832  1
  Na  Na9  1  0.97899914  0.65794591  0.92280810  1
  Na  Na10  1  0.68813404  0.03569851  0.91193151  1
  Na  Na11  1  0.32978591  0.30003201  0.92804258  1
  Na  Na12  1  0.96362579  0.30239104  0.40576779  1
  Na  Na13  1  0.33140404  0.02357476  0.41111110  1
  Na  Na14  1  0.70454392  0.67750946  0.42011716  1
  Na  Na15  1  0.99600046  0.99512775  0.49266878  1
  Na  Na16  1  -0.00024389  -0.00118049  0.00554938  1
  Na  Na17  1  0.64600533  0.29704374  0.83646735  1
  Na  Na18  1  0.67248984  0.32792280  0.33276037  1
  Na  Na19  1  0.34390266  0.65490879  0.17109353  1
  Na  Na20  1  0.35462556  0.67619312  0.66654963  1
  Ca  Ca21  1  0.00519082  0.00397978  0.84875978  1
  Ca  Ca22  1  0.00647237  0.00455085  0.64838159  1
  Ca  Ca23  1  0.65307092  0.32552498  0.68114551  1
  Ca  Ca24  1  0.33688456  0.66382363  0.01967365  1
  Ca  Ca25  1  0.33924233  0.66295166  0.51078363  1
  Ca  Ca26  1  0.33225428  0.67939759  0.82168826  1
  Zn  Zn27  1  0.99737861  0.00093531  0.34175187  1
  Zn  Zn28  1  0.02777613  0.02261214  0.15959148  1
  Zn  Zn29  1  0.65514038  0.32625966  0.18135046  1
  Zn  Zn30  1  0.65680948  0.32607500  0.99006803  1
  Zn  Zn31  1  0.67198891  0.34532273  0.48299489  1
  Zn  Zn32  1  0.32247253  0.68492160  0.32187098  1
  P  P33  1  0.30077372  0.99868877  0.25080146  1
  P  P34  1  0.00182640  0.30459427  0.24913918  1
  P  P35  1  0.69016259  0.99815890  0.74911568  1
  P  P36  1  0.67024730  0.63837455  0.58089332  1
  P  P37  1  0.36463952  0.32568262  0.08823996  1
  P  P38  1  0.01314141  0.35621704  0.92042495  1
  P  P39  1  0.33934197  0.98279832  0.92609541  1
  P  P40  1  0.64392852  0.97694779  0.41288047  1
  P  P41  1  0.02155617  0.66664078  0.41539306  1
  S  S42  1  0.70817087  0.70737031  0.24953785  1
  S  S43  1  0.31019887  0.31623235  0.75334314  1
  S  S44  1  -0.00049128  0.68711856  0.74900531  1
  S  S45  1  0.96333818  0.33268234  0.58001841  1
  S  S46  1  0.36564601  0.03031754  0.57497412  1
  S  S47  1  0.95604240  0.62948344  0.08614520  1
  S  S48  1  0.67404978  0.04096449  0.08716546  1
  S  S49  1  0.64057279  0.65860185  0.91520913  1
  S  S50  1  0.33193038  0.35976233  0.41009236  1
  O  O51  1  0.21160582  0.02046169  0.30620909  1
  O  O52  1  0.79674883  0.77787174  0.30702672  1
  O  O53  1  0.97347117  0.19157180  0.30467753  1
  O  O54  1  0.23317099  0.23301787  0.81072806  1
  O  O55  1  0.00123927  0.77712099  0.80369024  1
  O  O56  1  0.78937728  0.00461043  0.80586544  1
  O  O57  1  0.78598003  0.99373847  0.69211248  1
  O  O58  1  0.21158710  0.21465274  0.70237468  1
  O  O59  1  0.00858395  0.78289377  0.69469501  1
  O  O60  1  0.80130041  0.81842240  0.19900158  1
  O  O61  1  0.02613506  0.22288556  0.19197382  1
  O  O62  1  0.19430875  0.96870726  0.19364194  1
  O  O63  1  0.88121198  0.33950035  0.63580352  1
  O  O64  1  0.46015025  0.11734968  0.62823062  1
  O  O65  1  0.67030570  0.55368262  0.64002173  1
  O  O66  1  0.86650491  0.52867832  0.14009131  1
  O  O67  1  0.66167385  0.12732855  0.14161491  1
  O  O68  1  0.46269392  0.33516543  0.14567919  1
  O  O69  1  0.45435955  0.31569602  0.03074234  1
  O  O70  1  0.86726784  0.54651071  0.03022746  1
  O  O71  1  0.68977061  0.13977902  0.03219768  1
  O  O72  1  0.45310499  0.12114042  0.51910594  1
  O  O73  1  0.67271333  0.53740859  0.52523018  1
  O  O74  1  0.86055145  0.31979866  0.52670694  1
  O  O75  1  0.55081966  0.68173915  0.96581289  1
  O  O76  1  0.12723023  0.44708137  0.97400224  1
  O  O77  1  0.31956759  0.88466704  0.98451984  1
  O  O78  1  0.57002803  0.87312036  0.47039118  1
  O  O79  1  0.30961365  0.43808479  0.46333701  1
  O  O80  1  0.12502059  0.69103472  0.47207058  1
  O  O81  1  0.10715721  0.63564344  0.36019874  1
  O  O82  1  0.52821743  0.88519696  0.35831802  1
  O  O83  1  0.35191789  0.46183708  0.35580819  1
  O  O84  1  0.09368316  0.45502691  0.86163743  1
  O  O85  1  0.36721553  0.89410676  0.87308107  1
  O  O86  1  0.55227180  0.64286774  0.85907111  1
  O  O87  1  0.00606878  0.82477902  0.40846009  1
  O  O88  1  0.82147641  0.99781453  0.40629712  1
  O  O89  1  0.18177507  0.18948325  0.40731135  1
  O  O90  1  0.98887633  0.17884929  0.91936722  1
  O  O91  1  0.17974644  0.99602927  0.92002863  1
  O  O92  1  0.81312085  0.80348587  0.91488796  1
  O  O93  1  0.98233405  0.18392043  0.57908047  1
  O  O94  1  0.19456392  0.00653095  0.57562298  1
  O  O95  1  0.83409165  0.81211453  0.57550300  1
  O  O96  1  0.98034740  0.80011584  0.08774945  1
  O  O97  1  0.82666275  0.02598746  0.08914859  1
  O  O98  1  0.18867875  0.16019006  0.08835270  1
  O  O99  1  0.67937219  0.15870742  0.75049957  1
  O  O100  1  0.48385513  0.34902921  0.75208703  1
  O  O101  1  0.84118716  0.52372768  0.75050816  1
  O  O102  1  0.69121119  0.53833003  0.24510665  1
  O  O103  1  0.84439771  0.32520172  0.24532378  1
  O  O104  1  0.47746614  0.15801819  0.24765977  1
  O  O105  1  0.65132863  0.50387749  0.92264341  1
  O  O106  1  0.83931826  0.34553347  0.92588398  1
  O  O107  1  0.49536384  0.16102315  0.92626087  1
  O  O108  1  0.65799475  0.15143143  0.41632817  1
  O  O109  1  0.48480689  0.34340402  0.41429528  1
  O  O110  1  0.84419271  0.50820254  0.41855470  1
  O  O111  1  0.33333948  0.47357502  0.08812913  1
  O  O112  1  0.12506748  0.64345486  0.08712900  1
  O  O113  1  0.51992476  0.87636955  0.08618931  1
  O  O114  1  0.34895337  0.86162143  0.57717105  1
  O  O115  1  0.51979436  0.66762067  0.58159935  1
  O  O116  1  0.12810348  0.48897693  0.57743783  1
  O  O117  1  0.32203581  0.84256141  0.25527020  1
  O  O118  1  0.53711837  0.68658003  0.25113364  1
  O  O119  1  0.16257693  0.47887797  0.25411209  1
  O  O120  1  0.31455137  0.47883631  0.74933591  1
  O  O121  1  0.14110926  0.65441642  0.74733107  1
  O  O122  1  0.52004052  0.83547793  0.74803425  1
