# generated using pymatgen
data_Na3TiSi2SnPO12
_symmetry_space_group_name_H-M   'P 1'
_cell_length_a   8.98619610
_cell_length_b   8.99070450
_cell_length_c   22.15985124
_cell_angle_alpha   89.81161034
_cell_angle_beta   90.15677227
_cell_angle_gamma   120.12687435
_symmetry_Int_Tables_number   1
_chemical_formula_structural   Na3TiSi2SnPO12
_chemical_formula_sum   'Na18 Ti6 Si12 Sn6 P6 O72'
_cell_volume   1548.48764388
_cell_formula_units_Z   6
loop_
 _symmetry_equiv_pos_site_id
 _symmetry_equiv_pos_as_xyz
  1  'x, y, z'
loop_
 _atom_site_type_symbol
 _atom_site_label
 _atom_site_symmetry_multiplicity
 _atom_site_fract_x
 _atom_site_fract_y
 _atom_site_fract_z
 _atom_site_occupancy
  Na  Na0  1  0.00184398  0.99711836  0.50065680  1
  Na  Na1  1  0.00948671  0.00264323  0.00179347  1
  Na  Na2  1  0.66622155  0.32570299  0.83161587  1
  Na  Na3  1  0.67273355  0.33499837  0.33696189  1
  Na  Na4  1  0.32997548  0.65942496  0.16682326  1
  Na  Na5  1  0.33626489  0.66591436  0.66425240  1
  Na  Na6  1  0.63465912  0.00007620  0.25121288  1
  Na  Na7  1  0.00081212  0.63087018  0.25152957  1
  Na  Na8  1  0.99176263  0.36126158  0.74846707  1
  Na  Na9  1  0.37028776  0.00458821  0.75115458  1
  Na  Na10  1  0.29870616  0.33557915  0.58226189  1
  Na  Na11  1  0.66807185  0.96518903  0.58489386  1
  Na  Na12  1  0.66822056  0.69486372  0.08590604  1
  Na  Na13  1  0.03387038  0.33271801  0.08571598  1
  Na  Na14  1  0.97413748  0.66856257  0.91802796  1
  Na  Na15  1  0.33087954  0.29762716  0.91873111  1
  Na  Na16  1  0.33297917  0.03518745  0.41660839  1
  Na  Na17  1  0.69987509  0.66306715  0.41932068  1
  Ti  Ti18  1  0.98805403  0.99827329  0.35487187  1
  Ti  Ti19  1  0.99622968  0.99457274  0.64671089  1
  Ti  Ti20  1  0.00720063  0.00258389  0.14763961  1
  Ti  Ti21  1  0.65491736  0.32976121  0.68445704  1
  Ti  Ti22  1  0.67330344  0.33727785  0.48229406  1
  Ti  Ti23  1  0.33551371  0.67786254  0.51942448  1
  Si  Si24  1  0.70986947  0.71080608  0.25040557  1
  Si  Si25  1  0.00199728  0.28742126  0.24911029  1
  Si  Si26  1  0.29335740  0.29287819  0.74795373  1
  Si  Si27  1  0.70827780  0.00052639  0.74694220  1
  Si  Si28  1  0.37272453  0.04197859  0.58237701  1
  Si  Si29  1  0.66929565  0.62496036  0.58223574  1
  Si  Si30  1  0.96215413  0.63066272  0.08457011  1
  Si  Si31  1  0.37093229  0.33028170  0.08251307  1
  Si  Si32  1  0.03757015  0.37101924  0.91606366  1
  Si  Si33  1  0.33567418  0.96128092  0.91378353  1
  Si  Si34  1  0.62562791  0.96264840  0.41686101  1
  Si  Si35  1  0.03970081  0.66358456  0.41593883  1
  Sn  Sn36  1  -0.00001684  0.00424618  0.85119327  1
  Sn  Sn37  1  0.66472407  0.33663431  0.18775282  1
  Sn  Sn38  1  0.66361051  0.32802081  0.98142822  1
  Sn  Sn39  1  0.32927729  0.66787502  0.01917175  1
  Sn  Sn40  1  0.33019233  0.65944203  0.31452066  1
  Sn  Sn41  1  0.33770405  0.66902111  0.81169073  1
  P  P42  1  0.28609071  0.00264748  0.25224453  1
  P  P43  1  0.99193378  0.70564645  0.74928377  1
  P  P44  1  0.95766149  0.33773715  0.58467438  1
  P  P45  1  0.66721214  0.03912955  0.08584402  1
  P  P46  1  0.62715982  0.66964758  0.91775172  1
  P  P47  1  0.33192473  0.37381149  0.41961144  1
  O  O48  1  0.20556337  0.02229957  0.31000359  1
  O  O49  1  0.83158703  0.80508501  0.31042274  1
  O  O50  1  0.97740329  0.16152054  0.30693472  1
  O  O51  1  0.22360368  0.17433358  0.80924533  1
  O  O52  1  0.96564655  0.77757763  0.80940837  1
  O  O53  1  0.83165616  0.04358999  0.80587917  1
  O  O54  1  0.80488859  0.97623956  0.68798523  1
  O  O55  1  0.16504436  0.19316609  0.69059542  1
  O  O56  1  0.02120812  0.83245587  0.69670745  1
  O  O57  1  0.80508217  0.83107010  0.19122983  1
  O  O58  1  0.02250811  0.19595908  0.18868664  1
  O  O59  1  0.17278872  0.97976264  0.19615456  1
  O  O60  1  0.87634998  0.36036201  0.64229113  1
  O  O61  1  0.49877666  0.13004560  0.64168724  1
  O  O62  1  0.63932461  0.49249006  0.63824643  1
  O  O63  1  0.88192063  0.50374922  0.14380865  1
  O  O64  1  0.63380190  0.11332670  0.14375805  1
  O  O65  1  0.50220449  0.37627561  0.13935339  1
  O  O66  1  0.44631113  0.29592152  0.02041201  1
  O  O67  1  0.83789732  0.54872033  0.02471698  1
  O  O68  1  0.70516249  0.15881958  0.03101083  1
  O  O69  1  0.46885186  0.16748424  0.52428757  1
  O  O70  1  0.69423753  0.53295830  0.52230234  1
  O  O71  1  0.83571481  0.30800669  0.52990894  1
  O  O72  1  0.55288956  0.69783792  0.97638895  1
  O  O73  1  0.15963064  0.45070659  0.97600623  1
  O  O74  1  0.29600621  0.83561090  0.97163804  1
  O  O75  1  0.53290238  0.83150220  0.47488259  1
  O  O76  1  0.30749752  0.45985656  0.47559401  1
  O  O77  1  0.17710264  0.69393906  0.47084468  1
  O  O78  1  0.11270883  0.62835204  0.35312363  1
  O  O79  1  0.50422221  0.88334615  0.35626709  1
  O  O80  1  0.37690449  0.49299468  0.36289192  1
  O  O81  1  0.12148312  0.49269540  0.85571165  1
  O  O82  1  0.36646987  0.88310804  0.85165709  1
  O  O83  1  0.50759070  0.63276157  0.86296824  1
  O  O84  1  0.02894661  0.84157388  0.41322033  1
  O  O85  1  0.81216567  0.97053548  0.41144530  1
  O  O86  1  0.17399903  0.19223347  0.41197523  1
  O  O87  1  0.02565116  0.18432512  0.91279651  1
  O  O88  1  0.15599818  0.97007817  0.91185722  1
  O  O89  1  0.81024166  0.82472887  0.91134863  1
  O  O90  1  0.97168365  0.17076906  0.58679545  1
  O  O91  1  0.18697771  0.03147645  0.58951201  1
  O  O92  1  0.83586610  0.81896024  0.58892385  1
  O  O93  1  0.97306093  0.81686335  0.09207073  1
  O  O94  1  0.83036138  0.02198118  0.09014028  1
  O  O95  1  0.17634435  0.16554454  0.09014518  1
  O  O96  1  0.69169253  0.17424932  0.74125541  1
  O  O97  1  0.48282266  0.30997821  0.74022256  1
  O  O98  1  0.84005639  0.52410561  0.74164821  1
  O  O99  1  0.70178703  0.52461793  0.24972785  1
  O  O100  1  0.82111582  0.29486076  0.24817071  1
  O  O101  1  0.47177665  0.15944626  0.24701253  1
  O  O102  1  0.64326948  0.50473962  0.92069016  1
  O  O103  1  0.85332701  0.36623799  0.92156438  1
  O  O104  1  0.49926327  0.15719227  0.91847106  1
  O  O105  1  0.64009543  0.14901404  0.42561985  1
  O  O106  1  0.49498444  0.35415084  0.42419010  1
  O  O107  1  0.84518186  0.49972979  0.42453930  1
  O  O108  1  0.35897952  0.50812907  0.07958598  1
  O  O109  1  0.14926806  0.64270448  0.08070546  1
  O  O110  1  0.51128993  0.85517685  0.07901322  1
  O  O111  1  0.36303135  0.85458875  0.57599544  1
  O  O112  1  0.49277875  0.63788983  0.57806475  1
  O  O113  1  0.14055546  0.49347331  0.57683367  1
  O  O114  1  0.30103289  0.83595818  0.25209925  1
  O  O115  1  0.52424404  0.70462254  0.25380792  1
  O  O116  1  0.16696940  0.48302697  0.25181565  1
  O  O117  1  0.29571566  0.47641974  0.75143921  1
  O  O118  1  0.16224845  0.69698941  0.74998229  1
  O  O119  1  0.51361325  0.83206607  0.74904987  1
