# generated using pymatgen
data_Na9Ta7Zn5(PO4)18
_symmetry_space_group_name_H-M   'P 1'
_cell_length_a   8.82737217
_cell_length_b   8.80061095
_cell_length_c   22.52098229
_cell_angle_alpha   90.00219616
_cell_angle_beta   90.12009450
_cell_angle_gamma   119.95938237
_symmetry_Int_Tables_number   1
_chemical_formula_structural   Na9Ta7Zn5(PO4)18
_chemical_formula_sum   'Na9 Ta7 Zn5 P18 O72'
_cell_volume   1515.78823801
_cell_formula_units_Z   1
loop_
 _symmetry_equiv_pos_site_id
 _symmetry_equiv_pos_as_xyz
  1  'x, y, z'
loop_
 _atom_site_type_symbol
 _atom_site_label
 _atom_site_symmetry_multiplicity
 _atom_site_fract_x
 _atom_site_fract_y
 _atom_site_fract_z
 _atom_site_occupancy
  Na  Na0  1  0.98683523  0.63090959  0.24468745  1
  Na  Na1  1  0.65468192  0.68974007  0.07815820  1
  Na  Na2  1  0.32164719  0.29837797  0.91192211  1
  Na  Na3  1  0.00012849  0.99983642  0.49425023  1
  Na  Na4  1  0.99740521  0.99665840  0.98979297  1
  Na  Na5  1  0.67626836  0.33464754  0.82247633  1
  Na  Na6  1  0.65488794  0.32229189  0.32439693  1
  Na  Na7  1  0.33074146  0.66721906  0.15566498  1
  Na  Na8  1  0.33352855  0.66673954  0.67043901  1
  Ta  Ta9  1  0.99963986  0.99978608  0.65005374  1
  Ta  Ta10  1  0.00482609  0.00662342  0.14568785  1
  Ta  Ta11  1  0.67091073  0.33118272  0.97896894  1
  Ta  Ta12  1  0.66713703  0.33383012  0.47932250  1
  Ta  Ta13  1  0.33315409  0.66670471  0.52113417  1
  Ta  Ta14  1  0.33822929  0.66724676  0.31025444  1
  Ta  Ta15  1  0.33297187  0.66906325  0.81282091  1
  Zn  Zn16  1  0.00068973  0.00124232  0.35305925  1
  Zn  Zn17  1  0.99296016  0.99351660  0.84993961  1
  Zn  Zn18  1  0.66625784  0.33324510  0.68595948  1
  Zn  Zn19  1  0.65996228  0.32600529  0.18341324  1
  Zn  Zn20  1  0.32694889  0.66757689  0.01648813  1
  P  P21  1  0.29357666  0.00783716  0.25297973  1
  P  P22  1  0.71284000  0.71077603  0.25128121  1
  P  P23  1  0.99520937  0.28592627  0.25318099  1
  P  P24  1  0.29508044  0.29167737  0.75341769  1
  P  P25  1  0.99656642  0.70547830  0.75241911  1
  P  P26  1  0.70971430  0.00366729  0.75254375  1
  P  P27  1  0.95446692  0.33128574  0.58457727  1
  P  P28  1  0.37660576  0.04647026  0.58451689  1
  P  P29  1  0.66891483  0.62351680  0.58463625  1
  P  P30  1  0.96202026  0.62273560  0.08674337  1
  P  P31  1  0.66380889  0.04166887  0.08578198  1
  P  P32  1  0.37769902  0.33475292  0.08399099  1
  P  P33  1  0.62824585  0.67248728  0.91977705  1
  P  P34  1  0.04431548  0.37626016  0.91794364  1
  P  P35  1  0.33031228  0.95493211  0.91881314  1
  P  P36  1  0.62423262  0.95602854  0.41702849  1
  P  P37  1  0.33218960  0.37545820  0.41695167  1
  P  P38  1  0.04386958  0.66747927  0.41611073  1
  O  O39  1  0.20792769  0.02480613  0.30823356  1
  O  O40  1  0.82525228  0.79361194  0.30529376  1
  O  O41  1  0.97260912  0.18102321  0.30815823  1
  O  O42  1  0.21319674  0.19054639  0.80954844  1
  O  O43  1  0.97747140  0.79187960  0.80662089  1
  O  O44  1  0.81688356  0.02630618  0.80651175  1
  O  O45  1  0.80141524  0.97172647  0.69469423  1
  O  O46  1  0.16873668  0.19582138  0.69669744  1
  O  O47  1  0.02722752  0.82843711  0.69454039  1
  O  O48  1  0.79688641  0.82722744  0.19365264  1
  O  O49  1  0.02805053  0.19959032  0.19628224  1
  O  O50  1  0.16835881  0.96823725  0.19661690  1
  O  O51  1  0.88437231  0.37178200  0.63860189  1
  O  O52  1  0.48713585  0.11636830  0.63872002  1
  O  O53  1  0.62879766  0.51272699  0.63867593  1
  O  O54  1  0.88073797  0.52509869  0.14383929  1
  O  O55  1  0.64216052  0.12377194  0.14067620  1
  O  O56  1  0.49149265  0.36675675  0.13756109  1
  O  O57  1  0.46271252  0.30261953  0.02643791  1
  O  O58  1  0.83363127  0.53064491  0.03164728  1
  O  O59  1  0.69436858  0.16074857  0.02895321  1
  O  O60  1  0.46803787  0.16241703  0.52768120  1
  O  O61  1  0.69403036  0.53254808  0.52770616  1
  O  O62  1  0.83817245  0.30566516  0.52763400  1
  O  O63  1  0.54699958  0.68884130  0.97681020  1
  O  O64  1  0.15647447  0.45604847  0.97189667  1
  O  O65  1  0.30787858  0.85103071  0.97358388  1
  O  O66  1  0.52309323  0.84215194  0.47172242  1
  O  O67  1  0.31972649  0.47655888  0.47181118  1
  O  O68  1  0.15925043  0.68030580  0.47060154  1
  O  O69  1  0.13007500  0.63721797  0.35991734  1
  O  O70  1  0.50426840  0.86612979  0.36161223  1
  O  O71  1  0.36219212  0.49592427  0.36172734  1
  O  O72  1  0.13313551  0.49713033  0.86139424  1
  O  O73  1  0.36103690  0.86703050  0.86190385  1
  O  O74  1  0.49968161  0.63529281  0.86471559  1
  O  O75  1  0.02505449  0.82697785  0.41447096  1
  O  O76  1  0.80097762  0.97330384  0.41453118  1
  O  O77  1  0.17306017  0.19802498  0.41452974  1
  O  O78  1  0.01802857  0.19391307  0.90922898  1
  O  O79  1  0.18334269  0.99526252  0.91072395  1
  O  O80  1  0.80957309  0.82296066  0.91113729  1
  O  O81  1  0.97537989  0.16631236  0.58858416  1
  O  O82  1  0.19156355  0.02615641  0.58855265  1
  O  O83  1  0.83380511  0.80895887  0.58857001  1
  O  O84  1  0.96507601  0.80741055  0.09037202  1
  O  O85  1  0.83997387  0.02991247  0.09034169  1
  O  O86  1  0.19353852  0.16108288  0.09098635  1
  O  O87  1  0.68013091  0.15560429  0.74215242  1
  O  O88  1  0.47438780  0.31795625  0.74295717  1
  O  O89  1  0.84454175  0.52438387  0.74244504  1
  O  O90  1  0.68454737  0.52742441  0.24346863  1
  O  O91  1  0.84974310  0.32745650  0.24483759  1
  O  O92  1  0.47568049  0.15603794  0.24430652  1
  O  O93  1  0.63224769  0.49124052  0.92386063  1
  O  O94  1  0.86066635  0.36671066  0.92430099  1
  O  O95  1  0.50682789  0.14326564  0.92366804  1
  O  O96  1  0.63202128  0.13745926  0.42434161  1
  O  O97  1  0.50527695  0.36749248  0.42428363  1
  O  O98  1  0.86250567  0.49462695  0.42454495  1
  O  O99  1  0.35081659  0.49069091  0.07614607  1
  O  O100  1  0.14272036  0.65297040  0.07789587  1
  O  O101  1  0.51666321  0.85478809  0.07768702  1
  O  O102  1  0.34793813  0.85729127  0.57162716  1
  O  O103  1  0.50880789  0.65193998  0.57179118  1
  O  O104  1  0.14284532  0.49148931  0.57162690  1
  O  O105  1  0.29732687  0.82528992  0.25738015  1
  O  O106  1  0.52764807  0.69956692  0.25751120  1
  O  O107  1  0.17230144  0.47488242  0.25776116  1
  O  O108  1  0.30188364  0.47582590  0.75638308  1
  O  O109  1  0.17407273  0.69913822  0.75599083  1
  O  O110  1  0.52606614  0.82598538  0.75673765  1
