# generated using pymatgen
data_Ba2Mg(CoO3)2
_symmetry_space_group_name_H-M   'P 1'
_cell_length_a   5.85480660
_cell_length_b   5.80926404
_cell_length_c   5.54080618
_cell_angle_alpha   86.92233392
_cell_angle_beta   91.46409446
_cell_angle_gamma   119.83522512
_symmetry_Int_Tables_number   1
_chemical_formula_structural   Ba2Mg(CoO3)2
_chemical_formula_sum   'Ba2 Mg1 Co2 O6'
_cell_volume   163.24080451
_cell_formula_units_Z   1
loop_
 _symmetry_equiv_pos_site_id
 _symmetry_equiv_pos_as_xyz
  1  'x, y, z'
loop_
 _atom_site_type_symbol
 _atom_site_label
 _atom_site_symmetry_multiplicity
 _atom_site_fract_x
 _atom_site_fract_y
 _atom_site_fract_z
 _atom_site_occupancy
  Ba  Ba0  1  0.67168200  0.33477400  0.00095700  1
  Ba  Ba1  1  0.33584200  0.66844500  0.50002200  1
  Mg  Mg2  1  0.66731900  0.33538800  0.50077600  1
  Co  Co3  1  0.99993500  0.01166900  0.23526700  1
  Co  Co4  1  0.99962700  0.98734000  0.76452000  1
  O  O5  1  0.69352900  0.84336700  0.99939300  1
  O  O6  1  0.85161300  0.15564400  0.50062100  1
  O  O7  1  0.14431700  0.84255700  0.98929200  1
  O  O8  1  0.14460600  0.29994500  0.01049000  1
  O  O9  1  0.85184000  0.69961400  0.49868300  1
  O  O10  1  0.30635600  0.15459500  0.49997500  1
