# generated using pymatgen
data_MgCu2(IO3)4
_symmetry_space_group_name_H-M   'P 1'
_cell_length_a   6.25704786
_cell_length_b   5.65301697
_cell_length_c   9.49667162
_cell_angle_alpha   96.64990895
_cell_angle_beta   86.93899761
_cell_angle_gamma   86.34536167
_symmetry_Int_Tables_number   1
_chemical_formula_structural   MgCu2(IO3)4
_chemical_formula_sum   'Mg1 Cu2 I4 O12'
_cell_volume   332.34370089
_cell_formula_units_Z   1
loop_
 _symmetry_equiv_pos_site_id
 _symmetry_equiv_pos_as_xyz
  1  'x, y, z'
loop_
 _atom_site_type_symbol
 _atom_site_label
 _atom_site_symmetry_multiplicity
 _atom_site_fract_x
 _atom_site_fract_y
 _atom_site_fract_z
 _atom_site_occupancy
  Mg  Mg0  1  0.04110004  0.66933674  0.60031479  1
  Cu  Cu1  1  0.56216162  0.82666770  0.23739364  1
  Cu  Cu2  1  0.06828329  0.21306779  0.79339201  1
  I  I3  1  0.45590059  0.30422028  0.07253284  1
  I  I4  1  0.96533828  0.75923573  0.95152652  1
  I  I5  1  0.00130968  0.14673422  0.38420833  1
  I  I6  1  0.49124231  0.78617950  0.59533594  1
  O  O7  1  0.34283786  0.51827221  0.55308840  1
  O  O8  1  0.88413633  0.43840166  0.47059977  1
  O  O9  1  0.44212626  0.93595829  0.43702306  1
  O  O10  1  0.91164594  -0.04246601  0.52011377  1
  O  O11  1  0.25144616  0.92137023  0.72224283  1
  O  O12  1  0.80840718  0.06799020  0.25043001  1
  O  O13  1  0.74222923  0.65822164  0.05829581  1
  O  O14  1  0.26241629  0.39404977  0.94332181  1
  O  O15  1  0.93985424  0.54612392  0.78302717  1
  O  O16  1  0.38078803  0.53183635  0.22362130  1
  O  O17  1  0.83068674  0.01545390  0.87834791  1
  O  O18  1  0.32442891  0.04744088  0.13232511  1
