# generated using pymatgen
data_Mo2SBr2
_symmetry_space_group_name_H-M   'P 1'
_cell_length_a   9.60461323
_cell_length_b   9.60461323
_cell_length_c   12.03892092
_cell_angle_alpha   90.00000000
_cell_angle_beta   90.00000000
_cell_angle_gamma   139.33902224
_symmetry_Int_Tables_number   1
_chemical_formula_structural   Mo2SBr2
_chemical_formula_sum   'Mo12 S6 Br12'
_cell_volume   723.62963454
_cell_formula_units_Z   6
loop_
 _symmetry_equiv_pos_site_id
 _symmetry_equiv_pos_as_xyz
  1  'x, y, z'
loop_
 _atom_site_type_symbol
 _atom_site_label
 _atom_site_symmetry_multiplicity
 _atom_site_fract_x
 _atom_site_fract_y
 _atom_site_fract_z
 _atom_site_occupancy
  Mo  Mo0  1  0.74639715  0.74639715  0.93858551  1
  Mo  Mo1  1  0.74639715  0.74639715  0.56141449  1
  Mo  Mo2  1  0.25360285  0.25360285  0.43858551  1
  Mo  Mo3  1  0.25360285  0.25360285  0.06141449  1
  Mo  Mo4  1  0.01140164  0.15777236  0.89948407  1
  Mo  Mo5  1  0.15777236  0.01140164  0.60051593  1
  Mo  Mo6  1  0.98859836  0.84222764  0.39948407  1
  Mo  Mo7  1  0.84222764  0.98859836  0.10051593  1
  Mo  Mo8  1  0.98859836  0.84222764  0.10051593  1
  Mo  Mo9  1  0.84222764  0.98859836  0.39948407  1
  Mo  Mo10  1  0.01140164  0.15777236  0.60051593  1
  Mo  Mo11  1  0.15777236  0.01140164  0.89948407  1
  S  S12  1  0.38235280  0.38235280  0.62672501  1
  S  S13  1  0.38235280  0.38235280  0.87327499  1
  S  S14  1  0.61764720  0.61764720  0.12672501  1
  S  S15  1  0.61764720  0.61764720  0.37327499  1
  S  S16  1  0.91385621  0.91385621  0.75000000  1
  S  S17  1  0.08614379  0.08614379  0.25000000  1
  Br  Br18  1  0.97388983  0.62453179  0.25000000  1
  Br  Br19  1  0.62453179  0.97388983  0.25000000  1
  Br  Br20  1  0.02611017  0.37546821  0.75000000  1
  Br  Br21  1  0.37546821  0.02611017  0.75000000  1
  Br  Br22  1  0.10713832  0.40005269  0.06476510  1
  Br  Br23  1  0.40005269  0.10713832  0.43523490  1
  Br  Br24  1  0.40005269  0.10713832  0.06476510  1
  Br  Br25  1  0.10713832  0.40005269  0.43523490  1
  Br  Br26  1  0.59994731  0.89286168  0.56476510  1
  Br  Br27  1  0.89286168  0.59994731  0.93523490  1
  Br  Br28  1  0.59994731  0.89286168  0.93523490  1
  Br  Br29  1  0.89286168  0.59994731  0.56476510  1
