# generated using pymatgen
data_MgV4CoNiO12
_symmetry_space_group_name_H-M   'P 1'
_cell_length_a   6.87944272
_cell_length_b   6.88537769
_cell_length_c   5.72520258
_cell_angle_alpha   73.62008650
_cell_angle_beta   106.41413739
_cell_angle_gamma   99.46092959
_symmetry_Int_Tables_number   1
_chemical_formula_structural   MgV4CoNiO12
_chemical_formula_sum   'Mg1 V4 Co1 Ni1 O12'
_cell_volume   248.51929669
_cell_formula_units_Z   1
loop_
 _symmetry_equiv_pos_site_id
 _symmetry_equiv_pos_as_xyz
  1  'x, y, z'
loop_
 _atom_site_type_symbol
 _atom_site_label
 _atom_site_symmetry_multiplicity
 _atom_site_fract_x
 _atom_site_fract_y
 _atom_site_fract_z
 _atom_site_occupancy
  Mg  Mg0  1  0.72051800  0.71886800  0.75301700  1
  V  V1  1  0.18147300  0.60638900  0.75192900  1
  V  V2  1  0.38491000  0.80485200  0.25944900  1
  V  V3  1  0.60653600  0.18080500  0.74796000  1
  V  V4  1  0.80541800  0.38395800  0.24088800  1
  Co  Co5  1  0.07769500  0.07718600  0.74996800  1
  Ni  Ni6  1  0.91789100  0.91731900  0.25015300  1
  O  O7  1  0.99263500  0.79178800  0.64779800  1
  O  O8  1  0.09217200  0.36010200  0.77935900  1
  O  O9  1  0.19630800  0.96854700  0.15052200  1
  O  O10  1  0.40391800  0.67917200  0.58744500  1
  O  O11  1  0.35994100  0.09117700  0.71857200  1
  O  O12  1  0.34924800  0.64040200  0.06519300  1
  O  O13  1  0.67848100  0.40217600  0.91345700  1
  O  O14  1  0.62933200  0.92058500  0.28881700  1
  O  O15  1  0.64154800  0.34874600  0.43560100  1
  O  O16  1  0.79268000  0.99278500  0.85235500  1
  O  O17  1  0.91977300  0.62936100  0.20842800  1
  O  O18  1  0.96952200  0.19578100  0.34909000  1
