# generated using pymatgen
data_Na3AlSiSn(PO6)2
_symmetry_space_group_name_H-M   'P 1'
_cell_length_a   15.31969371
_cell_length_b   8.82274235
_cell_length_c   8.88606470
_cell_angle_alpha   90.00000000
_cell_angle_beta   124.92269124
_cell_angle_gamma   90.00000000
_symmetry_Int_Tables_number   1
_chemical_formula_structural   Na3AlSiSn(PO6)2
_chemical_formula_sum   'Na12 Al4 Si4 Sn4 P8 O48'
_cell_volume   984.77586371
_cell_formula_units_Z   4
loop_
 _symmetry_equiv_pos_site_id
 _symmetry_equiv_pos_as_xyz
  1  'x, y, z'
loop_
 _atom_site_type_symbol
 _atom_site_label
 _atom_site_symmetry_multiplicity
 _atom_site_fract_x
 _atom_site_fract_y
 _atom_site_fract_z
 _atom_site_occupancy
  Na  Na0  1  0.25111506  0.72336811  0.99643677  1
  Na  Na1  1  0.75111506  0.77663189  0.49643677  1
  Na  Na2  1  0.75111506  0.22336811  0.99643677  1
  Na  Na3  1  0.25111506  0.27663189  0.49643677  1
  Na  Na4  1  0.50419983  0.10968153  0.76106065  1
  Na  Na5  1  0.50419983  0.89031847  0.26106065  1
  Na  Na6  1  0.00419983  0.60968153  0.76106065  1
  Na  Na7  1  0.00419983  0.39031847  0.26106065  1
  Na  Na8  1  0.18574287  0.93008480  0.27557958  1
  Na  Na9  1  0.18574287  0.06991520  0.77557958  1
  Na  Na10  1  0.68574287  0.43008480  0.27557958  1
  Na  Na11  1  0.68574287  0.56991520  0.77557958  1
  Al  Al12  1  0.10555993  0.74078952  0.56397150  1
  Al  Al13  1  0.10555993  0.25921048  0.06397150  1
  Al  Al14  1  0.60555993  0.24078952  0.56397150  1
  Al  Al15  1  0.60555993  0.75921048  0.06397150  1
  Si  Si16  1  0.64498689  0.90021587  0.75082951  1
  Si  Si17  1  0.64498689  0.09978413  0.25082951  1
  Si  Si18  1  0.14498689  0.40021587  0.75082951  1
  Si  Si19  1  0.14498689  0.59978413  0.25082951  1
  Sn  Sn20  1  0.89809033  0.75642654  0.94466500  1
  Sn  Sn21  1  0.89809033  0.24357346  0.44466500  1
  Sn  Sn22  1  0.39809033  0.25642654  0.94466500  1
  Sn  Sn23  1  0.39809033  0.74357346  0.44466500  1
  P  P24  1  0.00388893  0.95620340  0.75766344  1
  P  P25  1  0.00388893  0.04379660  0.25766344  1
  P  P26  1  0.50388893  0.45620340  0.75766344  1
  P  P27  1  0.50388893  0.54379660  0.25766344  1
  P  P28  1  0.35248372  0.88614479  0.76056641  1
  P  P29  1  0.35248372  0.11385521  0.26056641  1
  P  P30  1  0.85248372  0.38614479  0.76056641  1
  P  P31  1  0.85248372  0.61385521  0.26056641  1
  O  O32  1  0.14387912  0.58348551  0.73309942  1
  O  O33  1  0.84529397  0.56378357  0.76573143  1
  O  O34  1  0.84529397  0.43621643  0.26573143  1
  O  O35  1  0.14387912  0.41651449  0.23309942  1
  O  O36  1  0.64387912  0.08348551  0.73309942  1
  O  O37  1  0.34529397  0.06378357  0.76573143  1
  O  O38  1  0.34529397  0.93621643  0.26573143  1
  O  O39  1  0.64387912  0.91651449  0.23309942  1
  O  O40  1  0.43179850  0.54719267  0.57917991  1
  O  O41  1  0.56750034  0.55795689  0.92922611  1
  O  O42  1  0.56750034  0.44204311  0.42922611  1
  O  O43  1  0.43179850  0.45280733  0.07917991  1
  O  O44  1  0.93179850  0.04719267  0.57917991  1
  O  O45  1  0.06750034  0.05795689  0.92922611  1
  O  O46  1  0.06750034  0.94204311  0.42922611  1
  O  O47  1  0.93179850  0.95280733  0.07917991  1
  O  O48  1  0.25209625  0.82211477  0.73836080  1
  O  O49  1  0.74507338  0.81741964  0.76145290  1
  O  O50  1  0.74507338  0.18258036  0.26145290  1
  O  O51  1  0.25209625  0.17788523  0.23836080  1
  O  O52  1  0.75209625  0.32211477  0.73836080  1
  O  O53  1  0.24507338  0.31741964  0.76145290  1
  O  O54  1  0.24507338  0.68258036  0.26145290  1
  O  O55  1  0.75209625  0.67788523  0.23836080  1
  O  O56  1  0.34923198  0.86500343  0.58271550  1
  O  O57  1  0.63242615  0.85156529  0.91331802  1
  O  O58  1  0.63242615  0.14843471  0.41331802  1
  O  O59  1  0.34923198  0.13499657  0.08271550  1
  O  O60  1  0.84923198  0.36500343  0.58271550  1
  O  O61  1  0.13242615  0.35156529  0.91331802  1
  O  O62  1  0.13242615  0.64843471  0.41331802  1
  O  O63  1  0.84923198  0.63499657  0.08271550  1
  O  O64  1  0.45450347  0.82278537  0.93112127  1
  O  O65  1  0.54400027  0.82658101  0.55660387  1
  O  O66  1  0.54400027  0.17341899  0.05660387  1
  O  O67  1  0.45450347  0.17721463  0.43112127  1
  O  O68  1  0.95450347  0.32278537  0.93112127  1
  O  O69  1  0.04400027  0.32658101  0.55660387  1
  O  O70  1  0.04400027  0.67341899  0.05660387  1
  O  O71  1  0.95450347  0.67721463  0.43112127  1
  O  O72  1  0.08418763  0.86019404  0.74372508  1
  O  O73  1  0.92394137  0.84503925  0.75469284  1
  O  O74  1  0.92394137  0.15496075  0.25469284  1
  O  O75  1  0.08418763  0.13980596  0.24372508  1
  O  O76  1  0.58418763  0.36019404  0.74372508  1
  O  O77  1  0.42394137  0.34503925  0.75469284  1
  O  O78  1  0.42394137  0.65496075  0.25469284  1
  O  O79  1  0.58418763  0.63980596  0.24372508  1
