# generated using pymatgen
data_Ni(SbO2)2
_symmetry_space_group_name_H-M   'P 1'
_cell_length_a   5.93603100
_cell_length_b   8.38356416
_cell_length_c   8.38356416
_cell_angle_alpha   90.00000000
_cell_angle_beta   90.00000000
_cell_angle_gamma   90.00000000
_symmetry_Int_Tables_number   1
_chemical_formula_structural   Ni(SbO2)2
_chemical_formula_sum   'Ni4 Sb8 O16'
_cell_volume   417.20888148
_cell_formula_units_Z   4
loop_
 _symmetry_equiv_pos_site_id
 _symmetry_equiv_pos_as_xyz
  1  'x, y, z'
loop_
 _atom_site_type_symbol
 _atom_site_label
 _atom_site_symmetry_multiplicity
 _atom_site_fract_x
 _atom_site_fract_y
 _atom_site_fract_z
 _atom_site_occupancy
  Ni  Ni0  1  0.75000000  0.50000000  0.00000000  1
  Ni  Ni1  1  0.25000000  0.50000000  0.00000000  1
  Ni  Ni2  1  0.25000000  0.00000000  0.50000000  1
  Ni  Ni3  1  0.75000000  0.00000000  0.50000000  1
  Sb  Sb4  1  0.00000000  0.82927154  0.83582857  1
  Sb  Sb5  1  0.50000000  0.16417143  0.82927154  1
  Sb  Sb6  1  0.50000000  0.83582857  0.17072846  1
  Sb  Sb7  1  -0.00000000  0.17072846  0.16417143  1
  Sb  Sb8  1  -0.00000000  0.67072846  0.33582857  1
  Sb  Sb9  1  0.00000000  0.32927154  0.66417143  1
  Sb  Sb10  1  0.50000000  0.66417143  0.67072846  1
  Sb  Sb11  1  0.50000000  0.33582857  0.32927154  1
  O  O12  1  0.50000000  0.86144570  0.40215610  1
  O  O13  1  0.50000000  0.13855430  0.59784390  1
  O  O14  1  -0.00000000  0.40215610  0.13855430  1
  O  O15  1  0.00000000  0.59784390  0.86144570  1
  O  O16  1  0.00000000  0.90215610  0.36144570  1
  O  O17  1  0.50000000  0.63855430  0.90215610  1
  O  O18  1  0.50000000  0.36144570  0.09784390  1
  O  O19  1  -0.00000000  0.09784390  0.63855430  1
  O  O20  1  0.75000000  0.67552223  0.17552223  1
  O  O21  1  0.25000000  0.82447777  0.67552223  1
  O  O22  1  0.25000000  0.17552223  0.32447777  1
  O  O23  1  0.75000000  0.32447777  0.82447777  1
  O  O24  1  0.25000000  0.67552223  0.17552223  1
  O  O25  1  0.75000000  0.82447777  0.67552223  1
  O  O26  1  0.75000000  0.17552223  0.32447777  1
  O  O27  1  0.25000000  0.32447777  0.82447777  1
