# generated using pymatgen
data_Na6Ta2Ga2Si5SO24
_symmetry_space_group_name_H-M   'P 1'
_cell_length_a   8.97528984
_cell_length_b   8.96582452
_cell_length_c   22.26271776
_cell_angle_alpha   90.37142085
_cell_angle_beta   89.49211902
_cell_angle_gamma   120.12594849
_symmetry_Int_Tables_number   1
_chemical_formula_structural   Na6Ta2Ga2Si5SO24
_chemical_formula_sum   'Na18 Ta6 Ga6 Si15 S3 O72'
_cell_volume   1549.44685738
_cell_formula_units_Z   3
loop_
 _symmetry_equiv_pos_site_id
 _symmetry_equiv_pos_as_xyz
  1  'x, y, z'
loop_
 _atom_site_type_symbol
 _atom_site_label
 _atom_site_symmetry_multiplicity
 _atom_site_fract_x
 _atom_site_fract_y
 _atom_site_fract_z
 _atom_site_occupancy
  Na  Na0  1  0.63943657  0.01241251  0.24810829  1
  Na  Na1  1  0.36809245  0.35687943  0.25130409  1
  Na  Na2  1  0.99132518  0.62934740  0.24782569  1
  Na  Na3  1  0.99495756  0.35986820  0.74976332  1
  Na  Na4  1  0.29960004  0.34180695  0.57993672  1
  Na  Na5  1  0.66201755  0.96166886  0.58021761  1
  Na  Na6  1  0.66377658  0.69923182  0.07661588  1
  Na  Na7  1  0.02559067  0.33678136  0.08040153  1
  Na  Na8  1  0.95796932  0.66556571  0.91353141  1
  Na  Na9  1  0.71098417  0.03619501  0.91836018  1
  Na  Na10  1  0.32979112  0.30098467  0.91439221  1
  Na  Na11  1  0.69945666  0.67321611  0.41642919  1
  Na  Na12  1  0.00746698  0.00923426  0.49399279  1
  Na  Na13  1  0.99430973  0.99603648  0.99600431  1
  Na  Na14  1  0.66414712  0.33857204  0.83278710  1
  Na  Na15  1  0.66056687  0.32094304  0.33138880  1
  Na  Na16  1  0.32991219  0.68317692  0.16116707  1
  Na  Na17  1  0.33064311  0.67503410  0.66139658  1
  Ta  Ta18  1  0.99779000  0.99406975  0.64583883  1
  Ta  Ta19  1  0.99480095  0.99408208  0.14758067  1
  Ta  Ta20  1  0.66494271  0.33413018  0.68767058  1
  Ta  Ta21  1  0.65682991  0.32184563  0.47926800  1
  Ta  Ta22  1  0.34216621  0.67061847  0.31344310  1
  Ta  Ta23  1  0.33499003  0.65567914  0.80948644  1
  Ga  Ga24  1  0.00357722  0.02019374  0.35110089  1
  Ga  Ga25  1  0.98521199  0.99970640  0.84764490  1
  Ga  Ga26  1  0.67954496  0.32820325  0.18659039  1
  Ga  Ga27  1  0.69876468  0.35240725  0.98227396  1
  Ga  Ga28  1  0.33473760  0.67474315  0.01781147  1
  Ga  Ga29  1  0.34216053  0.66252299  0.52169507  1
  Si  Si30  1  0.28943125  0.00471950  0.25206374  1
  Si  Si31  1  0.71421320  0.70616486  0.25316454  1
  Si  Si32  1  0.99783911  0.29045781  0.25059177  1
  Si  Si33  1  0.28680932  0.27675812  0.75262949  1
  Si  Si34  1  0.00062780  0.71503523  0.75371801  1
  Si  Si35  1  0.70779899  -0.00045416  0.75128106  1
  Si  Si36  1  0.96285844  0.34219276  0.58246785  1
  Si  Si37  1  0.37190370  0.03356931  0.58356435  1
  Si  Si38  1  0.66929578  0.62365222  0.58158465  1
  Si  Si39  1  0.96365417  0.62518333  0.08323965  1
  Si  Si40  1  0.65714348  0.04207269  0.08220079  1
  Si  Si41  1  0.62506903  0.66422309  0.92008183  1
  Si  Si42  1  0.04496568  0.37353921  0.91913759  1
  Si  Si43  1  0.63090877  0.95805504  0.41893216  1
  Si  Si44  1  0.32450133  0.36799517  0.41912401  1
  S  S45  1  0.37730338  0.32971000  0.08319255  1
  S  S46  1  0.33349209  0.95596694  0.91743790  1
  S  S47  1  0.04632803  0.66747344  0.41828233  1
  O  O48  1  0.19868822  0.03829125  0.30820938  1
  O  O49  1  0.83414068  0.79053111  0.31057811  1
  O  O50  1  0.95273681  0.16259720  0.30567034  1
  O  O51  1  0.20311604  0.17029356  0.81315826  1
  O  O52  1  0.97004874  0.79592848  0.81393632  1
  O  O53  1  0.82606435  0.04598781  0.81038588  1
  O  O54  1  0.79789551  0.96916297  0.69143252  1
  O  O55  1  0.16452562  0.19849773  0.69289929  1
  O  O56  1  0.02901392  0.83615025  0.69447282  1
  O  O57  1  0.79749556  0.83487327  0.19302556  1
  O  O58  1  0.04073039  0.20837805  0.18972681  1
  O  O59  1  0.16100521  0.96591072  0.19280724  1
  O  O60  1  0.86685492  0.36059875  0.64283532  1
  O  O61  1  0.50162875  0.13490946  0.63981310  1
  O  O62  1  0.63924263  0.49654067  0.63849612  1
  O  O63  1  0.87516961  0.50766819  0.14270893  1
  O  O64  1  0.63462468  0.12588852  0.14379312  1
  O  O65  1  0.48029097  0.35561864  0.13764362  1
  O  O66  1  0.45310185  0.30304428  0.02818685  1
  O  O67  1  0.83841089  0.55531159  0.02416542  1
  O  O68  1  0.70037089  0.16534212  0.02259980  1
  O  O69  1  0.46484249  0.16820306  0.52587193  1
  O  O70  1  0.69983547  0.53470924  0.52168675  1
  O  O71  1  0.82648101  0.30104568  0.52672695  1
  O  O72  1  0.53869578  0.70353640  0.97820472  1
  O  O73  1  0.16675433  0.46466170  0.97728377  1
  O  O74  1  0.30243480  0.84811050  0.97126622  1
  O  O75  1  0.53789238  0.83731322  0.47657148  1
  O  O76  1  0.30476083  0.46174707  0.47801713  1
  O  O77  1  0.15095692  0.68848926  0.47055984  1
  O  O78  1  0.12664024  0.64147920  0.36152197  1
  O  O79  1  0.50364996  0.86609156  0.35866386  1
  O  O80  1  0.36013396  0.49934292  0.35933855  1
  O  O81  1  0.13655400  0.50122250  0.85994337  1
  O  O82  1  0.36185319  0.87353878  0.86342408  1
  O  O83  1  0.49615048  0.63748979  0.86195993  1
  O  O84  1  0.02104020  0.81563008  0.41228092  1
  O  O85  1  0.81348142  0.96429182  0.41031731  1
  O  O86  1  0.16205624  0.17825433  0.41131298  1
  O  O87  1  0.02745559  0.18298649  0.91271991  1
  O  O88  1  0.17938136  0.97419514  0.91282445  1
  O  O89  1  0.81719253  0.83464686  0.91236618  1
  O  O90  1  0.97321201  0.16278286  0.58927398  1
  O  O91  1  0.19052588  0.03366266  0.58978035  1
  O  O92  1  0.83879358  0.81617678  0.58836499  1
  O  O93  1  0.97831967  0.81828299  0.09031090  1
  O  O94  1  0.84032899  0.02792704  0.08919183  1
  O  O95  1  0.19798941  0.17421827  0.08791154  1
  O  O96  1  0.69256159  0.17229397  0.74257692  1
  O  O97  1  0.48078089  0.31026766  0.74388068  1
  O  O98  1  0.83565486  0.51907639  0.74374503  1
  O  O99  1  0.67978792  0.51362510  0.24093755  1
  O  O100  1  0.83295686  0.31739302  0.24502480  1
  O  O101  1  0.48078497  0.17042455  0.24272676  1
  O  O102  1  0.63118436  0.48254942  0.92348756  1
  O  O103  1  0.85254459  0.35640147  0.91997811  1
  O  O104  1  0.48972303  0.12898068  0.92189663  1
  O  O105  1  0.64687376  0.14994890  0.42187207  1
  O  O106  1  0.51340298  0.36988217  0.42134157  1
  O  O107  1  0.87071946  0.50705566  0.42039903  1
  O  O108  1  0.35538072  0.48358635  0.07997125  1
  O  O109  1  0.15051097  0.63719838  0.07574986  1
  O  O110  1  0.49915425  0.84217511  0.07733100  1
  O  O111  1  0.36217527  0.85196108  0.57588899  1
  O  O112  1  0.49944258  0.64249866  0.58038218  1
  O  O113  1  0.15328662  0.50526133  0.57738727  1
  O  O114  1  0.30378500  0.82658751  0.25699997  1
  O  O115  1  0.52218659  0.69480178  0.25656095  1
  O  O116  1  0.17295242  0.48308672  0.25732284  1
  O  O117  1  0.30140043  0.47082448  0.75688160  1
  O  O118  1  0.16919255  0.68670004  0.75835890  1
  O  O119  1  0.51658416  0.82968729  0.75833645  1
