# generated using pymatgen
data_Na3MgInP2SO12
_symmetry_space_group_name_H-M   'P 1'
_cell_length_a   9.06271734
_cell_length_b   9.03100494
_cell_length_c   22.31543517
_cell_angle_alpha   90.05302252
_cell_angle_beta   90.00000000
_cell_angle_gamma   120.11622773
_symmetry_Int_Tables_number   1
_chemical_formula_structural   Na3MgInP2SO12
_chemical_formula_sum   'Na18 Mg6 In6 P12 S6 O72'
_cell_volume   1579.86662807
_cell_formula_units_Z   6
loop_
 _symmetry_equiv_pos_site_id
 _symmetry_equiv_pos_as_xyz
  1  'x, y, z'
loop_
 _atom_site_type_symbol
 _atom_site_label
 _atom_site_symmetry_multiplicity
 _atom_site_fract_x
 _atom_site_fract_y
 _atom_site_fract_z
 _atom_site_occupancy
  Na  Na0  1  0.35459074  0.35294804  0.24530920  1
  Na  Na1  1  0.00258444  0.63263330  0.24505171  1
  Na  Na2  1  0.63004886  0.63263330  0.74505171  1
  Na  Na3  1  0.99835731  0.35294804  0.74530920  1
  Na  Na4  1  0.02125774  0.68628104  0.57864220  1
  Na  Na5  1  0.66925144  0.96596630  0.57838471  1
  Na  Na6  1  0.29671586  0.96596630  0.07838471  1
  Na  Na7  1  0.66502431  0.68628104  0.07864220  1
  Na  Na8  1  0.68792374  0.01961504  0.91197620  1
  Na  Na9  1  0.33591744  0.29930030  0.91171871  1
  Na  Na10  1  0.96338186  0.29930030  0.41171871  1
  Na  Na11  1  0.33169031  0.01961504  0.41197620  1
  Na  Na12  1  0.97720319  0.98352858  0.49567891  1
  Na  Na13  1  0.00632539  0.98352858  0.99567891  1
  Na  Na14  1  0.64387019  0.31686158  0.82901191  1
  Na  Na15  1  0.67299239  0.31686158  0.32901191  1
  Na  Na16  1  0.31053619  0.65019558  0.16234591  1
  Na  Na17  1  0.33965839  0.65019558  0.66234591  1
  Mg  Mg18  1  0.99234571  0.99557993  0.35083571  1
  Mg  Mg19  1  0.00323423  0.99557993  0.85083571  1
  Mg  Mg20  1  0.65901271  0.32891293  0.68416871  1
  Mg  Mg21  1  0.66990123  0.32891293  0.18416871  1
  Mg  Mg22  1  0.32567871  0.66224693  0.01750271  1
  Mg  Mg23  1  0.33656723  0.66224693  0.51750271  1
  In  In24  1  0.00366625  0.01049244  0.65279901  1
  In  In25  1  0.00682619  0.01049244  0.15279901  1
  In  In26  1  0.67033325  0.34382544  0.98613201  1
  In  In27  1  0.67349319  0.34382544  0.48613201  1
  In  In28  1  0.33699925  0.67715944  0.31946601  1
  In  In29  1  0.34015919  0.67715944  0.81946601  1
  P  P30  1  0.30176653  0.00299978  0.25133384  1
  P  P31  1  -0.00012396  0.30029093  0.25484257  1
  P  P32  1  0.30041489  0.30029093  0.75484257  1
  P  P33  1  0.70123326  0.00299978  0.75133384  1
  P  P34  1  0.96843353  0.33633278  0.58466684  1
  P  P35  1  0.66654304  0.63362393  0.58817557  1
  P  P36  1  0.96708189  0.63362393  0.08817557  1
  P  P37  1  0.36790026  0.33633278  0.08466684  1
  P  P38  1  0.63509953  0.66966678  0.91800084  1
  P  P39  1  0.33320904  0.96695793  0.92150957  1
  P  P40  1  0.63374789  0.96695793  0.42150957  1
  P  P41  1  0.03456626  0.66966678  0.41800084  1
  S  S42  1  0.70181818  0.70154322  0.24935658  1
  S  S43  1  0.99972503  0.70154322  0.74935658  1
  S  S44  1  0.36848518  0.03487622  0.58268958  1
  S  S45  1  0.66639203  0.03487622  0.08268958  1
  S  S46  1  0.03515118  0.36821022  0.91602358  1
  S  S47  1  0.33305803  0.36821022  0.41602358  1
  O  O48  1  0.20931400  0.02283246  0.30624121  1
  O  O49  1  0.81278659  0.79653437  0.29982027  1
  O  O50  1  0.98355035  0.19715774  0.31132824  1
  O  O51  1  0.21360739  0.19715774  0.81132824  1
  O  O52  1  0.98374778  0.79653437  0.79982027  1
  O  O53  1  0.81351846  0.02283246  0.80624121  1
  O  O54  1  0.77622754  0.96635016  0.69345281  1
  O  O55  1  0.18931421  0.21950689  0.69802694  1
  O  O56  1  0.02683024  0.79559781  0.69167776  1
  O  O57  1  0.76876757  0.79559781  0.19167776  1
  O  O58  1  0.03019267  0.21950689  0.19802694  1
  O  O59  1  0.19012262  0.96635016  0.19345281  1
  O  O60  1  0.87598100  0.35616546  0.63957421  1
  O  O61  1  0.47945359  0.12986737  0.63315327  1
  O  O62  1  0.65021735  0.53049074  0.64466124  1
  O  O63  1  0.88027439  0.53049074  0.14466124  1
  O  O64  1  0.65041478  0.12986737  0.13315327  1
  O  O65  1  0.48018546  0.35616546  0.13957421  1
  O  O66  1  0.44289454  0.29968316  0.02678581  1
  O  O67  1  0.85598121  0.55283989  0.03135994  1
  O  O68  1  0.69349724  0.12893081  0.02501076  1
  O  O69  1  0.43543457  0.12893081  0.52501076  1
  O  O70  1  0.69685967  0.55283989  0.53135994  1
  O  O71  1  0.85678962  0.29968316  0.52678581  1
  O  O72  1  0.54264700  0.68949946  0.97290821  1
  O  O73  1  0.14611959  0.46320137  0.96648727  1
  O  O74  1  0.31688335  0.86382474  0.97799524  1
  O  O75  1  0.54694039  0.86382474  0.47799524  1
  O  O76  1  0.31708078  0.46320137  0.46648727  1
  O  O77  1  0.14685146  0.68949946  0.47290821  1
  O  O78  1  0.10956054  0.63301716  0.36011981  1
  O  O79  1  0.52264721  0.88617389  0.36469394  1
  O  O80  1  0.36016324  0.46226481  0.35834476  1
  O  O81  1  0.10210057  0.46226481  0.85834476  1
  O  O82  1  0.36352567  0.88617389  0.86469394  1
  O  O83  1  0.52345562  0.63301716  0.86011981  1
  O  O84  1  0.02628629  0.83574055  0.41133824  1
  O  O85  1  0.81649713  0.99692610  0.41469033  1
  O  O86  1  0.17440968  0.19716875  0.41319910  1
  O  O87  1  0.02275907  0.19716875  0.91319910  1
  O  O88  1  0.18042898  0.99692610  0.91469033  1
  O  O89  1  0.80945426  0.83574055  0.91133824  1
  O  O90  1  0.98566465  0.17313776  0.58752334  1
  O  O91  1  0.19079619  0.00382898  0.58839678  1
  O  O92  1  0.83644334  0.81520221  0.58909745  1
  O  O93  1  0.97875887  0.81520221  0.08909745  1
  O  O94  1  0.81303279  0.00382898  0.08839678  1
  O  O95  1  0.18747310  0.17313776  0.08752334  1
  O  O96  1  0.69295329  0.16907355  0.74467124  1
  O  O97  1  0.48316413  0.33025910  0.74802333  1
  O  O98  1  0.84107668  0.53050175  0.74653210  1
  O  O99  1  0.68942607  0.53050175  0.24653210  1
  O  O100  1  0.84709598  0.33025910  0.24802333  1
  O  O101  1  0.47612126  0.16907355  0.24467124  1
  O  O102  1  0.65233165  0.50647076  0.92085634  1
  O  O103  1  0.85746319  0.33716198  0.92172978  1
  O  O104  1  0.50311034  0.14853521  0.92243045  1
  O  O105  1  0.64542587  0.14853521  0.42243045  1
  O  O106  1  0.47969979  0.33716198  0.42172978  1
  O  O107  1  0.85414010  0.50647076  0.42085634  1
  O  O108  1  0.35961929  0.50240755  0.07800524  1
  O  O109  1  0.14983013  0.66359310  0.08135733  1
  O  O110  1  0.50774268  0.86383575  0.07986610  1
  O  O111  1  0.35609207  0.86383575  0.57986610  1
  O  O112  1  0.51376198  0.66359310  0.58135733  1
  O  O113  1  0.14278726  0.50240755  0.57800524  1
  O  O114  1  0.31899765  0.83980476  0.25419034  1
  O  O115  1  0.52412919  0.67049598  0.25506378  1
  O  O116  1  0.16977634  0.48186921  0.25576445  1
  O  O117  1  0.31209187  0.48186921  0.75576445  1
  O  O118  1  0.14636579  0.67049598  0.75506378  1
  O  O119  1  0.52080610  0.83980476  0.75419034  1
