# generated using pymatgen
data_Na6Y4Si5Ge4S7O48
_symmetry_space_group_name_H-M   'P 1'
_cell_length_a   17.84219374
_cell_length_b   8.91912831
_cell_length_c   22.92044457
_cell_angle_alpha   90.05337487
_cell_angle_beta   89.77282160
_cell_angle_gamma   120.02389106
_symmetry_Int_Tables_number   1
_chemical_formula_structural   Na6Y4Si5Ge4S7O48
_chemical_formula_sum   'Na18 Y12 Si15 Ge12 S21 O144'
_cell_volume   3158.02812222
_cell_formula_units_Z   3
loop_
 _symmetry_equiv_pos_site_id
 _symmetry_equiv_pos_as_xyz
  1  'x, y, z'
loop_
 _atom_site_type_symbol
 _atom_site_label
 _atom_site_symmetry_multiplicity
 _atom_site_fract_x
 _atom_site_fract_y
 _atom_site_fract_z
 _atom_site_occupancy
  Na  Na0  1  0.99648859  0.62580303  0.25527885  1
  Na  Na1  1  0.50235676  0.62678970  0.25118642  1
  Na  Na2  1  0.00276150  0.38335909  0.74993993  1
  Na  Na3  1  0.49574468  0.35802325  0.75285732  1
  Na  Na4  1  0.66377107  0.31151792  0.92105456  1
  Na  Na5  1  0.16598338  0.01096876  0.43212872  1
  Na  Na6  1  0.99830402  0.99724631  0.51034389  1
  Na  Na7  1  0.49992533  0.98530656  0.50041682  1
  Na  Na8  1  0.99871714  0.01028825  0.99464011  1
  Na  Na9  1  0.50022037  0.00397738  0.00666671  1
  Na  Na10  1  0.32828450  0.31811138  0.84238159  1
  Na  Na11  1  0.83028186  0.33065777  0.82172218  1
  Na  Na12  1  0.34562969  0.35143273  0.32987265  1
  Na  Na13  1  0.82233039  0.33006440  0.34607016  1
  Na  Na14  1  0.19079220  0.66317102  0.15969036  1
  Na  Na15  1  0.66860751  0.64883525  0.16074622  1
  Na  Na16  1  0.17190499  0.69324450  0.66310628  1
  Na  Na17  1  0.68595817  0.69585776  0.66637213  1
  Y  Y18  1  0.99246259  0.98217706  0.36212795  1
  Y  Y19  1  0.49634042  0.00797019  0.85863525  1
  Y  Y20  1  0.32366947  0.33967248  0.67639577  1
  Y  Y21  1  0.82629148  0.30730758  0.68558172  1
  Y  Y22  1  0.33174208  0.35150096  0.18311225  1
  Y  Y23  1  0.82016318  0.30584527  0.17550735  1
  Y  Y24  1  0.83005797  0.32029721  0.99048763  1
  Y  Y25  1  0.33240911  0.35014897  0.49406710  1
  Y  Y26  1  0.17089871  0.66667949  0.31360263  1
  Y  Y27  1  0.67119099  0.65322668  0.31421836  1
  Y  Y28  1  0.17306309  0.69062719  0.81405894  1
  Y  Y29  1  0.66763725  0.65660132  0.80889414  1
  Si  Si30  1  0.36925875  0.74521025  0.25054620  1
  Si  Si31  1  0.49824997  0.29134655  0.25003280  1
  Si  Si32  1  0.63868769  0.27757610  0.74573585  1
  Si  Si33  1  0.00093129  0.70565793  0.74987536  1
  Si  Si34  1  0.87042044  0.99448858  0.75083005  1
  Si  Si35  1  0.16861099  0.02270590  0.58261660  1
  Si  Si36  1  0.68860283  0.02272955  0.57706747  1
  Si  Si37  1  0.33428330  0.66457920  0.58363781  1
  Si  Si38  1  0.82903828  0.00612096  0.08176319  1
  Si  Si39  1  0.18833010  0.35338363  0.07830368  1
  Si  Si40  1  0.66843336  0.31923545  0.08208650  1
  Si  Si41  1  0.51389015  0.38473405  0.92362813  1
  Si  Si42  1  0.16173665  0.96138922  0.92039966  1
  Si  Si43  1  0.66267033  0.36251442  0.42001223  1
  Si  Si44  1  0.01542258  0.64065520  0.42309634  1
  Ge  Ge45  1  0.50144154  0.03033730  0.35088109  1
  Ge  Ge46  1  0.00211724  0.97163583  0.84975648  1
  Ge  Ge47  1  0.00496159  0.97877293  0.65551774  1
  Ge  Ge48  1  0.51616302  0.99739969  0.63835741  1
  Ge  Ge49  1  0.00689912  0.02594502  0.13404573  1
  Ge  Ge50  1  0.50194364  0.02834130  0.15297797  1
  Ge  Ge51  1  0.32233332  0.30875397  0.98211173  1
  Ge  Ge52  1  0.82315343  0.33975893  0.48350961  1
  Ge  Ge53  1  0.16205987  0.66342543  0.01231911  1
  Ge  Ge54  1  0.66058646  0.64772496  0.02502832  1
  Ge  Ge55  1  0.15895556  0.67434554  0.52866862  1
  Ge  Ge56  1  0.66050051  0.65288652  0.51571746  1
  S  S57  1  0.13878209  0.00011601  0.24627706  1
  S  S58  1  0.64167555  0.00909081  0.25360322  1
  S  S59  1  0.85911343  0.71381019  0.24233219  1
  S  S60  1  -0.00005131  0.28484228  0.24420381  1
  S  S61  1  0.14214700  0.27463658  0.75376681  1
  S  S62  1  0.49847422  0.71158773  0.74558731  1
  S  S63  1  0.35567191  0.00292608  0.74325420  1
  S  S64  1  0.49330854  0.33796377  0.58412296  1
  S  S65  1  0.98161276  0.33161715  0.57890232  1
  S  S66  1  0.82956970  0.62971574  0.57830305  1
  S  S67  1  0.48284908  0.63571183  0.07930973  1
  S  S68  1  0.99350203  0.65040359  0.08730909  1
  S  S69  1  0.32908082  0.02846085  0.07914668  1
  S  S70  1  0.30904554  0.65172411  0.92356376  1
  S  S71  1  0.81891105  0.67694070  0.92000357  1
  S  S72  1  0.02112272  0.36856628  0.91698205  1
  S  S73  1  0.66683107  0.95434249  0.92029709  1
  S  S74  1  0.32030563  0.96623867  0.41920659  1
  S  S75  1  0.80814322  0.96528807  0.42292616  1
  S  S76  1  0.16920243  0.37368128  0.42037166  1
  S  S77  1  0.51967394  0.67383196  0.41644615  1
  O  O78  1  0.10019308  0.01196538  0.30233613  1
  O  O79  1  0.60206178  0.02874464  0.30821007  1
  O  O80  1  0.43016703  0.83559329  0.31025214  1
  O  O81  1  0.90535611  0.79328765  0.29800631  1
  O  O82  1  0.49329525  0.18815161  0.31051660  1
  O  O83  1  0.99449195  0.18890268  0.29743124  1
  O  O84  1  0.10291324  0.17512396  0.80827808  1
  O  O85  1  0.59866501  0.19236285  0.80958175  1
  O  O86  1  0.48795018  0.79023672  0.79889224  1
  O  O87  1  0.99485613  0.79801071  0.81052493  1
  O  O88  1  0.39934292  0.01193085  0.79959419  1
  O  O89  1  0.93205042  0.02617854  0.81084533  1
  O  O90  1  0.40214672  0.99564974  0.69235438  1
  O  O91  1  0.91860394  0.98833194  0.68745762  1
  O  O92  1  0.09192318  0.19337795  0.69947337  1
  O  O93  1  0.57473577  0.16000011  0.68984439  1
  O  O94  1  0.01776422  0.82321962  0.69116527  1
  O  O95  1  0.50011373  0.80367472  0.69106594  1
  O  O96  1  0.41762225  0.84510126  0.18764747  1
  O  O97  1  0.90796251  0.81697374  0.19142167  1
  O  O98  1  0.00588286  0.19648745  0.18988061  1
  O  O99  1  0.51405958  0.20696210  0.19114834  1
  O  O100  1  0.08398607  0.98548296  0.19491428  1
  O  O101  1  0.59171420  0.99024576  0.19953343  1
  O  O102  1  0.45411282  0.36275940  0.63770279  1
  O  O103  1  0.95315858  0.37156578  0.63429720  1
  O  O104  1  0.23295548  0.11066429  0.63641421  1
  O  O105  1  0.74101465  0.07709620  0.63651227  1
  O  O106  1  0.30818467  0.53860908  0.63968717  1
  O  O107  1  0.81562485  0.52573349  0.63057084  1
  O  O108  1  0.45352489  0.53790170  0.13552320  1
  O  O109  1  0.95393097  0.54861393  0.14118224  1
  O  O110  1  0.31439258  0.10274705  0.13235048  1
  O  O111  1  0.80817967  0.07748075  0.14075868  1
  O  O112  1  0.23787526  0.39781087  0.13940302  1
  O  O113  1  0.73114712  0.35972260  0.13749880  1
  O  O114  1  0.24032555  0.31157446  0.02748137  1
  O  O115  1  0.70681078  0.28567190  0.02220600  1
  O  O116  1  0.42393630  0.53802229  0.03123988  1
  O  O117  1  0.93773368  0.57022854  0.03638342  1
  O  O118  1  0.34439454  0.14256474  0.02714275  1
  O  O119  1  0.85730478  0.13942209  0.02801336  1
  O  O120  1  0.20615054  0.12960844  0.52185835  1
  O  O121  1  0.73988663  0.16860003  0.52527332  1
  O  O122  1  0.36137961  0.59038831  0.52779908  1
  O  O123  1  0.84566497  0.54820471  0.52510691  1
  O  O124  1  0.43863648  0.31583787  0.53289869  1
  O  O125  1  0.92482906  0.31525105  0.52948064  1
  O  O126  1  0.26264583  0.68080014  0.97328863  1
  O  O127  1  0.77862132  0.69826616  0.97341123  1
  O  O128  1  0.07673994  0.46116230  0.97008074  1
  O  O129  1  0.59269098  0.50163067  0.97136188  1
  O  O130  1  0.14583598  0.82448918  0.97617034  1
  O  O131  1  0.66662863  0.86111672  0.97321895  1
  O  O132  1  0.27924709  0.86276659  0.47155560  1
  O  O133  1  0.76215815  0.84392928  0.47144883  1
  O  O134  1  0.16509785  0.46414916  0.47177109  1
  O  O135  1  0.64609787  0.46709645  0.47502188  1
  O  O136  1  0.09550251  0.68292892  0.46988849  1
  O  O137  1  0.57436513  0.68889207  0.46833409  1
  O  O138  1  0.04641446  0.61675732  0.35784666  1
  O  O139  1  0.56040002  0.65929426  0.36149757  1
  O  O140  1  0.26540841  0.88704321  0.36648003  1
  O  O141  1  0.76505852  0.89656041  0.36644385  1
  O  O142  1  0.17522288  0.46392419  0.36480819  1
  O  O143  1  0.68682122  0.47388942  0.36101439  1
  O  O144  1  0.06317300  0.46523626  0.86304665  1
  O  O145  1  0.54412118  0.47306514  0.85952528  1
  O  O146  1  0.18594115  0.89737526  0.86210589  1
  O  O147  1  0.67229291  0.87363169  0.86595948  1
  O  O148  1  0.26363632  0.63083210  0.86816884  1
  O  O149  1  0.76445649  0.64613961  0.86803968  1
  O  O150  1  0.01324476  0.82442813  0.42392001  1
  O  O151  1  0.51184830  0.83076177  0.41564169  1
  O  O152  1  0.40646745  0.97709258  0.41216769  1
  O  O153  1  0.89653357  0.98559917  0.42238962  1
  O  O154  1  0.08996817  0.19660409  0.41872113  1
  O  O155  1  0.57415408  0.16649610  0.41053613  1
  O  O156  1  0.01323070  0.19670282  0.91680609  1
  O  O157  1  0.50919639  0.19575296  0.92660708  1
  O  O158  1  0.07352193  0.98131594  0.91086281  1
  O  O159  1  0.58710653  0.97049247  0.92147298  1
  O  O160  1  0.39606567  0.80573805  0.92355772  1
  O  O161  1  0.90561833  0.83740703  0.91356743  1
  O  O162  1  0.50555982  0.18693509  0.58686268  1
  O  O163  1  0.99004158  0.17711094  0.58217571  1
  O  O164  1  0.07341777  0.01440583  0.59419694  1
  O  O165  1  0.59121866  0.00696663  0.58300472  1
  O  O166  1  0.42108728  0.85886717  0.59641689  1
  O  O167  1  0.90606155  0.80448966  0.58275811  1
  O  O168  1  0.49058323  0.80684870  0.08418234  1
  O  O169  1  0.00719195  0.83075837  0.09261593  1
  O  O170  1  0.40650559  0.00838916  0.08440240  1
  O  O171  1  0.91645347  0.98270598  0.09127378  1
  O  O172  1  0.09040909  0.17078542  0.08524978  1
  O  O173  1  0.57364732  0.13514717  0.09381419  1
  O  O174  1  0.34844713  0.16339197  0.74338086  1
  O  O175  1  0.86619709  0.17148846  0.74901113  1
  O  O176  1  0.22994593  0.29729775  0.75090065  1
  O  O177  1  0.73344596  0.30131495  0.74385904  1
  O  O178  1  0.42417090  0.52985069  0.74341800  1
  O  O179  1  0.91627674  0.51843772  0.74719009  1
  O  O180  1  0.36183869  0.55514260  0.24902210  1
  O  O181  1  0.85175728  0.53971373  0.24194539  1
  O  O182  1  0.41159938  0.30597051  0.24791634  1
  O  O183  1  0.92350804  0.30893891  0.24198430  1
  O  O184  1  0.22602835  0.15001247  0.24300365  1
  O  O185  1  0.72980464  0.16319184  0.25135108  1
  O  O186  1  0.31568614  0.49402316  0.93091435  1
  O  O187  1  0.82939341  0.52157143  0.92449066  1
  O  O188  1  0.41653962  0.36256310  0.93757561  1
  O  O189  1  0.93679478  0.36002281  0.92260301  1
  O  O190  1  0.24647921  0.15363220  0.93192560  1
  O  O191  1  0.74250082  0.13688980  0.91985622  1
  O  O192  1  0.33026160  0.14193503  0.42346537  1
  O  O193  1  0.81778811  0.13841905  0.42955379  1
  O  O194  1  0.24502920  0.34529135  0.41975366  1
  O  O195  1  0.74845469  0.34249458  0.43103319  1
  O  O196  1  0.43374538  0.51414008  0.42072586  1
  O  O197  1  0.91769080  0.47364271  0.43634718  1
  O  O198  1  0.16887205  0.51430593  0.06338682  1
  O  O199  1  0.65454328  0.48742779  0.07609794  1
  O  O200  1  0.07997310  0.66478118  0.07969011  1
  O  O201  1  0.57257320  0.66173373  0.07113466  1
  O  O202  1  0.25100935  0.85238694  0.07019739  1
  O  O203  1  0.74101552  0.81794353  0.06932049  1
  O  O204  1  0.15293388  0.82460312  0.57710001  1
  O  O205  1  0.66994123  0.82363900  0.56146523  1
  O  O206  1  0.24388251  0.67187515  0.56906071  1
  O  O207  1  0.75056642  0.64651733  0.56905888  1
  O  O208  1  0.07341999  0.48506658  0.57084449  1
  O  O209  1  0.58037625  0.50062957  0.57749373  1
  O  O210  1  0.14197996  0.83576123  0.24675776  1
  O  O211  1  0.64816785  0.84987929  0.25634040  1
  O  O212  1  0.27406348  0.72677081  0.25146103  1
  O  O213  1  0.77307113  0.69914610  0.24341594  1
  O  O214  1  0.07843577  0.46152455  0.24402299  1
  O  O215  1  0.58165258  0.48821908  0.24960487  1
  O  O216  1  0.14745971  0.44543978  0.75652657  1
  O  O217  1  0.63702128  0.45944687  0.74103393  1
  O  O218  1  0.08563044  0.68055212  0.74932731  1
  O  O219  1  0.57909478  0.70221090  0.74626625  1
  O  O220  1  0.26852302  0.84583482  0.74382963  1
  O  O221  1  0.77637771  0.82354807  0.75221462  1
