# generated using pymatgen
data_Na7Zn2In2P5SO24
_symmetry_space_group_name_H-M   'P 1'
_cell_length_a   9.09440890
_cell_length_b   9.10894262
_cell_length_c   22.34020323
_cell_angle_alpha   90.27765731
_cell_angle_beta   89.79087448
_cell_angle_gamma   119.99831417
_symmetry_Int_Tables_number   1
_chemical_formula_structural   Na7Zn2In2P5SO24
_chemical_formula_sum   'Na21 Zn6 In6 P15 S3 O72'
_cell_volume   1602.73616463
_cell_formula_units_Z   3
loop_
 _symmetry_equiv_pos_site_id
 _symmetry_equiv_pos_as_xyz
  1  'x, y, z'
loop_
 _atom_site_type_symbol
 _atom_site_label
 _atom_site_symmetry_multiplicity
 _atom_site_fract_x
 _atom_site_fract_y
 _atom_site_fract_z
 _atom_site_occupancy
  Na  Na0  1  0.63811733  0.99479876  0.25186863  1
  Na  Na1  1  0.00044485  0.62976379  0.25385347  1
  Na  Na2  1  0.63110777  0.63782921  0.74899157  1
  Na  Na3  1  0.00689622  0.36910396  0.75199858  1
  Na  Na4  1  0.36410456  0.99390069  0.75204409  1
  Na  Na5  1  0.29728980  0.33251726  0.58553356  1
  Na  Na6  1  0.03703545  0.70389232  0.58272601  1
  Na  Na7  1  0.66828330  0.96248592  0.58364384  1
  Na  Na8  1  0.29686987  0.96313759  0.08074480  1
  Na  Na9  1  0.66597983  0.70144545  0.08591818  1
  Na  Na10  1  0.03728397  0.33355831  0.08366390  1
  Na  Na11  1  0.97994769  0.66870784  0.91647913  1
  Na  Na12  1  0.32924187  0.29908944  0.91882753  1
  Na  Na13  1  0.96514359  0.30513780  0.41493905  1
  Na  Na14  1  0.70132320  0.67234740  0.41805966  1
  Na  Na15  1  0.00504328  0.99432514  0.50364103  1
  Na  Na16  1  0.99726123  0.00628874  0.00302550  1
  Na  Na17  1  0.66799453  0.31645873  0.83386201  1
  Na  Na18  1  0.65904938  0.32919293  0.33307500  1
  Na  Na19  1  0.33483156  0.64922144  0.16780960  1
  Na  Na20  1  0.33387693  0.66734800  0.66627061  1
  Zn  Zn21  1  0.99958716  0.00052828  0.65324566  1
  Zn  Zn22  1  0.99286105  0.00409078  0.15188701  1
  Zn  Zn23  1  0.32507444  0.66789034  0.01487817  1
  Zn  Zn24  1  0.33429890  0.68149340  0.51438326  1
  Zn  Zn25  1  0.33366493  0.66211407  0.31878157  1
  Zn  Zn26  1  0.32653114  0.67117333  0.81815625  1
  In  In27  1  0.99665563  0.99592552  0.34849197  1
  In  In28  1  0.00038328  0.00548789  0.84822909  1
  In  In29  1  0.66754075  0.33342246  0.68089174  1
  In  In30  1  0.66680411  0.33619849  0.18136517  1
  In  In31  1  0.66746202  0.32227330  0.98451167  1
  In  In32  1  0.66610882  0.32669135  0.48445668  1
  P  P33  1  0.69808133  0.69959476  0.24899298  1
  P  P34  1  0.00406374  0.30090268  0.24938509  1
  P  P35  1  0.29941320  0.30081331  0.74931868  1
  P  P36  1  0.99977428  0.70373555  0.74921268  1
  P  P37  1  0.70179240  0.99781364  0.74812929  1
  P  P38  1  0.97160318  0.33373012  0.58286887  1
  P  P39  1  0.36504734  0.03363963  0.58422348  1
  P  P40  1  0.66511857  0.63359019  0.58205117  1
  P  P41  1  0.96736272  0.63522952  0.08280890  1
  P  P42  1  0.66527878  0.02965515  0.08519489  1
  P  P43  1  0.36696960  0.33387698  0.08164538  1
  P  P44  1  0.04001581  0.37286525  0.91658252  1
  P  P45  1  0.33369492  0.96297664  0.91609236  1
  P  P46  1  0.62587311  0.96087429  0.41536977  1
  P  P47  1  0.03939754  0.66838804  0.41628036  1
  S  S48  1  0.29624159  0.00095789  0.24845538  1
  S  S49  1  0.62842384  0.66804856  0.91728390  1
  S  S50  1  0.33339934  0.37281893  0.41707863  1
  O  O51  1  0.21885049  0.02680055  0.30314167  1
  O  O52  1  0.81053438  0.77507820  0.30639273  1
  O  O53  1  0.97379575  0.19222444  0.30702814  1
  O  O54  1  0.22589966  0.19131364  0.80662776  1
  O  O55  1  0.96606150  0.77874089  0.80709923  1
  O  O56  1  0.81713029  0.03482156  0.80332169  1
  O  O57  1  0.78047376  0.96999802  0.69134367  1
  O  O58  1  0.18806383  0.21755721  0.69417814  1
  O  O59  1  0.02537128  0.81342861  0.69418357  1
  O  O60  1  0.78554024  0.81032387  0.19383052  1
  O  O61  1  0.02422793  0.21630239  0.19316520  1
  O  O62  1  0.19494118  0.98035988  0.19433484  1
  O  O63  1  0.89110070  0.36841043  0.63898033  1
  O  O64  1  0.47521687  0.10879605  0.64151895  1
  O  O65  1  0.63279025  0.52147011  0.63856282  1
  O  O66  1  0.88912332  0.52176337  0.13885389  1
  O  O67  1  0.62925538  0.10595332  0.14226830  1
  O  O68  1  0.48636362  0.36838035  0.13539056  1
  O  O69  1  0.44466918  0.30154505  0.02401091  1
  O  O70  1  0.85161392  0.55415627  0.02691667  1
  O  O71  1  0.70543342  0.15077202  0.03178721  1
  O  O72  1  0.44923637  0.15418865  0.53077166  1
  O  O73  1  0.69603839  0.55032919  0.52598630  1
  O  O74  1  0.85779889  0.29981776  0.52688777  1
  O  O75  1  0.54965289  0.68598122  0.97164183  1
  O  O76  1  0.14769831  0.45268982  0.97293128  1
  O  O77  1  0.30945895  0.85908027  0.97279906  1
  O  O78  1  0.54925025  0.85361478  0.47211087  1
  O  O79  1  0.30802413  0.44692727  0.47273840  1
  O  O80  1  0.13589308  0.68434785  0.47427629  1
  O  O81  1  0.11925828  0.63972297  0.35986354  1
  O  O82  1  0.52681523  0.87854292  0.35804996  1
  O  O83  1  0.35821409  0.47757827  0.36423396  1
  O  O84  1  0.12055229  0.47753356  0.85931540  1
  O  O85  1  0.35501811  0.88307338  0.85848102  1
  O  O86  1  0.52801559  0.64619831  0.86219600  1
  O  O87  1  0.01307139  0.82545589  0.41274773  1
  O  O88  1  0.81142844  0.98395489  0.41330582  1
  O  O89  1  0.17726252  0.20048890  0.41179013  1
  O  O90  1  0.02273754  0.19350361  0.91311948  1
  O  O91  1  0.16645204  0.97700255  0.91344393  1
  O  O92  1  0.80526843  0.81672014  0.91368549  1
  O  O93  1  0.98578808  0.17251465  0.58840122  1
  O  O94  1  0.18744504  0.01530485  0.58912618  1
  O  O95  1  0.82690632  0.80903346  0.58711459  1
  O  O96  1  0.98466430  0.81227450  0.08905393  1
  O  O97  1  0.82581558  0.01275732  0.08965908  1
  O  O98  1  0.19097417  0.17182850  0.08809765  1
  O  O99  1  0.68291761  0.15988067  0.74537675  1
  O  O100  1  0.47967940  0.31861745  0.74536919  1
  O  O101  1  0.83770906  0.52308356  0.74581709  1
  O  O102  1  0.68662813  0.52279611  0.24552086  1
  O  O103  1  0.83420129  0.31037664  0.24707257  1
  O  O104  1  0.47230334  0.15099223  0.24606398  1
  O  O105  1  0.64543230  0.51013321  0.91948341  1
  O  O106  1  0.86306559  0.36344369  0.92025868  1
  O  O107  1  0.48650888  0.14894776  0.91894764  1
  O  O108  1  0.65355737  0.14459851  0.41892506  1
  O  O109  1  0.48976467  0.35692999  0.42044484  1
  O  O110  1  0.85410787  0.50560192  0.41883323  1
  O  O111  1  0.35024506  0.49405931  0.07706212  1
  O  O112  1  0.14383968  0.65067896  0.07742317  1
  O  O113  1  0.50532668  0.85372708  0.07756583  1
  O  O114  1  0.35117399  0.85791350  0.57807224  1
  O  O115  1  0.50377476  0.64866931  0.57690992  1
  O  O116  1  0.14822625  0.49413269  0.57719438  1
  O  O117  1  0.31067536  0.84510279  0.25321058  1
  O  O118  1  0.52507460  0.69057972  0.25547512  1
  O  O119  1  0.15505125  0.48296832  0.25489010  1
  O  O120  1  0.31985960  0.47954680  0.75575356  1
  O  O121  1  0.15885285  0.68386459  0.75385568  1
  O  O122  1  0.52391301  0.83810839  0.75514633  1
