# generated using pymatgen
data_NaZrNbSi(PO6)2
_symmetry_space_group_name_H-M   'P 1'
_cell_length_a   8.92730916
_cell_length_b   8.92223591
_cell_length_c   23.23534071
_cell_angle_alpha   89.98944868
_cell_angle_beta   90.00000000
_cell_angle_gamma   120.01881117
_symmetry_Int_Tables_number   1
_chemical_formula_structural   NaZrNbSi(PO6)2
_chemical_formula_sum   'Na6 Zr6 Nb6 Si6 P12 O72'
_cell_volume   1602.47620914
_cell_formula_units_Z   6
loop_
 _symmetry_equiv_pos_site_id
 _symmetry_equiv_pos_as_xyz
  1  'x, y, z'
loop_
 _atom_site_type_symbol
 _atom_site_label
 _atom_site_symmetry_multiplicity
 _atom_site_fract_x
 _atom_site_fract_y
 _atom_site_fract_z
 _atom_site_occupancy
  Na  Na0  1  0.00207544  0.00294293  0.49899700  1
  Na  Na1  1  0.00086750  0.00294293  0.99899700  1
  Na  Na2  1  0.66880446  0.33586169  0.83239184  1
  Na  Na3  1  0.66705823  0.33586169  0.33239184  1
  Na  Na4  1  0.33394438  0.66564299  0.16558619  1
  Na  Na5  1  0.33169760  0.66564299  0.66558619  1
  Zr  Zr6  1  0.99989845  0.99813667  0.35353957  1
  Zr  Zr7  1  0.99823822  0.99813667  0.85353957  1
  Zr  Zr8  1  0.67406685  0.33706365  0.68693307  1
  Zr  Zr9  1  0.66299780  0.33706365  0.18693307  1
  Zr  Zr10  1  0.33124061  0.65973811  0.02029321  1
  Zr  Zr11  1  0.32849651  0.65973811  0.52029321  1
  Nb  Nb12  1  0.00138675  -0.00005469  0.64604935  1
  Nb  Nb13  1  0.99855856  -0.00005469  0.14604935  1
  Nb  Nb14  1  0.66437927  0.33190790  0.97938847  1
  Nb  Nb15  1  0.66752963  0.33190790  0.47938847  1
  Nb  Nb16  1  0.33867905  0.66304966  0.31266293  1
  Nb  Nb17  1  0.32436960  0.66304966  0.81266293  1
  Si  Si18  1  0.71117771  0.71107789  0.25021393  1
  Si  Si19  1  -0.00009982  0.71107789  0.75021393  1
  Si  Si20  1  0.95663500  0.33149684  0.58336473  1
  Si  Si21  1  0.37486284  0.33149684  0.08336473  1
  Si  Si22  1  0.04029862  0.37478361  0.91734497  1
  Si  Si23  1  0.33448399  0.37478361  0.41734497  1
  P  P24  1  0.28721456  0.99656858  0.24995792  1
  P  P25  1  0.00111581  0.28927014  0.25004149  1
  P  P26  1  0.28815433  0.28927014  0.75004149  1
  P  P27  1  0.70935402  0.99656858  0.74995792  1
  P  P28  1  0.37809521  0.04622719  0.58361212  1
  P  P29  1  0.66867887  0.62284743  0.58335703  1
  P  P30  1  0.95416956  0.62284743  0.08335703  1
  P  P31  1  0.66813298  0.04622719  0.08361212  1
  P  P32  1  0.61991815  0.66458856  0.91644493  1
  P  P33  1  0.33528370  0.95544660  0.91692402  1
  P  P34  1  0.62016190  0.95544660  0.41692402  1
  P  P35  1  0.04466942  0.66458856  0.41644493  1
  O  O36  1  0.20691783  0.02843894  0.30347806  1
  O  O37  1  0.82551178  0.79899661  0.30643916  1
  O  O38  1  0.97537134  0.17979000  0.30364545  1
  O  O39  1  0.20441866  0.17979000  0.80364545  1
  O  O40  1  0.97348482  0.79899661  0.80643916  1
  O  O41  1  0.82152112  0.02843894  0.80347806  1
  O  O42  1  0.80059408  0.97192389  0.69585201  1
  O  O43  1  0.17134425  0.20270502  0.69572734  1
  O  O44  1  0.02988260  0.83587852  0.69318591  1
  O  O45  1  0.80599592  0.83587852  0.19318591  1
  O  O46  1  0.03136077  0.20270502  0.19572734  1
  O  O47  1  0.17132981  0.97192389  0.19585201  1
  O  O48  1  0.86735939  0.36023212  0.63906917  1
  O  O49  1  0.48585398  0.12859031  0.63728482  1
  O  O50  1  0.63796243  0.51210010  0.63696023  1
  O  O51  1  0.87413867  0.51210010  0.13696023  1
  O  O52  1  0.64273732  0.12859031  0.13728482  1
  O  O53  1  0.49287374  0.36023212  0.13906917  1
  O  O54  1  0.47255965  0.30353465  0.02655410  1
  O  O55  1  0.83841514  0.53428522  0.02926138  1
  O  O56  1  0.69737910  0.16247015  0.02899652  1
  O  O57  1  0.46509206  0.16247015  0.52899652  1
  O  O58  1  0.69587108  0.53428522  0.52926138  1
  O  O59  1  0.83097600  0.30353465  0.52655410  1
  O  O60  1  0.54035482  0.69453712  0.97034839  1
  O  O61  1  0.15973589  0.46600250  0.97244080  1
  O  O62  1  0.30859548  0.84749173  0.97057292  1
  O  O63  1  0.53889526  0.84749173  0.47057292  1
  O  O64  1  0.30626561  0.46600250  0.47244080  1
  O  O65  1  0.15418130  0.69453712  0.47034839  1
  O  O66  1  0.13135770  0.63738718  0.36245574  1
  O  O67  1  0.50452909  0.86863784  0.36239674  1
  O  O68  1  0.36302985  0.50254100  0.36010228  1
  O  O69  1  0.13951016  0.50254100  0.86010228  1
  O  O70  1  0.36410775  0.86863784  0.86239674  1
  O  O71  1  0.50602849  0.63738718  0.86245574  1
  O  O72  1  0.02047586  0.82262275  0.40990928  1
  O  O73  1  0.80149597  0.97929929  0.40925192  1
  O  O74  1  0.16725715  0.18595644  0.40978716  1
  O  O75  1  0.01869930  0.18595644  0.90978716  1
  O  O76  1  0.17780332  0.97929929  0.90925192  1
  O  O77  1  0.80214689  0.82262275  0.90990928  1
  O  O78  1  0.97381167  0.15672506  0.59213692  1
  O  O79  1  0.19526954  0.02951074  0.59068738  1
  O  O80  1  0.83452437  0.80493926  0.59088913  1
  O  O81  1  0.97041489  0.80493926  0.09088913  1
  O  O82  1  0.83424120  0.02951074  0.09068738  1
  O  O83  1  0.18291339  0.15672506  0.09213692  1
  O  O84  1  0.68483458  0.15384890  0.74265394  1
  O  O85  1  0.46725856  0.30996483  0.74238848  1
  O  O86  1  0.83353601  0.52006770  0.74409684  1
  O  O87  1  0.68653270  0.52006770  0.24409684  1
  O  O88  1  0.84270727  0.30996483  0.24238848  1
  O  O89  1  0.46901532  0.15384890  0.24265394  1
  O  O90  1  0.63827853  0.49979878  0.92459462  1
  O  O91  1  0.84967701  0.36035663  0.92541993  1
  O  O92  1  0.50104188  0.13846865  0.92382342  1
  O  O93  1  0.63742776  0.13846865  0.42382342  1
  O  O94  1  0.51068061  0.36035663  0.42541993  1
  O  O95  1  0.86152125  0.49979878  0.42459462  1
  O  O96  1  0.35434460  0.50061941  0.07747404  1
  O  O97  1  0.13651468  0.64950195  0.07601654  1
  O  O98  1  0.51030954  0.86645618  0.07562834  1
  O  O99  1  0.35614563  0.86645618  0.57562834  1
  O  O100  1  0.51298627  0.64950195  0.57601654  1
  O  O101  1  0.14627381  0.50061941  0.57747404  1
  O  O102  1  0.30203568  0.83145197  0.25746024  1
  O  O103  1  0.51774334  0.69559885  0.25825765  1
  O  O104  1  0.16561140  0.47267397  0.25765038  1
  O  O105  1  0.30706158  0.47267397  0.75765038  1
  O  O106  1  0.17785450  0.69559885  0.75825765  1
  O  O107  1  0.52941530  0.83145197  0.75746024  1
