# generated using pymatgen
data_Ca4GeN4
_symmetry_space_group_name_H-M   'P 1'
_cell_length_a   6.04092888
_cell_length_b   9.25799049
_cell_length_c   11.13477694
_cell_angle_alpha   63.64062201
_cell_angle_beta   90.00000000
_cell_angle_gamma   90.00000000
_symmetry_Int_Tables_number   1
_chemical_formula_structural   Ca4GeN4
_chemical_formula_sum   'Ca16 Ge4 N16'
_cell_volume   557.98556314
_cell_formula_units_Z   4
loop_
 _symmetry_equiv_pos_site_id
 _symmetry_equiv_pos_as_xyz
  1  'x, y, z'
loop_
 _atom_site_type_symbol
 _atom_site_label
 _atom_site_symmetry_multiplicity
 _atom_site_fract_x
 _atom_site_fract_y
 _atom_site_fract_z
 _atom_site_occupancy
  Ca  Ca0  1  0.58383106  0.65530866  0.84537174  1
  Ca  Ca1  1  0.08383106  0.34469134  0.65462826  1
  Ca  Ca2  1  0.41616894  0.34469134  0.15462826  1
  Ca  Ca3  1  0.91616894  0.65530866  0.34537174  1
  Ca  Ca4  1  0.07688882  0.45264243  0.87907435  1
  Ca  Ca5  1  0.57688882  0.54735757  0.62092565  1
  Ca  Ca6  1  0.84435871  0.14653834  0.22987976  1
  Ca  Ca7  1  0.34435871  0.85346166  0.27012024  1
  Ca  Ca8  1  0.15564129  0.85346166  0.77012024  1
  Ca  Ca9  1  0.65564129  0.14653834  0.72987976  1
  Ca  Ca10  1  0.25575791  0.07777937  0.45598795  1
  Ca  Ca11  1  0.75575791  0.92222063  0.04401205  1
  Ca  Ca12  1  0.74424209  0.92222063  0.54401205  1
  Ca  Ca13  1  0.24424209  0.07777937  0.95598795  1
  Ca  Ca14  1  0.92311118  0.54735757  0.12092565  1
  Ca  Ca15  1  0.42311118  0.45264243  0.37907435  1
  Ge  Ge16  1  0.85918030  0.26950534  0.44717274  1
  Ge  Ge17  1  0.35918030  0.73049466  0.05282726  1
  Ge  Ge18  1  0.14081970  0.73049466  0.55282726  1
  Ge  Ge19  1  0.64081970  0.26950534  0.94717274  1
  N  N20  1  0.74681709  0.41122069  0.01422422  1
  N  N21  1  0.24681709  0.58877931  0.48577578  1
  N  N22  1  0.25318291  0.58877931  0.98577578  1
  N  N23  1  0.75318291  0.41122069  0.51422422  1
  N  N24  1  0.91538666  0.66428999  0.68620679  1
  N  N25  1  0.41538666  0.33571001  0.81379321  1
  N  N26  1  0.61207931  0.19777034  0.38350193  1
  N  N27  1  0.11207931  0.80222966  0.11649807  1
  N  N28  1  0.38792069  0.80222966  0.61649807  1
  N  N29  1  0.88792069  0.19777034  0.88350193  1
  N  N30  1  0.51939363  0.09642448  0.10942030  1
  N  N31  1  0.01939363  0.90357552  0.39057970  1
  N  N32  1  0.48060637  0.90357552  0.89057970  1
  N  N33  1  0.98060637  0.09642448  0.60942030  1
  N  N34  1  0.08461334  0.33571001  0.31379321  1
  N  N35  1  0.58461334  0.66428999  0.18620679  1
