# generated using pymatgen
data_NaYNb(PO4)3
_symmetry_space_group_name_H-M   'P 1'
_cell_length_a   9.01239501
_cell_length_b   9.01239471
_cell_length_c   23.19790772
_cell_angle_alpha   90.00000000
_cell_angle_beta   90.00000000
_cell_angle_gamma   120.00000113
_symmetry_Int_Tables_number   1
_chemical_formula_structural   NaYNb(PO4)3
_chemical_formula_sum   'Na6 Y6 Nb6 P18 O72'
_cell_volume   1631.77346176
_cell_formula_units_Z   6
loop_
 _symmetry_equiv_pos_site_id
 _symmetry_equiv_pos_as_xyz
  1  'x, y, z'
loop_
 _atom_site_type_symbol
 _atom_site_label
 _atom_site_symmetry_multiplicity
 _atom_site_fract_x
 _atom_site_fract_y
 _atom_site_fract_z
 _atom_site_occupancy
  Na  Na0  1  0.00000000  0.00000000  0.49713202  1
  Na  Na1  1  0.00000000  0.00000000  0.99713202  1
  Na  Na2  1  0.66666700  0.33333300  0.83046502  1
  Na  Na3  1  0.66666700  0.33333300  0.33046502  1
  Na  Na4  1  0.33333300  0.66666700  0.16379902  1
  Na  Na5  1  0.33333300  0.66666700  0.66379902  1
  Y  Y6  1  0.00000000  0.00000000  0.35482272  1
  Y  Y7  1  0.00000000  0.00000000  0.85482272  1
  Y  Y8  1  0.66666700  0.33333300  0.68815572  1
  Y  Y9  1  0.66666700  0.33333300  0.18815572  1
  Y  Y10  1  0.33333300  0.66666700  0.02148972  1
  Y  Y11  1  0.33333300  0.66666700  0.52148972  1
  Nb  Nb12  1  0.00000000  0.00000000  0.64784996  1
  Nb  Nb13  1  0.00000000  0.00000000  0.14784996  1
  Nb  Nb14  1  0.66666700  0.33333300  0.98118296  1
  Nb  Nb15  1  0.66666700  0.33333300  0.48118296  1
  Nb  Nb16  1  0.33333300  0.66666700  0.31451696  1
  Nb  Nb17  1  0.33333300  0.66666700  0.81451696  1
  P  P18  1  0.28453966  0.98424503  0.25067666  1
  P  P19  1  0.69970537  0.71546034  0.25067666  1
  P  P20  1  0.01575497  0.30029463  0.25067666  1
  P  P21  1  0.28453966  0.30029463  0.75067666  1
  P  P22  1  0.01575497  0.71546034  0.75067666  1
  P  P23  1  0.69970537  0.98424503  0.75067666  1
  P  P24  1  0.95120666  0.31757803  0.58400966  1
  P  P25  1  0.36637237  0.04879334  0.58400966  1
  P  P26  1  0.68242197  0.63362763  0.58400966  1
  P  P27  1  0.95120666  0.63362763  0.08400966  1
  P  P28  1  0.68242197  0.04879334  0.08400966  1
  P  P29  1  0.36637237  0.31757803  0.08400966  1
  P  P30  1  0.61787266  0.65091203  0.91734366  1
  P  P31  1  0.03303837  0.38212734  0.91734366  1
  P  P32  1  0.34908797  0.96696163  0.91734366  1
  P  P33  1  0.61787266  0.96696163  0.41734366  1
  P  P34  1  0.34908797  0.38212734  0.41734366  1
  P  P35  1  0.03303837  0.65091203  0.41734366  1
  O  O36  1  0.20446082  0.00798409  0.30386084  1
  O  O37  1  0.80352327  0.79553918  0.30386084  1
  O  O38  1  0.99201591  0.19647673  0.30386084  1
  O  O39  1  0.20446082  0.19647673  0.80386084  1
  O  O40  1  0.99201591  0.79553918  0.80386084  1
  O  O41  1  0.80352327  0.00798409  0.80386084  1
  O  O42  1  0.79939891  0.96716758  0.69583973  1
  O  O43  1  0.16776866  0.20060109  0.69583973  1
  O  O44  1  0.03283242  0.83223134  0.69583973  1
  O  O45  1  0.79939891  0.83223134  0.19583973  1
  O  O46  1  0.03283242  0.20060109  0.19583973  1
  O  O47  1  0.16776866  0.96716758  0.19583973  1
  O  O48  1  0.87112782  0.34131709  0.63719384  1
  O  O49  1  0.47019027  0.12887218  0.63719384  1
  O  O50  1  0.65868291  0.52980973  0.63719384  1
  O  O51  1  0.87112782  0.52980973  0.13719384  1
  O  O52  1  0.65868291  0.12887218  0.13719384  1
  O  O53  1  0.47019027  0.34131709  0.13719384  1
  O  O54  1  0.46606591  0.30050058  0.02917273  1
  O  O55  1  0.83443566  0.53393409  0.02917273  1
  O  O56  1  0.69949942  0.16556434  0.02917273  1
  O  O57  1  0.46606591  0.16556434  0.52917273  1
  O  O58  1  0.69949942  0.53393409  0.52917273  1
  O  O59  1  0.83443566  0.30050058  0.52917273  1
  O  O60  1  0.53779382  0.67465109  0.97052784  1
  O  O61  1  0.13685627  0.46220618  0.97052784  1
  O  O62  1  0.32534891  0.86314373  0.97052784  1
  O  O63  1  0.53779382  0.86314373  0.47052784  1
  O  O64  1  0.32534891  0.46220618  0.47052784  1
  O  O65  1  0.13685627  0.67465109  0.47052784  1
  O  O66  1  0.13273191  0.63383458  0.36250673  1
  O  O67  1  0.50110166  0.86726809  0.36250673  1
  O  O68  1  0.36616542  0.49889834  0.36250673  1
  O  O69  1  0.13273191  0.49889834  0.86250673  1
  O  O70  1  0.36616542  0.86726809  0.86250673  1
  O  O71  1  0.50110166  0.63383458  0.86250673  1
  O  O72  1  0.99710083  0.79734408  0.41054181  1
  O  O73  1  0.80024324  0.00289917  0.41054181  1
  O  O74  1  0.20265592  0.19975676  0.41054181  1
  O  O75  1  0.99710083  0.19975676  0.91054181  1
  O  O76  1  0.20265592  0.00289917  0.91054181  1
  O  O77  1  0.80024324  0.79734408  0.91054181  1
  O  O78  1  0.95390643  0.14418252  0.58914606  1
  O  O79  1  0.19027609  0.04609357  0.58914606  1
  O  O80  1  0.85581748  0.80972391  0.58914606  1
  O  O81  1  0.95390643  0.80972391  0.08914606  1
  O  O82  1  0.85581748  0.04609357  0.08914606  1
  O  O83  1  0.19027609  0.14418252  0.08914606  1
  O  O84  1  0.66376783  0.13067708  0.74387481  1
  O  O85  1  0.46691024  0.33623217  0.74387481  1
  O  O86  1  0.86932292  0.53308976  0.74387481  1
  O  O87  1  0.66376783  0.53308976  0.24387481  1
  O  O88  1  0.86932292  0.33623217  0.24387481  1
  O  O89  1  0.46691024  0.13067708  0.24387481  1
  O  O90  1  0.62057343  0.47751552  0.92247906  1
  O  O91  1  0.85694309  0.37942657  0.92247906  1
  O  O92  1  0.52248448  0.14305691  0.92247906  1
  O  O93  1  0.62057343  0.14305691  0.42247906  1
  O  O94  1  0.52248448  0.37942657  0.42247906  1
  O  O95  1  0.85694309  0.47751552  0.42247906  1
  O  O96  1  0.33043383  0.46401108  0.07720881  1
  O  O97  1  0.13357624  0.66956617  0.07720881  1
  O  O98  1  0.53598892  0.86642376  0.07720881  1
  O  O99  1  0.33043383  0.86642376  0.57720881  1
  O  O100  1  0.53598892  0.66956617  0.57720881  1
  O  O101  1  0.13357624  0.46401108  0.57720881  1
  O  O102  1  0.28723943  0.81084952  0.25581306  1
  O  O103  1  0.52360909  0.71276057  0.25581306  1
  O  O104  1  0.18915048  0.47639091  0.25581306  1
  O  O105  1  0.28723943  0.47639091  0.75581306  1
  O  O106  1  0.18915048  0.71276057  0.75581306  1
  O  O107  1  0.52360909  0.81084952  0.75581306  1
