# generated using pymatgen
data_Na10Zn3Si6Ge5(SO8)6
_symmetry_space_group_name_H-M   'P 1'
_cell_length_a   17.55003785
_cell_length_b   8.82185133
_cell_length_c   21.99984599
_cell_angle_alpha   89.63430776
_cell_angle_beta   89.06118612
_cell_angle_gamma   119.78811977
_symmetry_Int_Tables_number   1
_chemical_formula_structural   Na10Zn3Si6Ge5(SO8)6
_chemical_formula_sum   'Na30 Zn9 Si18 Ge15 S18 O144'
_cell_volume   2955.23634772
_cell_formula_units_Z   3
loop_
 _symmetry_equiv_pos_site_id
 _symmetry_equiv_pos_as_xyz
  1  'x, y, z'
loop_
 _atom_site_type_symbol
 _atom_site_label
 _atom_site_symmetry_multiplicity
 _atom_site_fract_x
 _atom_site_fract_y
 _atom_site_fract_z
 _atom_site_occupancy
  Na  Na0  1  0.31870255  0.00496315  0.24620691  1
  Na  Na1  1  0.19229897  0.37076591  0.24645587  1
  Na  Na2  1  0.68937829  0.37118354  0.24510672  1
  Na  Na3  1  0.99763896  0.63175505  0.24947493  1
  Na  Na4  1  0.31475264  0.62053414  0.75332932  1
  Na  Na5  1  0.81613431  0.62195665  0.74992870  1
  Na  Na6  1  0.99346335  0.36358147  0.75008392  1
  Na  Na7  1  0.49547202  0.37616943  0.74350155  1
  Na  Na8  1  0.18635604  0.01012367  0.74974161  1
  Na  Na9  1  0.68858896  0.01337901  0.75105571  1
  Na  Na10  1  0.64942064  0.34351622  0.57787399  1
  Na  Na11  1  0.32513667  0.68909648  0.07935632  1
  Na  Na12  1  0.82672524  0.69064941  0.08520847  1
  Na  Na13  1  0.16366166  0.30890473  0.92140080  1
  Na  Na14  1  0.99283573  0.30629218  0.41944303  1
  Na  Na15  1  0.16424409  0.02727381  0.41973822  1
  Na  Na16  1  0.66344727  0.02566038  0.41460741  1
  Na  Na17  1  0.84546370  0.66922897  0.41897032  1
  Na  Na18  1  0.00166684  0.00296312  0.50208820  1
  Na  Na19  1  0.49160501  0.00164442  0.49685863  1
  Na  Na20  1  0.00235397  0.01167937  0.99949879  1
  Na  Na21  1  0.50179031  0.01879310  0.99629955  1
  Na  Na22  1  0.34057252  0.34676957  0.83466266  1
  Na  Na23  1  0.83434867  0.33397606  0.83257810  1
  Na  Na24  1  0.34162689  0.35981958  0.32941013  1
  Na  Na25  1  0.83179168  0.32902663  0.32979890  1
  Na  Na26  1  0.16561850  0.66174512  0.15990232  1
  Na  Na27  1  0.66143956  0.66582690  0.16164162  1
  Na  Na28  1  0.16412677  0.66311521  0.66084453  1
  Na  Na29  1  0.66038526  0.66650806  0.66060242  1
  Zn  Zn30  1  0.49938032  0.00265989  0.35129863  1
  Zn  Zn31  1  0.33805826  0.35268627  0.68462728  1
  Zn  Zn32  1  0.83604533  0.33765337  0.69193666  1
  Zn  Zn33  1  0.32888329  0.34017911  0.18644223  1
  Zn  Zn34  1  0.83120286  0.33846233  0.18212510  1
  Zn  Zn35  1  0.16409277  0.63702396  0.01174207  1
  Zn  Zn36  1  0.65744709  0.63591035  0.01510776  1
  Zn  Zn37  1  0.15954771  0.65147316  0.51256321  1
  Zn  Zn38  1  0.66394363  0.65363224  0.51529115  1
  Si  Si39  1  0.14471188  0.99207954  0.25333457  1
  Si  Si40  1  0.35941430  0.71475781  0.25277079  1
  Si  Si41  1  0.85761930  0.72269631  0.25054383  1
  Si  Si42  1  0.14333048  0.28945595  0.75048416  1
  Si  Si43  1  0.64105698  0.28707623  0.75220493  1
  Si  Si44  1  0.00550923  0.72203978  0.75461756  1
  Si  Si45  1  0.50080216  0.72587928  0.75058414  1
  Si  Si46  1  0.85429660  0.99119260  0.75155903  1
  Si  Si47  1  0.47693196  0.33147068  0.58626924  1
  Si  Si48  1  0.18330638  0.32504546  0.08516836  1
  Si  Si49  1  0.68429865  0.32792753  0.08630672  1
  Si  Si50  1  0.31577799  0.67780307  0.91682630  1
  Si  Si51  1  0.01049171  0.35766922  0.91834585  1
  Si  Si52  1  0.51773015  0.36762135  0.91625070  1
  Si  Si53  1  0.81310259  0.95779211  0.41824551  1
  Si  Si54  1  0.17066144  0.37613308  0.41699401  1
  Si  Si55  1  0.66110609  0.36594928  0.41865704  1
  Si  Si56  1  0.02495287  0.67001588  0.41740448  1
  Ge  Ge57  1  0.00198210  0.99250674  0.35547237  1
  Ge  Ge58  1  0.99757350  0.00892885  0.84828574  1
  Ge  Ge59  1  0.50103946  0.99938340  0.85581534  1
  Ge  Ge60  1  0.00340179  0.00197822  0.65792652  1
  Ge  Ge61  1  0.50402762  0.01864380  0.64987885  1
  Ge  Ge62  1  0.00894700  0.99204656  0.14942151  1
  Ge  Ge63  1  0.49921082  0.00604250  0.14608879  1
  Ge  Ge64  1  0.33602509  0.35177016  0.97807992  1
  Ge  Ge65  1  0.82783237  0.31769403  0.98226931  1
  Ge  Ge66  1  0.33596252  0.33988857  0.48471253  1
  Ge  Ge67  1  0.83433437  0.33479488  0.47427569  1
  Ge  Ge68  1  0.17358322  0.66981785  0.31658153  1
  Ge  Ge69  1  0.68215728  0.68291609  0.31865725  1
  Ge  Ge70  1  0.15283678  0.63464290  0.81898571  1
  Ge  Ge71  1  0.65556467  0.65671235  0.80870386  1
  S  S72  1  0.64540731  0.98780179  0.25046307  1
  S  S73  1  0.99920772  0.28393328  0.24958223  1
  S  S74  1  0.50414271  0.30091636  0.24998827  1
  S  S75  1  0.35463159  0.99425800  0.75111304  1
  S  S76  1  0.97780196  0.32477122  0.58413822  1
  S  S77  1  0.18296674  0.03934092  0.58572010  1
  S  S78  1  0.68822884  0.04301223  0.58360369  1
  S  S79  1  0.33396313  0.63316363  0.58314191  1
  S  S80  1  0.84057557  0.63281956  0.58426288  1
  S  S81  1  0.48007167  0.62930379  0.08440927  1
  S  S82  1  0.98066815  0.62705217  0.08307852  1
  S  S83  1  0.33549874  0.04847379  0.08491996  1
  S  S84  1  0.83520356  0.04453670  0.08386832  1
  S  S85  1  0.81519521  0.66737137  0.91663338  1
  S  S86  1  0.16493228  0.95255492  0.91619236  1
  S  S87  1  0.66765659  0.95791178  0.91716731  1
  S  S88  1  0.31372439  0.96293513  0.41897977  1
  S  S89  1  0.51960949  0.65700528  0.41653863  1
  O  O90  1  0.09880354  0.03569723  0.31078826  1
  O  O91  1  0.61025184  0.02272705  0.30641401  1
  O  O92  1  0.41326869  0.81129241  0.30999325  1
  O  O93  1  0.91806090  0.81510243  0.30939092  1
  O  O94  1  0.48973549  0.19662280  0.30510433  1
  O  O95  1  0.98725379  0.18572289  0.30723825  1
  O  O96  1  0.10145965  0.16719913  0.81141069  1
  O  O97  1  0.59490569  0.15209811  0.80849511  1
  O  O98  1  0.48279259  0.81529644  0.80858643  1
  O  O99  1  0.98452924  0.81367660  0.81134575  1
  O  O100  1  0.41039468  0.02730607  0.80405712  1
  O  O101  1  0.91958580  0.04139350  0.80824853  1
  O  O102  1  0.39403092  0.96123007  0.69465467  1
  O  O103  1  0.89689687  0.94062543  0.69177542  1
  O  O104  1  0.07576961  0.20711728  0.69270078  1
  O  O105  1  0.58104607  0.21414400  0.68998247  1
  O  O106  1  0.03101035  0.85121941  0.69320704  1
  O  O107  1  0.51909232  0.85235597  0.68850732  1
  O  O108  1  0.40233230  0.84911502  0.18834610  1
  O  O109  1  0.90215255  0.84046716  0.18680529  1
  O  O110  1  0.01493526  0.20011933  0.19596891  1
  O  O111  1  0.52495104  0.21979473  0.19530675  1
  O  O112  1  0.07894126  0.94480214  0.19471493  1
  O  O113  1  0.59081477  0.96732126  0.19632957  1
  O  O114  1  0.43395717  0.34435707  0.64883971  1
  O  O115  1  0.93363830  0.34089164  0.63872693  1
  O  O116  1  0.23283785  0.12397810  0.63990529  1
  O  O117  1  0.73742325  0.12576421  0.63818492  1
  O  O118  1  0.31793325  0.53055284  0.63967190  1
  O  O119  1  0.82778424  0.52167674  0.63799572  1
  O  O120  1  0.44099538  0.52140895  0.13861442  1
  O  O121  1  0.94484028  0.52950473  0.14109234  1
  O  O122  1  0.33033196  0.12757531  0.14218584  1
  O  O123  1  0.82628334  0.12790169  0.13844322  1
  O  O124  1  0.23925803  0.35722963  0.14476299  1
  O  O125  1  0.74003331  0.36368723  0.14708621  1
  O  O126  1  0.23409891  0.29808264  0.02172256  1
  O  O127  1  0.73513576  0.29456199  0.02512839  1
  O  O128  1  0.42353583  0.55092506  0.02891592  1
  O  O129  1  0.92055958  0.53903243  0.03138694  1
  O  O130  1  0.35027149  0.16024830  0.03030688  1
  O  O131  1  0.85160298  0.15811319  0.02710441  1
  O  O132  1  0.22436433  0.14897613  0.52775402  1
  O  O133  1  0.73112919  0.16062065  0.52667159  1
  O  O134  1  0.34793577  0.54344672  0.52824168  1
  O  O135  1  0.85059916  0.54787671  0.52619555  1
  O  O136  1  0.41185582  0.29857321  0.52560997  1
  O  O137  1  0.92561789  0.30407485  0.52659639  1
  O  O138  1  0.28018449  0.71272347  0.97863716  1
  O  O139  1  0.77777379  0.69682811  0.97226527  1
  O  O140  1  0.07670146  0.43474524  0.97203291  1
  O  O141  1  0.57490930  0.43985570  0.97417217  1
  O  O142  1  0.15358559  0.84885842  0.97026112  1
  O  O143  1  0.65915644  0.85509508  0.97086791  1
  O  O144  1  0.27109428  0.85717890  0.47282651  1
  O  O145  1  0.77415471  0.82872600  0.47463732  1
  O  O146  1  0.14138976  0.44400183  0.47408143  1
  O  O147  1  0.64889613  0.44043979  0.48056870  1
  O  O148  1  0.08716828  0.72807055  0.47363112  1
  O  O149  1  0.57283383  0.68775394  0.47024989  1
  O  O150  1  0.06711952  0.61974442  0.35741056  1
  O  O151  1  0.56140997  0.62860873  0.36022737  1
  O  O152  1  0.25751890  0.88560301  0.36208697  1
  O  O153  1  0.74623509  0.88138729  0.35911560  1
  O  O154  1  0.18838875  0.49697448  0.35385973  1
  O  O155  1  0.68688551  0.50355937  0.35760122  1
  O  O156  1  0.05034497  0.47720524  0.85430616  1
  O  O157  1  0.56032326  0.50015815  0.85374790  1
  O  O158  1  0.17809439  0.87121627  0.85909150  1
  O  O159  1  0.68236272  0.88321194  0.85943019  1
  O  O160  1  0.24527292  0.63051978  0.85704309  1
  O  O161  1  0.76171064  0.64233896  0.86142046  1
  O  O162  1  0.00490452  0.83222504  0.40823805  1
  O  O163  1  0.50802545  0.80974857  0.40975854  1
  O  O164  1  0.40167998  0.98918888  0.41173747  1
  O  O165  1  0.91347936  0.99283296  0.40587801  1
  O  O166  1  0.08341173  0.17723518  0.40710065  1
  O  O167  1  0.58499866  0.16799373  0.40914816  1
  O  O168  1  0.00563292  0.16349447  0.90896278  1
  O  O169  1  0.50644346  0.17368265  0.90352497  1
  O  O170  1  0.08619275  0.97703862  0.91127745  1
  O  O171  1  0.58829782  0.97755775  0.91234892  1
  O  O172  1  0.41479457  0.84262322  0.90704814  1
  O  O173  1  0.90507745  0.82378541  0.90990647  1
  O  O174  1  0.48726996  0.14338347  0.58907713  1
  O  O175  1  0.98371877  0.15995260  0.58631744  1
  O  O176  1  0.09302300  0.02890115  0.58777806  1
  O  O177  1  0.59993843  0.03519532  0.58490629  1
  O  O178  1  0.41691226  0.80394248  0.58567552  1
  O  O179  1  0.92315745  0.80525320  0.58625814  1
  O  O180  1  0.48055375  0.80270240  0.08866981  1
  O  O181  1  0.97989122  0.80045791  0.08631187  1
  O  O182  1  0.41766999  0.02512325  0.08561035  1
  O  O183  1  0.91442012  0.02205170  0.08467280  1
  O  O184  1  0.08367906  0.13866142  0.09153881  1
  O  O185  1  0.58547398  0.14157011  0.09228113  1
  O  O186  1  0.34149607  0.14558500  0.74590747  1
  O  O187  1  0.84091543  0.15692928  0.74505840  1
  O  O188  1  0.23915645  0.30968843  0.74400779  1
  O  O189  1  0.73824945  0.31369172  0.74670455  1
  O  O190  1  0.41849004  0.53056261  0.74918851  1
  O  O191  1  0.92237188  0.52980257  0.74869484  1
  O  O192  1  0.34346228  0.52138499  0.24650218  1
  O  O193  1  0.84681050  0.52782394  0.24936079  1
  O  O194  1  0.42564851  0.31479728  0.24052259  1
  O  O195  1  0.92278528  0.30956078  0.24413200  1
  O  O196  1  0.24238757  0.15492593  0.25014643  1
  O  O197  1  0.73548648  0.13880536  0.24335092  1
  O  O198  1  0.31830132  0.48922995  0.92078432  1
  O  O199  1  0.82336575  0.50503474  0.92159691  1
  O  O200  1  0.41641091  0.34571097  0.92553445  1
  O  O201  1  0.91294797  0.34578956  0.92736123  1
  O  O202  1  0.24398257  0.13294791  0.91642014  1
  O  O203  1  0.74792957  0.13921591  0.91943807  1
  O  O204  1  0.31752791  0.13871592  0.42133065  1
  O  O205  1  0.82392009  0.15528744  0.42522211  1
  O  O206  1  0.25875802  0.34856211  0.42758372  1
  O  O207  1  0.75767492  0.35832816  0.42256762  1
  O  O208  1  0.43007357  0.49292263  0.42173186  1
  O  O209  1  0.92674051  0.49019071  0.42474355  1
  O  O210  1  0.17351415  0.49686899  0.07964520  1
  O  O211  1  0.67841158  0.50411114  0.07945162  1
  O  O212  1  0.06975577  0.66185402  0.07392484  1
  O  O213  1  0.57006747  0.66551473  0.07584459  1
  O  O214  1  0.25835891  0.87377791  0.08061639  1
  O  O215  1  0.75721265  0.87141056  0.07703841  1
  O  O216  1  0.17355217  0.86595494  0.57996447  1
  O  O217  1  0.67789664  0.87073342  0.57587445  1
  O  O218  1  0.25803583  0.65819371  0.57511098  1
  O  O219  1  0.76232114  0.65221799  0.58135000  1
  O  O220  1  0.06522536  0.48095544  0.57996072  1
  O  O221  1  0.57548742  0.49631747  0.58068031  1
  O  O222  1  0.14925437  0.80901396  0.26113401  1
  O  O223  1  0.64762949  0.81906065  0.25501987  1
  O  O224  1  0.25681759  0.69935386  0.25529359  1
  O  O225  1  0.75676390  0.69893030  0.25618859  1
  O  O226  1  0.08061466  0.46070986  0.25147274  1
  O  O227  1  0.58512500  0.47689662  0.25326084  1
  O  O228  1  0.15255302  0.48604526  0.75655008  1
  O  O229  1  0.64973292  0.48290317  0.75756420  1
  O  O230  1  0.09685553  0.70783205  0.76098476  1
  O  O231  1  0.59278523  0.71400555  0.75438790  1
  O  O232  1  0.26729737  0.83344850  0.75604544  1
  O  O233  1  0.75725981  0.81260141  0.76163717  1
