# generated using pymatgen
data_Na2Sc2Nb6Si7S5O48
_symmetry_space_group_name_H-M   'P 1'
_cell_length_a   17.79190859
_cell_length_b   8.92330149
_cell_length_c   23.07691834
_cell_angle_alpha   90.01648568
_cell_angle_beta   89.97711416
_cell_angle_gamma   120.08934180
_symmetry_Int_Tables_number   1
_chemical_formula_structural   Na2Sc2Nb6Si7S5O48
_chemical_formula_sum   'Na6 Sc6 Nb18 Si21 S15 O144'
_cell_volume   3170.04062533
_cell_formula_units_Z   3
loop_
 _symmetry_equiv_pos_site_id
 _symmetry_equiv_pos_as_xyz
  1  'x, y, z'
loop_
 _atom_site_type_symbol
 _atom_site_label
 _atom_site_symmetry_multiplicity
 _atom_site_fract_x
 _atom_site_fract_y
 _atom_site_fract_z
 _atom_site_occupancy
  Na  Na0  1  0.99831779  0.00077700  0.49729503  1
  Na  Na1  1  0.49881602  0.00196407  0.99425572  1
  Na  Na2  1  0.33496169  0.32921646  0.83246820  1
  Na  Na3  1  0.82924668  0.33412877  0.83364427  1
  Na  Na4  1  0.33004100  0.32509529  0.33766902  1
  Na  Na5  1  0.83395682  0.34081199  0.33701841  1
  Sc  Sc6  1  0.99973963  0.98203249  0.35563273  1
  Sc  Sc7  1  0.49998096  0.01795139  0.85416141  1
  Sc  Sc8  1  0.99673935  0.01530843  0.64783539  1
  Sc  Sc9  1  0.49820061  0.98838025  0.15169440  1
  Sc  Sc10  1  0.83350427  0.32951309  0.97992580  1
  Sc  Sc11  1  0.33277808  0.33632313  0.47980627  1
  Nb  Nb12  1  0.50053477  0.99413239  0.35883142  1
  Nb  Nb13  1  0.00029329  0.00496149  0.85635559  1
  Nb  Nb14  1  0.49910456  0.00557151  0.64271203  1
  Nb  Nb15  1  0.99812115  0.99272180  0.14317686  1
  Nb  Nb16  1  0.32664200  0.33638301  0.68924951  1
  Nb  Nb17  1  0.83153592  0.31226237  0.68750257  1
  Nb  Nb18  1  0.32782191  0.34108507  0.19051929  1
  Nb  Nb19  1  0.82741636  0.31654332  0.19070382  1
  Nb  Nb20  1  0.32798412  0.33121889  0.97306596  1
  Nb  Nb21  1  0.83307848  0.32166967  0.47544991  1
  Nb  Nb22  1  0.17143273  0.67247066  0.02136273  1
  Nb  Nb23  1  0.67369788  0.66997057  0.01971296  1
  Nb  Nb24  1  0.16797118  0.66922001  0.52343028  1
  Nb  Nb25  1  0.67343632  0.66994885  0.52212240  1
  Nb  Nb26  1  0.16875437  0.68643440  0.31165839  1
  Nb  Nb27  1  0.67809538  0.67673771  0.30948841  1
  Nb  Nb28  1  0.17755028  0.67879486  0.80805461  1
  Nb  Nb29  1  0.66764802  0.64912602  0.80948611  1
  Si  Si30  1  0.14043541  0.99910164  0.25038796  1
  Si  Si31  1  0.63906498  0.99126447  0.25098096  1
  Si  Si32  1  0.35560748  0.71711486  0.25121543  1
  Si  Si33  1  0.85965293  0.71161629  0.24912292  1
  Si  Si34  1  0.13992801  0.28622195  0.75046086  1
  Si  Si35  1  0.64423213  0.28069120  0.74970787  1
  Si  Si36  1  0.36044563  0.00930516  0.74879208  1
  Si  Si37  1  0.85533961  0.99622440  0.75081772  1
  Si  Si38  1  0.97776881  0.33212316  0.58247820  1
  Si  Si39  1  0.68793889  0.04317093  0.58147071  1
  Si  Si40  1  0.33429164  0.62251526  0.58111274  1
  Si  Si41  1  0.83316365  0.04571585  0.08172701  1
  Si  Si42  1  0.18816339  0.33274194  0.08233977  1
  Si  Si43  1  0.31396365  0.67516327  0.91590990  1
  Si  Si44  1  0.81263017  0.66177056  0.91538899  1
  Si  Si45  1  0.52487202  0.38092008  0.91779932  1
  Si  Si46  1  0.16305224  0.94563547  0.91617583  1
  Si  Si47  1  0.31111032  0.96099692  0.41814805  1
  Si  Si48  1  0.81418327  0.95462555  0.41627183  1
  Si  Si49  1  0.66623934  0.38109821  0.41678393  1
  Si  Si50  1  0.02415229  0.66806615  0.41781148  1
  S  S51  1  0.00099141  0.28785733  0.24980348  1
  S  S52  1  0.50014898  0.28921826  0.25036458  1
  S  S53  1  0.00005523  0.71182247  0.75060089  1
  S  S54  1  0.50051410  0.71304060  0.74986037  1
  S  S55  1  0.47724790  0.33548930  0.58326650  1
  S  S56  1  0.18816915  0.04412767  0.58315345  1
  S  S57  1  0.83487807  0.61918092  0.58271783  1
  S  S58  1  0.47734239  0.62023738  0.08205560  1
  S  S59  1  0.97718995  0.61930055  0.08341630  1
  S  S60  1  0.33487607  0.04899083  0.08248096  1
  S  S61  1  0.68770136  0.33166913  0.08312116  1
  S  S62  1  0.02406611  0.38259103  0.91605896  1
  S  S63  1  0.66662497  0.95258754  0.91662951  1
  S  S64  1  0.16659933  0.38122476  0.41657465  1
  S  S65  1  0.52405269  0.66443621  0.41623420  1
  O  O66  1  0.10741481  0.04832429  0.30683260  1
  O  O67  1  0.59799969  0.03248935  0.30760275  1
  O  O68  1  0.41940233  0.80677635  0.30673807  1
  O  O69  1  0.91394190  0.78861453  0.30660079  1
  O  O70  1  0.48285880  0.17829656  0.30194935  1
  O  O71  1  0.98089475  0.18194565  0.30128845  1
  O  O72  1  0.09884563  0.16551104  0.80828854  1
  O  O73  1  0.60666754  0.16783053  0.80705084  1
  O  O74  1  0.48113868  0.77997368  0.80195173  1
  O  O75  1  0.98544884  0.79363938  0.80306420  1
  O  O76  1  0.41272663  0.03805264  0.80744800  1
  O  O77  1  0.91889910  0.03006542  0.80727093  1
  O  O78  1  0.40277104  0.97267315  0.69201610  1
  O  O79  1  0.89406355  0.96019691  0.69404428  1
  O  O80  1  0.08812536  0.20430264  0.69260179  1
  O  O81  1  0.58256215  0.19000456  0.69313458  1
  O  O82  1  0.01574827  0.81533955  0.69838945  1
  O  O83  1  0.51309414  0.81721713  0.69740742  1
  O  O84  1  0.39492939  0.82612345  0.19294851  1
  O  O85  1  0.90312777  0.83272781  0.19181931  1
  O  O86  1  0.01262264  0.20725562  0.19677850  1
  O  O87  1  0.51493551  0.21451991  0.19761850  1
  O  O88  1  0.08272122  0.97503600  0.19250273  1
  O  O89  1  0.58806366  0.97176909  0.19204270  1
  O  O90  1  0.43640747  0.35999226  0.63553282  1
  O  O91  1  0.93073896  0.36505730  0.63955738  1
  O  O92  1  0.24404981  0.12883992  0.63616929  1
  O  O93  1  0.75052884  0.13433207  0.63931457  1
  O  O94  1  0.32080110  0.49672270  0.63897998  1
  O  O95  1  0.81795112  0.51343523  0.63524665  1
  O  O96  1  0.43728523  0.51283261  0.13509916  1
  O  O97  1  0.93674711  0.51291962  0.13540230  1
  O  O98  1  0.32076217  0.12690267  0.13487706  1
  O  O99  1  0.81999049  0.14367971  0.13914057  1
  O  O100  1  0.25260655  0.36559328  0.13923379  1
  O  O101  1  0.74271353  0.36015809  0.13580374  1
  O  O102  1  0.23912862  0.30670703  0.02798066  1
  O  O103  1  0.72860042  0.30707026  0.03132866  1
  O  O104  1  0.42128112  0.53395875  0.03084998  1
  O  O105  1  0.92407430  0.54634087  0.03108869  1
  O  O106  1  0.34616614  0.15376676  0.03015266  1
  O  O107  1  0.84884306  0.16586259  0.02671238  1
  O  O108  1  0.22920915  0.15179434  0.53163973  1
  O  O109  1  0.73526011  0.16891013  0.52674196  1
  O  O110  1  0.35042178  0.53140700  0.52687419  1
  O  O111  1  0.84508670  0.53886809  0.52996713  1
  O  O112  1  0.42395700  0.30182589  0.53105193  1
  O  O113  1  0.91385040  0.31015054  0.52723985  1
  O  O114  1  0.26001089  0.68983603  0.97312193  1
  O  O115  1  0.76567559  0.69562815  0.97302618  1
  O  O116  1  0.07694520  0.46169958  0.96971380  1
  O  O117  1  0.58527294  0.48540017  0.97469453  1
  O  O118  1  0.15163987  0.82961840  0.97440056  1
  O  O119  1  0.65599998  0.84507968  0.97039113  1
  O  O120  1  0.26505121  0.83439412  0.47342795  1
  O  O121  1  0.76037036  0.83030725  0.47288644  1
  O  O122  1  0.15540387  0.46368571  0.46984076  1
  O  O123  1  0.65096372  0.47381421  0.47388389  1
  O  O124  1  0.08614786  0.68844400  0.47328310  1
  O  O125  1  0.57647173  0.69260466  0.46929252  1
  O  O126  1  0.06864600  0.63264477  0.35996602  1
  O  O127  1  0.56344343  0.63962239  0.36389633  1
  O  O128  1  0.24937241  0.86052248  0.36033987  1
  O  O129  1  0.75023974  0.86173296  0.36005965  1
  O  O130  1  0.18037753  0.48796760  0.36418015  1
  O  O131  1  0.67789335  0.50274163  0.36039087  1
  O  O132  1  0.06353648  0.48822033  0.86453583  1
  O  O133  1  0.56751810  0.50478380  0.86090590  1
  O  O134  1  0.17933873  0.85517142  0.86050287  1
  O  O135  1  0.68033827  0.87350560  0.86488788  1
  O  O136  1  0.24978308  0.63602240  0.86046425  1
  O  O137  1  0.74822602  0.63767185  0.86061596  1
  O  O138  1  0.01633024  0.83880622  0.41450971  1
  O  O139  1  0.51575322  0.82343056  0.41002832  1
  O  O140  1  0.40475641  0.97339623  0.40331125  1
  O  O141  1  0.90868408  0.98148123  0.41312080  1
  O  O142  1  0.08873133  0.20966451  0.41183794  1
  O  O143  1  0.58110412  0.19122759  0.40451076  1
  O  O144  1  0.01613822  0.20846335  0.91031135  1
  O  O145  1  0.51560737  0.19367246  0.91552313  1
  O  O146  1  0.08115722  0.97304906  0.90569013  1
  O  O147  1  0.58836124  0.96690846  0.91356617  1
  O  O148  1  0.40909185  0.83546901  0.91382776  1
  O  O149  1  0.90529773  0.83714465  0.90441705  1
  O  O150  1  0.48818273  0.18109257  0.59129674  1
  O  O151  1  0.98657316  0.16170196  0.58584568  1
  O  O152  1  0.10133604  0.01982878  0.59075194  1
  O  O153  1  0.59403754  0.02158695  0.59594879  1
  O  O154  1  0.41762431  0.81047308  0.59723689  1
  O  O155  1  0.91055949  0.79385675  0.58835084  1
  O  O156  1  0.48549081  0.79328917  0.08750595  1
  O  O157  1  0.98836298  0.79569314  0.09135229  1
  O  O158  1  0.41082729  0.02574159  0.08784185  1
  O  O159  1  0.91608730  0.02194312  0.09676248  1
  O  O160  1  0.09460882  0.16625154  0.09537071  1
  O  O161  1  0.60022582  0.18108432  0.09014053  1
  O  O162  1  0.34489693  0.17342527  0.73575376  1
  O  O163  1  0.84731491  0.17434823  0.74454701  1
  O  O164  1  0.24045026  0.31314259  0.74298075  1
  O  O165  1  0.74442394  0.32330701  0.73714985  1
  O  O166  1  0.42219358  0.53063438  0.74039813  1
  O  O167  1  0.92093380  0.53674682  0.74493342  1
  O  O168  1  0.34840927  0.52134384  0.24200343  1
  O  O169  1  0.84470625  0.51682486  0.23477886  1
  O  O170  1  0.42099477  0.30792486  0.24146542  1
  O  O171  1  0.92203933  0.31297673  0.23974694  1
  O  O172  1  0.24232711  0.16448064  0.23650166  1
  O  O173  1  0.73939775  0.16652348  0.24210168  1
  O  O174  1  0.31787709  0.49465500  0.92593300  1
  O  O175  1  0.82169578  0.49354044  0.92316858  1
  O  O176  1  0.42805183  0.36194629  0.92953621  1
  O  O177  1  0.93624718  0.35986672  0.92303241  1
  O  O178  1  0.25072377  0.13827250  0.92594940  1
  O  O179  1  0.74512983  0.12686834  0.92386851  1
  O  O180  1  0.32250773  0.15097064  0.42230739  1
  O  O181  1  0.81609340  0.13960703  0.42291066  1
  O  O182  1  0.24545913  0.36376195  0.42264636  1
  O  O183  1  0.75175703  0.36348424  0.42570218  1
  O  O184  1  0.43591003  0.51270127  0.42214894  1
  O  O185  1  0.92729368  0.49482373  0.42604958  1
  O  O186  1  0.17710197  0.50201103  0.07107207  1
  O  O187  1  0.68122063  0.49207122  0.07627648  1
  O  O188  1  0.06476505  0.63943729  0.07531166  1
  O  O189  1  0.56423417  0.63935148  0.07456367  1
  O  O190  1  0.25441537  0.87231804  0.07508558  1
  O  O191  1  0.74629730  0.85432464  0.07277499  1
  O  O192  1  0.18350460  0.87389250  0.57761866  1
  O  O193  1  0.67619261  0.85063468  0.57052010  1
  O  O194  1  0.24888592  0.64159075  0.57280868  1
  O  O195  1  0.75428973  0.63800057  0.57503876  1
  O  O196  1  0.07228413  0.50518726  0.57122561  1
  O  O197  1  0.56455837  0.49003414  0.57560568  1
  O  O198  1  0.15369484  0.83046055  0.25761700  1
  O  O199  1  0.65234027  0.82718525  0.26347785  1
  O  O200  1  0.25733858  0.67453191  0.26432729  1
  O  O201  1  0.76137463  0.68613769  0.25730174  1
  O  O202  1  0.07715522  0.46194950  0.25616845  1
  O  O203  1  0.57528109  0.46364395  0.25986928  1
  O  O204  1  0.15292094  0.47716163  0.76417895  1
  O  O205  1  0.65289496  0.47460184  0.75806835  1
  O  O206  1  0.07611781  0.68846614  0.76160579  1
  O  O207  1  0.57721173  0.69205749  0.75721075  1
  O  O208  1  0.26184792  0.83694910  0.75769994  1
  O  O209  1  0.75741427  0.83835571  0.76561633  1
