# generated using pymatgen
data_Na2BeO2
_symmetry_space_group_name_H-M   'P 1'
_cell_length_a   5.27412822
_cell_length_b   7.81511391
_cell_length_c   12.77134519
_cell_angle_alpha   61.57182797
_cell_angle_beta   90.00000000
_cell_angle_gamma   90.00000000
_symmetry_Int_Tables_number   1
_chemical_formula_structural   Na2BeO2
_chemical_formula_sum   'Na16 Be8 O16'
_cell_volume   462.93105263
_cell_formula_units_Z   8
loop_
 _symmetry_equiv_pos_site_id
 _symmetry_equiv_pos_as_xyz
  1  'x, y, z'
loop_
 _atom_site_type_symbol
 _atom_site_label
 _atom_site_symmetry_multiplicity
 _atom_site_fract_x
 _atom_site_fract_y
 _atom_site_fract_z
 _atom_site_occupancy
  Na  Na0  1  0.44447037  0.92515884  0.62457310  1
  Na  Na1  1  0.94447037  0.07484116  0.87542690  1
  Na  Na2  1  0.16928477  0.35425845  0.96703026  1
  Na  Na3  1  0.66928477  0.64574155  0.53296974  1
  Na  Na4  1  0.33071523  0.35425845  0.46703026  1
  Na  Na5  1  0.83071523  0.64574155  0.03296974  1
  Na  Na6  1  0.38462401  0.57852818  0.16802140  1
  Na  Na7  1  0.88462401  0.42147182  0.33197860  1
  Na  Na8  1  0.11537599  0.57852818  0.66802140  1
  Na  Na9  1  0.61537599  0.42147182  0.83197860  1
  Na  Na10  1  0.55552963  0.07484116  0.37542690  1
  Na  Na11  1  0.05552963  0.92515884  0.12457310  1
  Na  Na12  1  0.94049560  0.82509769  0.76430519  1
  Na  Na13  1  0.44049560  0.17490231  0.73569481  1
  Na  Na14  1  0.05950440  0.17490231  0.23569481  1
  Na  Na15  1  0.55950440  0.82509769  0.26430519  1
  Be  Be16  1  0.37796796  0.73935751  0.87656977  1
  Be  Be17  1  0.87796796  0.26064249  0.62343023  1
  Be  Be18  1  0.12203204  0.73935751  0.37656977  1
  Be  Be19  1  0.62203204  0.26064249  0.12343023  1
  Be  Be20  1  0.45712470  0.90944709  0.96104515  1
  Be  Be21  1  0.95712470  0.09055291  0.53895485  1
  Be  Be22  1  0.54287530  0.09055291  0.03895485  1
  Be  Be23  1  0.04287530  0.90944709  0.46104515  1
  O  O24  1  0.77572553  0.24809716  0.02145831  1
  O  O25  1  0.27572553  0.75190284  0.47854169  1
  O  O26  1  0.72427447  0.24809716  0.52145831  1
  O  O27  1  0.22427447  0.75190284  0.97854169  1
  O  O28  1  0.11341698  0.12671760  0.64231308  1
  O  O29  1  0.61341698  0.87328240  0.85768692  1
  O  O30  1  0.38658302  0.12671760  0.14231308  1
  O  O31  1  0.88658302  0.87328240  0.35768692  1
  O  O32  1  0.30318328  0.63749929  0.80542638  1
  O  O33  1  0.80318328  0.36250071  0.69457362  1
  O  O34  1  0.69681672  0.36250071  0.19457362  1
  O  O35  1  0.19681672  0.63749929  0.30542638  1
  O  O36  1  0.13478227  0.13123761  0.42346550  1
  O  O37  1  0.63478227  0.86876239  0.07653450  1
  O  O38  1  0.86521773  0.86876239  0.57653450  1
  O  O39  1  0.36521773  0.13123761  0.92346550  1
