# generated using pymatgen
data_Na2Ta5Al3Si6(SO8)6
_symmetry_space_group_name_H-M   'P 1'
_cell_length_a   17.48215456
_cell_length_b   8.71196200
_cell_length_c   22.55345592
_cell_angle_alpha   89.88728862
_cell_angle_beta   90.08401614
_cell_angle_gamma   120.19188340
_symmetry_Int_Tables_number   1
_chemical_formula_structural   Na2Ta5Al3Si6(SO8)6
_chemical_formula_sum   'Na6 Ta15 Al9 Si18 S18 O144'
_cell_volume   2969.00393622
_cell_formula_units_Z   3
loop_
 _symmetry_equiv_pos_site_id
 _symmetry_equiv_pos_as_xyz
  1  'x, y, z'
loop_
 _atom_site_type_symbol
 _atom_site_label
 _atom_site_symmetry_multiplicity
 _atom_site_fract_x
 _atom_site_fract_y
 _atom_site_fract_z
 _atom_site_occupancy
  Na  Na0  1  0.99505313  0.98332828  0.49764649  1
  Na  Na1  1  0.50151845  0.99902569  0.99828726  1
  Na  Na2  1  0.33401270  0.31991881  0.84042412  1
  Na  Na3  1  0.83207042  0.33759108  0.83979193  1
  Na  Na4  1  0.32647933  0.32412798  0.33815844  1
  Na  Na5  1  0.83712443  0.34262053  0.34454730  1
  Ta  Ta6  1  0.49461400  0.99455030  0.36231542  1
  Ta  Ta7  1  0.00566389  0.00552690  0.86425848  1
  Ta  Ta8  1  0.49903841  0.00154879  0.63949525  1
  Ta  Ta9  1  -0.00016605  0.01075157  0.14538987  1
  Ta  Ta10  1  0.32800902  0.33489988  0.69174022  1
  Ta  Ta11  1  0.82570267  0.32723643  0.68448362  1
  Ta  Ta12  1  0.33985147  0.34449946  0.19146161  1
  Ta  Ta13  1  0.83315738  0.31940948  0.18994169  1
  Ta  Ta14  1  0.16509120  0.66578026  0.02061525  1
  Ta  Ta15  1  0.66481014  0.66022924  0.02479757  1
  Ta  Ta16  1  0.16710962  0.67334305  0.52113519  1
  Ta  Ta17  1  0.67417542  0.66393946  0.52484044  1
  Ta  Ta18  1  0.16395392  0.67932056  0.30766773  1
  Ta  Ta19  1  0.16650253  0.67171131  0.80814916  1
  Ta  Ta20  1  0.66488269  0.64754387  0.81310880  1
  Al  Al21  1  0.00746118  0.00146969  0.35391660  1
  Al  Al22  1  0.50540750  0.03757395  0.85256022  1
  Al  Al23  1  0.99551195  0.00595481  0.64596417  1
  Al  Al24  1  0.49375788  0.97494539  0.14400499  1
  Al  Al25  1  0.34426272  0.34195191  0.97561742  1
  Al  Al26  1  0.83607331  0.32779766  0.97385608  1
  Al  Al27  1  0.33137977  0.33345687  0.47982019  1
  Al  Al28  1  0.82854194  0.36687846  0.47729864  1
  Al  Al29  1  0.67214977  0.66679973  0.31703529  1
  Si  Si30  1  0.14054401  0.00529909  0.25089346  1
  Si  Si31  1  0.36003162  0.72627127  0.24863133  1
  Si  Si32  1  0.99921462  0.27591157  0.25820999  1
  Si  Si33  1  0.13358622  0.27477487  0.74685935  1
  Si  Si34  1  0.64128630  0.27642789  0.75152901  1
  Si  Si35  1  0.36234124  0.00268706  0.75158912  1
  Si  Si36  1  0.69325727  0.05527342  0.57502173  1
  Si  Si37  1  0.33180873  0.61070161  0.57748367  1
  Si  Si38  1  0.84630596  0.63788610  0.58220692  1
  Si  Si39  1  0.47236574  0.62574783  0.07840399  1
  Si  Si40  1  0.83395744  0.05150398  0.07652647  1
  Si  Si41  1  0.80865570  0.65168440  0.92060841  1
  Si  Si42  1  0.01793789  0.38363179  0.91654199  1
  Si  Si43  1  0.51774275  0.36541618  0.91846324  1
  Si  Si44  1  0.17699788  0.97077443  0.91818205  1
  Si  Si45  1  0.30695047  0.97001656  0.41834765  1
  Si  Si46  1  0.67243227  0.38841429  0.41299418  1
  Si  Si47  1  0.01492399  0.66430473  0.41630781  1
  S  S48  1  0.64056800  0.98870987  0.25083636  1
  S  S49  1  0.85229642  0.71427641  0.25183555  1
  S  S50  1  0.50747187  0.29204454  0.24915909  1
  S  S51  1  0.99887478  0.71591453  0.74812064  1
  S  S52  1  0.50149961  0.72094139  0.75231745  1
  S  S53  1  0.85850520  0.00197812  0.74969277  1
  S  S54  1  0.47325424  0.33442868  0.58086571  1
  S  S55  1  0.97543928  0.32645788  0.58234271  1
  S  S56  1  0.18803123  0.04923791  0.58279280  1
  S  S57  1  0.97455408  0.61764263  0.08164435  1
  S  S58  1  0.33767246  0.04970215  0.08291549  1
  S  S59  1  0.19291807  0.33291248  0.08184532  1
  S  S60  1  0.68671518  0.32369381  0.08413872  1
  S  S61  1  0.31305538  0.66677677  0.91632928  1
  S  S62  1  0.66363856  0.95474638  0.91619328  1
  S  S63  1  0.81081216  0.95448116  0.41381763  1
  S  S64  1  0.16653752  0.37407462  0.41735492  1
  S  S65  1  0.52390122  0.65984278  0.41515588  1
  O  O66  1  0.09909943  0.04141468  0.30809970  1
  O  O67  1  0.60522962  0.03041678  0.30359740  1
  O  O68  1  0.42363439  0.80858651  0.30692875  1
  O  O69  1  0.90901046  0.78631757  0.30390177  1
  O  O70  1  0.48837732  0.17664519  0.30230320  1
  O  O71  1  0.97657854  0.14379774  0.31239893  1
  O  O72  1  0.09340723  0.15324739  0.80635717  1
  O  O73  1  0.60211088  0.16088094  0.81017678  1
  O  O74  1  0.48328492  0.79265286  0.80502273  1
  O  O75  1  0.98261527  0.78815159  0.80271717  1
  O  O76  1  0.41885060  0.03041828  0.81027858  1
  O  O77  1  0.91198637  0.02603031  0.80307265  1
  O  O78  1  0.40365415  0.97155841  0.69109123  1
  O  O79  1  0.89569327  0.97060003  0.69593115  1
  O  O80  1  0.07792858  0.18059991  0.68894962  1
  O  O81  1  0.58386255  0.19141504  0.69182393  1
  O  O82  1  0.01042770  0.82156104  0.69530200  1
  O  O83  1  0.51314045  0.82116763  0.69687035  1
  O  O84  1  0.40599369  0.84566855  0.19153678  1
  O  O85  1  0.89383039  0.81989214  0.19633455  1
  O  O86  1  0.00853011  0.18861127  0.19473911  1
  O  O87  1  0.51975174  0.21232776  0.19547413  1
  O  O88  1  0.08140924  0.97260570  0.19038159  1
  O  O89  1  0.59041878  0.96935322  0.19630148  1
  O  O90  1  0.43430283  0.35814335  0.63545300  1
  O  O91  1  0.93699045  0.35825802  0.63760213  1
  O  O92  1  0.24455578  0.12759935  0.63701609  1
  O  O93  1  0.75065177  0.13234148  0.63899554  1
  O  O94  1  0.32080164  0.49349732  0.63833210  1
  O  O95  1  0.82365486  0.50458376  0.64030549  1
  O  O96  1  0.42817374  0.49884591  0.13843147  1
  O  O97  1  0.93422671  0.50968167  0.13691312  1
  O  O98  1  0.31855854  0.12254636  0.13658698  1
  O  O99  1  0.82159684  0.14527376  0.13897290  1
  O  O100  1  0.24498104  0.35754338  0.13666689  1
  O  O101  1  0.74410271  0.35657904  0.13795435  1
  O  O102  1  0.23023674  0.30282356  0.02898676  1
  O  O103  1  0.72634855  0.29630382  0.03118603  1
  O  O104  1  0.40679516  0.52226447  0.02442673  1
  O  O105  1  0.92201658  0.53877179  0.02926071  1
  O  O106  1  0.34744473  0.15484280  0.02958968  1
  O  O107  1  0.84781539  0.18457466  0.02430250  1
  O  O108  1  0.23090997  0.15590441  0.52967631  1
  O  O109  1  0.74667782  0.18283469  0.52195614  1
  O  O110  1  0.34705401  0.51452650  0.52241542  1
  O  O111  1  0.85868782  0.54825529  0.52505089  1
  O  O112  1  0.41908658  0.30462958  0.52809764  1
  O  O113  1  0.92158004  0.29725684  0.53018858  1
  O  O114  1  0.26959956  0.69559254  0.97098093  1
  O  O115  1  0.76469674  0.69770150  0.97582307  1
  O  O116  1  0.08359372  0.47323608  0.97567298  1
  O  O117  1  0.58393450  0.47006852  0.97394804  1
  O  O118  1  0.15846994  0.83625879  0.97594719  1
  O  O119  1  0.65149626  0.84461624  0.96984239  1
  O  O120  1  0.26525751  0.84008854  0.47640541  1
  O  O121  1  0.76605255  0.83832672  0.46821554  1
  O  O122  1  0.15342456  0.46027189  0.47104365  1
  O  O123  1  0.65182670  0.47338707  0.47223256  1
  O  O124  1  0.08242484  0.69597277  0.47424384  1
  O  O125  1  0.57631012  0.68998159  0.46901809  1
  O  O126  1  0.06823480  0.63982675  0.35980206  1
  O  O127  1  0.56631051  0.64107838  0.36092996  1
  O  O128  1  0.24926673  0.87377633  0.35983952  1
  O  O129  1  0.75296648  0.86804914  0.36088631  1
  O  O130  1  0.18300338  0.48454421  0.36426743  1
  O  O131  1  0.68279903  0.50822352  0.35617284  1
  O  O132  1  0.07063029  0.50906228  0.86055335  1
  O  O133  1  0.56699627  0.49500695  0.85891238  1
  O  O134  1  0.18807593  0.87095257  0.86084448  1
  O  O135  1  0.68058012  0.87578398  0.86249191  1
  O  O136  1  0.25664029  0.64038980  0.86376374  1
  O  O137  1  0.74775465  0.63004790  0.86061003  1
  O  O138  1  0.00720509  0.84238580  0.40751307  1
  O  O139  1  0.51627860  0.82492260  0.40877146  1
  O  O140  1  0.40447502  0.98388260  0.40856601  1
  O  O141  1  0.89616416  0.96026091  0.40972504  1
  O  O142  1  0.08486499  0.19783289  0.41294999  1
  O  O143  1  0.58376359  0.19155251  0.40231430  1
  O  O144  1  0.01223800  0.19177811  0.90942585  1
  O  O145  1  0.51272156  0.17556483  0.91341524  1
  O  O146  1  0.08349543  0.96797059  0.91059558  1
  O  O147  1  0.58216302  0.96385158  0.90946669  1
  O  O148  1  0.40117811  0.82343348  0.91143183  1
  O  O149  1  0.90314827  0.82377671  0.90295123  1
  O  O150  1  0.48490589  0.17681867  0.58684463  1
  O  O151  1  0.98687864  0.16978762  0.59157844  1
  O  O152  1  0.10038721  0.02914069  0.59008121  1
  O  O153  1  0.59716166  0.03187141  0.59231675  1
  O  O154  1  0.41784512  0.80544717  0.59111253  1
  O  O155  1  0.92785289  0.83305281  0.59525345  1
  O  O156  1  0.48888698  0.82496003  0.08870756  1
  O  O157  1  0.98669144  0.79599827  0.09076115  1
  O  O158  1  0.41844226  0.03651207  0.09044256  1
  O  O159  1  0.91848544  0.02503723  0.09120999  1
  O  O160  1  0.10147853  0.17653793  0.08997680  1
  O  O161  1  0.59732383  0.16952816  0.09463129  1
  O  O162  1  0.35011594  0.17701697  0.74002123  1
  O  O163  1  0.85307255  0.16790904  0.74390712  1
  O  O164  1  0.23601399  0.30377640  0.74213869  1
  O  O165  1  0.74372001  0.31015390  0.74431634  1
  O  O166  1  0.42286830  0.53408833  0.74389837  1
  O  O167  1  0.92287248  0.53045467  0.74257274  1
  O  O168  1  0.34977051  0.52471491  0.24198422  1
  O  O169  1  0.84029136  0.53129667  0.24073406  1
  O  O170  1  0.42225235  0.30145631  0.24317885  1
  O  O171  1  0.91321418  0.30897000  0.24347658  1
  O  O172  1  0.24135259  0.17217834  0.23885708  1
  O  O173  1  0.73262822  0.15772849  0.24299762  1
  O  O174  1  0.31559595  0.50190036  0.92406601  1
  O  O175  1  0.81479193  0.47644020  0.93023804  1
  O  O176  1  0.42465923  0.35949301  0.92294677  1
  O  O177  1  0.92207063  0.35975310  0.92289891  1
  O  O178  1  0.25673379  0.16480018  0.93147952  1
  O  O179  1  0.74310214  0.13315074  0.92366010  1
  O  O180  1  0.32194615  0.16567835  0.42907583  1
  O  O181  1  0.81911772  0.12759363  0.42113916  1
  O  O182  1  0.24553102  0.35415177  0.42561789  1
  O  O183  1  0.75405538  0.35670944  0.42053774  1
  O  O184  1  0.43377718  0.50479638  0.42006032  1
  O  O185  1  0.92359556  0.47990020  0.42600286  1
  O  O186  1  0.18374933  0.49443231  0.07672443  1
  O  O187  1  0.68028628  0.48798183  0.07910102  1
  O  O188  1  0.06498717  0.63490740  0.07717125  1
  O  O189  1  0.56889567  0.64036543  0.07118986  1
  O  O190  1  0.25880459  0.86478058  0.07565060  1
  O  O191  1  0.74679518  0.85781820  0.07359824  1
  O  O192  1  0.18000935  0.86989712  0.57785377  1
  O  O193  1  0.67539103  0.85292637  0.56830611  1
  O  O194  1  0.24361747  0.62888698  0.57132490  1
  O  O195  1  0.75443331  0.64850644  0.57469005  1
  O  O196  1  0.06521107  0.48832087  0.57611390  1
  O  O197  1  0.56267723  0.49503383  0.57493688  1
  O  O198  1  0.15197155  0.83157816  0.25468210  1
  O  O199  1  0.65455165  0.83761796  0.26058638  1
  O  O200  1  0.26208696  0.68856395  0.26261607  1
  O  O201  1  0.76514202  0.70000021  0.25846551  1
  O  O202  1  0.08450420  0.47002849  0.26141327  1
  O  O203  1  0.58088452  0.47293584  0.25923644  1
  O  O204  1  0.15110194  0.47421486  0.76018965  1
  O  O205  1  0.65428775  0.47822389  0.75755251  1
  O  O206  1  0.08046566  0.70195004  0.75510231  1
  O  O207  1  0.58125330  0.70316884  0.75846488  1
  O  O208  1  0.26204711  0.83323518  0.75968719  1
  O  O209  1  0.76728514  0.84957412  0.75793232  1
