# generated using pymatgen
data_MgV2(OF3)2
_symmetry_space_group_name_H-M   'P 1'
_cell_length_a   5.78541656
_cell_length_b   5.78541682
_cell_length_c   5.13990604
_cell_angle_alpha   90.01550931
_cell_angle_beta   89.98449857
_cell_angle_gamma   114.98273804
_symmetry_Int_Tables_number   1
_chemical_formula_structural   MgV2(OF3)2
_chemical_formula_sum   'Mg1 V2 O2 F6'
_cell_volume   155.94129875
_cell_formula_units_Z   1
loop_
 _symmetry_equiv_pos_site_id
 _symmetry_equiv_pos_as_xyz
  1  'x, y, z'
loop_
 _atom_site_type_symbol
 _atom_site_label
 _atom_site_symmetry_multiplicity
 _atom_site_fract_x
 _atom_site_fract_y
 _atom_site_fract_z
 _atom_site_occupancy
  Mg  Mg0  1  0.10661900  0.10661900  0.75000000  1
  V  V1  1  0.36944700  0.36944700  0.25000000  1
  V  V2  1  0.61374300  0.61374300  0.75000000  1
  O  O3  1  0.30422900  0.49044100  0.93631800  1
  O  O4  1  0.49044100  0.30422900  0.56368200  1
  F  F5  1  0.25484000  0.04715200  0.07994600  1
  F  F6  1  0.49150000  0.71264500  0.43017500  1
  F  F7  1  0.74272000  0.96059500  0.86607900  1
  F  F8  1  0.71264500  0.49150000  0.06982500  1
  F  F9  1  0.96059500  0.74272000  0.63392100  1
  F  F10  1  0.04715200  0.25484000  0.42005400  1
