# generated using pymatgen
data_Na3ZrZn(PO4)3
_symmetry_space_group_name_H-M   'P 1'
_cell_length_a   15.71708199
_cell_length_b   9.10676079
_cell_length_c   8.95335169
_cell_angle_alpha   90.00000000
_cell_angle_beta   124.68215718
_cell_angle_gamma   90.00000000
_symmetry_Int_Tables_number   1
_chemical_formula_structural   Na3ZrZn(PO4)3
_chemical_formula_sum   'Na12 Zr4 Zn4 P12 O48'
_cell_volume   1053.81171705
_cell_formula_units_Z   4
loop_
 _symmetry_equiv_pos_site_id
 _symmetry_equiv_pos_as_xyz
  1  'x, y, z'
loop_
 _atom_site_type_symbol
 _atom_site_label
 _atom_site_symmetry_multiplicity
 _atom_site_fract_x
 _atom_site_fract_y
 _atom_site_fract_z
 _atom_site_occupancy
  Na  Na0  1  0.25057788  0.72299343  0.97972069  1
  Na  Na1  1  0.75057788  0.77700657  0.47972069  1
  Na  Na2  1  0.75057788  0.22299343  0.97972069  1
  Na  Na3  1  0.25057788  0.27700657  0.47972069  1
  Na  Na4  1  0.50271496  0.11341209  0.74473014  1
  Na  Na5  1  0.50271496  0.88658791  0.24473014  1
  Na  Na6  1  0.00271496  0.61341209  0.74473014  1
  Na  Na7  1  0.00271496  0.38658791  0.24473014  1
  Na  Na8  1  0.18513080  0.94418397  0.28787080  1
  Na  Na9  1  0.18513080  0.05581603  0.78787080  1
  Na  Na10  1  0.68513080  0.44418397  0.28787080  1
  Na  Na11  1  0.68513080  0.55581603  0.78787080  1
  Zr  Zr12  1  0.89408160  0.75861901  0.94121224  1
  Zr  Zr13  1  0.89408160  0.24138099  0.44121224  1
  Zr  Zr14  1  0.39408160  0.25861901  0.94121224  1
  Zr  Zr15  1  0.39408160  0.74138099  0.44121224  1
  Zn  Zn16  1  0.09699794  0.75108227  0.54772608  1
  Zn  Zn17  1  0.09699794  0.24891773  0.04772608  1
  Zn  Zn18  1  0.59699794  0.25108227  0.54772608  1
  Zn  Zn19  1  0.59699794  0.74891773  0.04772608  1
  P  P20  1  0.00453769  0.94952863  0.76280084  1
  P  P21  1  0.00453769  0.05047137  0.26280084  1
  P  P22  1  0.50453769  0.44952863  0.76280084  1
  P  P23  1  0.50453769  0.55047137  0.26280084  1
  P  P24  1  0.35157438  0.89851244  0.76222297  1
  P  P25  1  0.64392274  0.89503530  0.74529503  1
  P  P26  1  0.64392274  0.10496470  0.24529503  1
  P  P27  1  0.35157438  0.10148756  0.26222297  1
  P  P28  1  0.85157438  0.39851244  0.76222297  1
  P  P29  1  0.14392274  0.39503530  0.74529503  1
  P  P30  1  0.14392274  0.60496470  0.24529503  1
  P  P31  1  0.85157438  0.60148756  0.26222297  1
  O  O32  1  0.15112896  0.56216047  0.73996750  1
  O  O33  1  0.84627950  0.57295599  0.75503921  1
  O  O34  1  0.84627950  0.42704401  0.25503921  1
  O  O35  1  0.15112896  0.43783953  0.23996750  1
  O  O36  1  0.65112896  0.06216047  0.73996750  1
  O  O37  1  0.34627950  0.07295599  0.75503921  1
  O  O38  1  0.34627950  0.92704401  0.25503921  1
  O  O39  1  0.65112896  0.93783953  0.23996750  1
  O  O40  1  0.44620300  0.55662093  0.59629254  1
  O  O41  1  0.56884582  0.53768239  0.93850902  1
  O  O42  1  0.56884582  0.46231761  0.43850902  1
  O  O43  1  0.44620300  0.44337907  0.09629254  1
  O  O44  1  0.94620300  0.05662093  0.59629254  1
  O  O45  1  0.06884582  0.03768239  0.93850902  1
  O  O46  1  0.06884582  0.96231761  0.43850902  1
  O  O47  1  0.94620300  0.94337907  0.09629254  1
  O  O48  1  0.25626262  0.84188209  0.75136724  1
  O  O49  1  0.73531159  0.81735357  0.74895001  1
  O  O50  1  0.73531159  0.18264643  0.24895001  1
  O  O51  1  0.25626262  0.15811791  0.25136724  1
  O  O52  1  0.75626262  0.34188209  0.75136724  1
  O  O53  1  0.23531159  0.31735357  0.74895001  1
  O  O54  1  0.23531159  0.68264643  0.24895001  1
  O  O55  1  0.75626262  0.65811791  0.25136724  1
  O  O56  1  0.34998311  0.85621347  0.58889267  1
  O  O57  1  0.64557451  0.84445075  0.90907261  1
  O  O58  1  0.64557451  0.15554925  0.40907261  1
  O  O59  1  0.34998311  0.14378653  0.08889267  1
  O  O60  1  0.84998311  0.35621347  0.58889267  1
  O  O61  1  0.14557451  0.34445075  0.90907261  1
  O  O62  1  0.14557451  0.65554925  0.40907261  1
  O  O63  1  0.84998311  0.64378653  0.08889267  1
  O  O64  1  0.45256086  0.84853186  0.93402861  1
  O  O65  1  0.54192737  0.83573548  0.56724546  1
  O  O66  1  0.54192737  0.16426452  0.06724546  1
  O  O67  1  0.45256086  0.15146814  0.43402861  1
  O  O68  1  0.95256086  0.34853186  0.93402861  1
  O  O69  1  0.04192737  0.33573548  0.56724546  1
  O  O70  1  0.04192737  0.66426452  0.06724546  1
  O  O71  1  0.95256086  0.65146814  0.43402861  1
  O  O72  1  0.07760979  0.84627927  0.74807981  1
  O  O73  1  0.91877487  0.85146652  0.75097653  1
  O  O74  1  0.91877487  0.14853348  0.25097653  1
  O  O75  1  0.07760979  0.15372073  0.24807981  1
  O  O76  1  0.57760979  0.34627927  0.74807981  1
  O  O77  1  0.41877487  0.35146652  0.75097653  1
  O  O78  1  0.41877487  0.64853348  0.25097653  1
  O  O79  1  0.57760979  0.65372073  0.24807981  1
