# generated using pymatgen
data_Na6Zr4Ga4Si5S7O48
_symmetry_space_group_name_H-M   'P 1'
_cell_length_a   17.75313462
_cell_length_b   8.90418412
_cell_length_c   22.88976097
_cell_angle_alpha   90.00716959
_cell_angle_beta   89.82350721
_cell_angle_gamma   120.24520921
_symmetry_Int_Tables_number   1
_chemical_formula_structural   Na6Zr4Ga4Si5S7O48
_chemical_formula_sum   'Na18 Zr12 Ga12 Si15 S21 O144'
_cell_volume   3125.79152085
_cell_formula_units_Z   3
loop_
 _symmetry_equiv_pos_site_id
 _symmetry_equiv_pos_as_xyz
  1  'x, y, z'
loop_
 _atom_site_type_symbol
 _atom_site_label
 _atom_site_symmetry_multiplicity
 _atom_site_fract_x
 _atom_site_fract_y
 _atom_site_fract_z
 _atom_site_occupancy
  Na  Na0  1  0.00057156  0.62871682  0.25468867  1
  Na  Na1  1  0.49554247  0.63833147  0.25126499  1
  Na  Na2  1  0.99531943  0.35710351  0.74951244  1
  Na  Na3  1  0.50162836  0.36563050  0.75233769  1
  Na  Na4  1  0.66524846  0.29848837  0.91656349  1
  Na  Na5  1  0.16612178  0.02981004  0.42506582  1
  Na  Na6  1  0.00168857  0.99619520  0.50216162  1
  Na  Na7  1  0.50527226  0.99571362  0.50253941  1
  Na  Na8  1  0.00620776  0.01218072  0.99706567  1
  Na  Na9  1  0.50265859  0.00960936  0.99674490  1
  Na  Na10  1  0.33107075  0.32462057  0.83334689  1
  Na  Na11  1  0.82968425  0.32790857  0.82530587  1
  Na  Na12  1  0.33660945  0.34231656  0.32947438  1
  Na  Na13  1  0.82828171  0.33533546  0.33558885  1
  Na  Na14  1  0.18094913  0.66152815  0.16973728  1
  Na  Na15  1  0.67461582  0.66033572  0.16549055  1
  Na  Na16  1  0.17508819  0.68909201  0.66762668  1
  Na  Na17  1  0.67960347  0.68785344  0.67493429  1
  Zr  Zr18  1  0.49848868  0.01286119  0.34981182  1
  Zr  Zr19  1  0.99868036  0.98336115  0.84943779  1
  Zr  Zr20  1  0.00003079  0.98839369  0.65030925  1
  Zr  Zr21  1  0.50513483  0.99824981  0.64498338  1
  Zr  Zr22  1  0.99954585  0.01017424  0.14183708  1
  Zr  Zr23  1  0.49962948  0.01193540  0.14961055  1
  Zr  Zr24  1  0.32920832  0.32512418  0.97419170  1
  Zr  Zr25  1  0.83082541  0.33642552  0.47543158  1
  Zr  Zr26  1  0.16650315  0.66310326  0.01950438  1
  Zr  Zr27  1  0.66538747  0.65594009  0.02217980  1
  Zr  Zr28  1  0.16470589  0.67454464  0.52393172  1
  Zr  Zr29  1  0.66627083  0.66777075  0.52087140  1
  Ga  Ga30  1  0.99728506  0.98833429  0.35184989  1
  Ga  Ga31  1  0.50414722  0.02141355  0.84929619  1
  Ga  Ga32  1  0.31987097  0.33312828  0.67578255  1
  Ga  Ga33  1  0.81895352  0.30452552  0.69782148  1
  Ga  Ga34  1  0.33174166  0.35224931  0.19076480  1
  Ga  Ga35  1  0.81748901  0.30697292  0.17257198  1
  Ga  Ga36  1  0.82489639  0.30669665  0.98802838  1
  Ga  Ga37  1  0.33007773  0.34436020  0.49570272  1
  Ga  Ga38  1  0.17168149  0.66389135  0.31878660  1
  Ga  Ga39  1  0.66010508  0.63311546  0.31591770  1
  Ga  Ga40  1  0.16454391  0.69391369  0.81387493  1
  Ga  Ga41  1  0.66853180  0.65436823  0.81080142  1
  Si  Si42  1  0.34585937  0.70303046  0.25243028  1
  Si  Si43  1  0.49828461  0.30756768  0.24791587  1
  Si  Si44  1  0.64579686  0.29459262  0.75261248  1
  Si  Si45  1  0.00013320  0.69032916  0.74769331  1
  Si  Si46  1  0.84744077  0.99019465  0.75256828  1
  Si  Si47  1  0.18847360  0.05063275  0.58258550  1
  Si  Si48  1  0.69577740  0.05203375  0.58587502  1
  Si  Si49  1  0.33366848  0.62354148  0.58283451  1
  Si  Si50  1  0.83139334  0.04631225  0.08243075  1
  Si  Si51  1  0.19580905  0.34056356  0.08662685  1
  Si  Si52  1  0.68835303  0.32868757  0.08186890  1
  Si  Si53  1  0.52349789  0.37687064  0.91033649  1
  Si  Si54  1  0.16295801  0.95307801  0.91621247  1
  Si  Si55  1  0.66433417  0.37344580  0.41565645  1
  Si  Si56  1  0.02496489  0.67126646  0.40858723  1
  S  S57  1  0.14537298  0.00046708  0.25194421  1
  S  S58  1  0.65319833  0.00424190  0.25124602  1
  S  S59  1  0.85333681  0.70668937  0.25169208  1
  S  S60  1  0.99784433  0.28794810  0.25368544  1
  S  S61  1  0.15327803  0.30268145  0.75145692  1
  S  S62  1  0.49578716  0.70367039  0.75325663  1
  S  S63  1  0.35231217  0.99934980  0.75118398  1
  S  S64  1  0.47428219  0.33284877  0.58438928  1
  S  S65  1  0.97555309  0.32890595  0.58486466  1
  S  S66  1  0.83335228  0.62121899  0.58458550  1
  S  S67  1  0.47637820  0.62238302  0.08528634  1
  S  S68  1  0.97464727  0.61402170  0.08517442  1
  S  S69  1  0.33241516  0.04694892  0.08554004  1
  S  S70  1  0.31336036  0.67561553  0.91055534  1
  S  S71  1  0.81301059  0.65990307  0.91764673  1
  S  S72  1  0.01571190  0.37511553  0.91562597  1
  S  S73  1  0.66695250  0.95845349  0.91476683  1
  S  S74  1  0.31233472  0.96340045  0.41684567  1
  S  S75  1  0.81273552  0.95115475  0.41064265  1
  S  S76  1  0.16616699  0.37081247  0.41361098  1
  S  S77  1  0.51648493  0.65720082  0.41535223  1
  O  O78  1  0.10493412  0.02727567  0.30567869  1
  O  O79  1  0.61065012  0.03005623  0.30325892  1
  O  O80  1  0.41310562  0.79432570  0.30750242  1
  O  O81  1  0.91074483  0.79176102  0.30360330  1
  O  O82  1  0.48488219  0.18627054  0.30524674  1
  O  O83  1  0.98691363  0.17863392  0.30580971  1
  O  O84  1  0.11104378  0.19165779  0.80354445  1
  O  O85  1  0.60462088  0.17501659  0.81180083  1
  O  O86  1  0.48140189  0.78558916  0.80513375  1
  O  O87  1  0.98751342  0.78621479  0.80518944  1
  O  O88  1  0.40758533  0.02680307  0.80368098  1
  O  O89  1  0.91509281  0.03139673  0.80761074  1
  O  O90  1  0.39091132  0.97353719  0.69803103  1
  O  O91  1  0.89716608  0.96467153  0.69528362  1
  O  O92  1  0.09714619  0.22288285  0.69917654  1
  O  O93  1  0.57764564  0.19857750  0.69827334  1
  O  O94  1  0.02315362  0.82622818  0.69317578  1
  O  O95  1  0.50468002  0.80603062  0.69954565  1
  O  O96  1  0.39527871  0.82466687  0.19486541  1
  O  O97  1  0.89575830  0.81189760  0.19887496  1
  O  O98  1  0.00744183  0.20306055  0.20023457  1
  O  O99  1  0.52088284  0.21945406  0.19298493  1
  O  O100  1  0.08697698  0.97183344  0.20135921  1
  O  O101  1  0.59656849  0.97112409  0.19912141  1
  O  O102  1  0.43626604  0.35663391  0.63882159  1
  O  O103  1  0.94006558  0.35715328  0.63837526  1
  O  O104  1  0.24915028  0.13071487  0.64004775  1
  O  O105  1  0.75435937  0.14358766  0.64195031  1
  O  O106  1  0.32056753  0.51388622  0.64220897  1
  O  O107  1  0.82354312  0.52208981  0.63681587  1
  O  O108  1  0.44063028  0.52232295  0.13973532  1
  O  O109  1  0.93693240  0.51496942  0.14050626  1
  O  O110  1  0.32277766  0.12655849  0.13773883  1
  O  O111  1  0.82190076  0.12670772  0.14392792  1
  O  O112  1  0.25153578  0.35939077  0.14385222  1
  O  O113  1  0.74716510  0.37209508  0.14100365  1
  O  O114  1  0.23692370  0.31472209  0.02674993  1
  O  O115  1  0.73139931  0.31089769  0.02069509  1
  O  O116  1  0.42441821  0.53700993  0.03286162  1
  O  O117  1  0.92262437  0.53564177  0.03271316  1
  O  O118  1  0.34422970  0.14715488  0.03106781  1
  O  O119  1  0.85615576  0.16892884  0.02516941  1
  O  O120  1  0.23088364  0.15030055  0.51970987  1
  O  O121  1  0.73734211  0.15971846  0.52525402  1
  O  O122  1  0.35721865  0.55107167  0.52398771  1
  O  O123  1  0.84496562  0.54449924  0.52994319  1
  O  O124  1  0.42290454  0.31110332  0.53091219  1
  O  O125  1  0.92521951  0.31222928  0.53138742  1
  O  O126  1  0.27337537  0.69705102  0.96567201  1
  O  O127  1  0.77384995  0.68775926  0.97075952  1
  O  O128  1  0.07245587  0.46171459  0.96810836  1
  O  O129  1  0.58638630  0.46297278  0.96762226  1
  O  O130  1  0.15393729  0.83930696  0.97483193  1
  O  O131  1  0.65876313  0.85973777  0.96869777  1
  O  O132  1  0.27256853  0.85675585  0.46952192  1
  O  O133  1  0.77394224  0.84947272  0.46508059  1
  O  O134  1  0.15441657  0.45044308  0.46633226  1
  O  O135  1  0.65411461  0.46928829  0.47334055  1
  O  O136  1  0.08874047  0.71252692  0.46493856  1
  O  O137  1  0.57305146  0.68377160  0.46705356  1
  O  O138  1  0.07154238  0.64751760  0.34967687  1
  O  O139  1  0.55898910  0.64289547  0.36062805  1
  O  O140  1  0.25745793  0.88159243  0.36434682  1
  O  O141  1  0.75722905  0.86896270  0.35923834  1
  O  O142  1  0.18056586  0.47862324  0.36085366  1
  O  O143  1  0.68324948  0.49388208  0.35831848  1
  O  O144  1  0.05848891  0.47516793  0.86180080  1
  O  O145  1  0.56943224  0.49658413  0.85302788  1
  O  O146  1  0.18185766  0.86923091  0.85983083  1
  O  O147  1  0.68028798  0.87980561  0.86279874  1
  O  O148  1  0.25644223  0.64393382  0.85986725  1
  O  O149  1  0.75885953  0.63173158  0.86557969  1
  O  O150  1  0.01697212  0.85034688  0.40400582  1
  O  O151  1  0.50801071  0.81399137  0.41199721  1
  O  O152  1  0.39876771  0.97692988  0.41161991  1
  O  O153  1  0.90147031  0.97118207  0.40553048  1
  O  O154  1  0.08551113  0.19424544  0.40697930  1
  O  O155  1  0.57928516  0.17809176  0.41218111  1
  O  O156  1  0.00698249  0.20092563  0.91330574  1
  O  O157  1  0.51293986  0.18038275  0.90780063  1
  O  O158  1  0.07888555  0.97980452  0.91375691  1
  O  O159  1  0.58672554  0.97447920  0.91168799  1
  O  O160  1  0.40116700  0.83153428  0.90534988  1
  O  O161  1  0.89999781  0.81954784  0.91293290  1
  O  O162  1  0.48397868  0.17781824  0.58756984  1
  O  O163  1  0.98570078  0.17360236  0.58764870  1
  O  O164  1  0.09346296  0.03745674  0.58634680  1
  O  O165  1  0.59763957  0.02819541  0.58978171  1
  O  O166  1  0.41558129  0.82060040  0.58925007  1
  O  O167  1  0.91144538  0.80045227  0.58616832  1
  O  O168  1  0.48557227  0.79660249  0.08937732  1
  O  O169  1  0.98667059  0.79180622  0.09112648  1
  O  O170  1  0.41040439  0.02376396  0.08751852  1
  O  O171  1  0.91556869  0.01562732  0.08878166  1
  O  O172  1  0.09753923  0.16578030  0.09208166  1
  O  O173  1  0.59311316  0.15042484  0.08757445  1
  O  O174  1  0.34657350  0.16088974  0.74660135  1
  O  O175  1  0.84729903  0.17105224  0.74731447  1
  O  O176  1  0.23993854  0.31644378  0.74520388  1
  O  O177  1  0.74163408  0.32021858  0.74768389  1
  O  O178  1  0.41951413  0.52164975  0.74706872  1
  O  O179  1  0.91571825  0.50234260  0.73788983  1
  O  O180  1  0.34193094  0.51624697  0.24751251  1
  O  O181  1  0.84798641  0.53463453  0.24728642  1
  O  O182  1  0.41179289  0.32331882  0.23866549  1
  O  O183  1  0.92120424  0.31221832  0.24885075  1
  O  O184  1  0.23254320  0.15293782  0.24614857  1
  O  O185  1  0.73998458  0.16429103  0.24472441  1
  O  O186  1  0.32280809  0.51953070  0.91791032  1
  O  O187  1  0.82257709  0.50407310  0.92381593  1
  O  O188  1  0.42887426  0.36147787  0.91983412  1
  O  O189  1  0.93053780  0.36633780  0.92266300  1
  O  O190  1  0.24971026  0.14770687  0.91884668  1
  O  O191  1  0.74491844  0.14278961  0.92001622  1
  O  O192  1  0.32181027  0.13760003  0.42205031  1
  O  O193  1  0.82388427  0.12707687  0.41723366  1
  O  O194  1  0.24259566  0.34411579  0.41820388  1
  O  O195  1  0.75077224  0.35249465  0.41884980  1
  O  O196  1  0.43116391  0.49544853  0.42154975  1
  O  O197  1  0.93039572  0.49813493  0.41703518  1
  O  O198  1  0.18099136  0.50839574  0.08037321  1
  O  O199  1  0.67541650  0.49861227  0.07906674  1
  O  O200  1  0.06355144  0.63529977  0.08000740  1
  O  O201  1  0.56468740  0.64408733  0.07864876  1
  O  O202  1  0.25392810  0.86868469  0.07950872  1
  O  O203  1  0.74394256  0.85822208  0.07606976  1
  O  O204  1  0.17594835  0.85447015  0.57923289  1
  O  O205  1  0.68096507  0.85413179  0.57812160  1
  O  O206  1  0.24436134  0.63123668  0.57429798  1
  O  O207  1  0.75497026  0.64189474  0.57805778  1
  O  O208  1  0.06485636  0.48483302  0.57708275  1
  O  O209  1  0.56278157  0.49091087  0.57858942  1
  O  O210  1  0.15030674  0.83912828  0.25554943  1
  O  O211  1  0.66071697  0.84755042  0.25892630  1
  O  O212  1  0.25030053  0.68699307  0.26153592  1
  O  O213  1  0.76725236  0.69305408  0.25731118  1
  O  O214  1  0.07770234  0.46221712  0.25628081  1
  O  O215  1  0.58210150  0.50782987  0.25601598  1
  O  O216  1  0.16095497  0.47451667  0.75902502  1
  O  O217  1  0.64860061  0.48170104  0.75462842  1
  O  O218  1  0.08502601  0.66126492  0.75553712  1
  O  O219  1  0.57578628  0.69223123  0.75629687  1
  O  O220  1  0.26462664  0.84093000  0.75729939  1
  O  O221  1  0.75155964  0.82263131  0.76185460  1
