# generated using pymatgen
data_Na2YNb3Si4(SO12)2
_symmetry_space_group_name_H-M   'P 1'
_cell_length_a   8.98457181
_cell_length_b   9.01314294
_cell_length_c   23.16824203
_cell_angle_alpha   90.75334791
_cell_angle_beta   89.94123848
_cell_angle_gamma   119.92526679
_symmetry_Int_Tables_number   1
_chemical_formula_structural   Na2YNb3Si4(SO12)2
_chemical_formula_sum   'Na6 Y3 Nb9 Si12 S6 O72'
_cell_volume   1625.83893101
_cell_formula_units_Z   3
loop_
 _symmetry_equiv_pos_site_id
 _symmetry_equiv_pos_as_xyz
  1  'x, y, z'
loop_
 _atom_site_type_symbol
 _atom_site_label
 _atom_site_symmetry_multiplicity
 _atom_site_fract_x
 _atom_site_fract_y
 _atom_site_fract_z
 _atom_site_occupancy
  Na  Na0  1  0.98620399  0.98009336  0.49985888  1
  Na  Na1  1  0.99803605  0.99247701  0.99889290  1
  Na  Na2  1  0.65344115  0.31517216  0.83316861  1
  Na  Na3  1  0.66837281  0.31697728  0.32625114  1
  Na  Na4  1  0.32099277  0.65118483  0.16049815  1
  Na  Na5  1  0.35493173  0.66289416  0.66862002  1
  Y  Y6  1  0.65621398  0.33101951  0.69332519  1
  Y  Y7  1  0.67334338  0.33745324  0.18633800  1
  Y  Y8  1  0.34549226  0.67710337  0.51725188  1
  Nb  Nb9  1  0.99925338  0.00369815  0.35248241  1
  Nb  Nb10  1  0.00446269  0.01448342  0.86002514  1
  Nb  Nb11  1  0.98543963  0.99475155  0.65002753  1
  Nb  Nb12  1  0.02482145  0.01392194  0.14220935  1
  Nb  Nb13  1  0.66243690  0.34687005  0.97607198  1
  Nb  Nb14  1  0.67860397  0.34551490  0.47678562  1
  Nb  Nb15  1  0.32445549  0.66147872  0.01664596  1
  Nb  Nb16  1  0.31902134  0.67870066  0.31016352  1
  Nb  Nb17  1  0.34183148  0.66345505  0.81498987  1
  Si  Si18  1  0.28907832  0.00396644  0.25058217  1
  Si  Si19  1  0.00672092  0.29075563  0.25054575  1
  Si  Si20  1  0.27983042  0.28991841  0.75296288  1
  Si  Si21  1  0.70548790  0.99198211  0.75557212  1
  Si  Si22  1  0.67000969  0.62866046  0.58626021  1
  Si  Si23  1  0.95968814  0.62616090  0.08352271  1
  Si  Si24  1  0.38334347  0.34610047  0.08282592  1
  Si  Si25  1  0.62428619  0.67284376  0.91765933  1
  Si  Si26  1  0.04002810  0.38454380  0.91463105  1
  Si  Si27  1  0.33692851  0.95447078  0.91584841  1
  Si  Si28  1  0.62566883  0.96103685  0.41546696  1
  Si  Si29  1  0.04097183  0.67488412  0.41682316  1
  S  S30  1  0.70811600  0.71952129  0.25080957  1
  S  S31  1  0.01200141  0.72407692  0.75160481  1
  S  S32  1  0.95242481  0.32338980  0.58299522  1
  S  S33  1  0.36883200  0.04774035  0.58213657  1
  S  S34  1  0.66820460  0.03737193  0.08112301  1
  S  S35  1  0.33608424  0.37047168  0.41504955  1
  O  O36  1  0.17579560  0.00119811  0.30589390  1
  O  O37  1  0.81002861  0.80729982  0.30431585  1
  O  O38  1  0.99505894  0.17252616  0.30658045  1
  O  O39  1  0.17651530  0.16922280  0.80832928  1
  O  O40  1  0.99336744  0.80751511  0.80335738  1
  O  O41  1  0.82512288  -0.00171184  0.80909935  1
  O  O42  1  0.80067904  0.96687770  0.69389864  1
  O  O43  1  0.16280309  0.18483942  0.69322584  1
  O  O44  1  0.02362492  0.82398625  0.69763770  1
  O  O45  1  0.78845959  0.81886195  0.19907148  1
  O  O46  1  0.02217684  0.18856366  0.19265566  1
  O  O47  1  0.17420754  0.97761878  0.19106231  1
  O  O48  1  0.87277191  0.34274198  0.63442757  1
  O  O49  1  0.47003786  0.12257323  0.63473623  1
  O  O50  1  0.66156247  0.52167403  0.64066074  1
  O  O51  1  0.89778713  0.51902825  0.14082116  1
  O  O52  1  0.63860640  0.10724022  0.13453214  1
  O  O53  1  0.48362361  0.37331183  0.14108961  1
  O  O54  1  0.47301656  0.30835810  0.02631797  1
  O  O55  1  0.83190494  0.52278759  0.02729050  1
  O  O56  1  0.69479606  0.14513830  0.03073488  1
  O  O57  1  0.45885938  0.14940730  0.53038048  1
  O  O58  1  0.68746717  0.52038026  0.52634310  1
  O  O59  1  0.84548661  0.30266771  0.52933156  1
  O  O60  1  0.53102348  0.69967715  0.97281254  1
  O  O61  1  0.16302265  0.47231221  0.97151784  1
  O  O62  1  0.30672291  0.83323609  0.97136797  1
  O  O63  1  0.56624416  0.85056549  0.47228509  1
  O  O64  1  0.30281780  0.43692152  0.46822625  1
  O  O65  1  0.14702964  0.70504773  0.47398215  1
  O  O66  1  0.13342477  0.63693456  0.35962165  1
  O  O67  1  0.49533834  0.85754633  0.35998122  1
  O  O68  1  0.36328407  0.47682857  0.36485479  1
  O  O69  1  0.13441234  0.50104318  0.85868178  1
  O  O70  1  0.36380511  0.86062811  0.85827772  1
  O  O71  1  0.50202464  0.63492561  0.85923976  1
  O  O72  1  0.00297786  0.82934914  0.40443710  1
  O  O73  1  0.82283959  0.00185517  0.40205305  1
  O  O74  1  0.18711587  0.19295330  0.40784282  1
  O  O75  1  0.02409431  0.19384779  0.91023339  1
  O  O76  1  0.16676322  0.97535100  0.90698558  1
  O  O77  1  0.81559606  0.83424399  0.90968429  1
  O  O78  1  0.96307084  0.16161730  0.58549761  1
  O  O79  1  0.19941473  0.03992464  0.58592319  1
  O  O80  1  0.85496062  0.82007517  0.58985563  1
  O  O81  1  0.96840373  0.81596164  0.09143591  1
  O  O82  1  0.82423375  0.01909808  0.08758712  1
  O  O83  1  0.18555670  0.16655224  0.08867237  1
  O  O84  1  0.70191321  0.16537231  0.75198018  1
  O  O85  1  0.46720871  0.31223128  0.75395440  1
  O  O86  1  0.86202297  0.55320227  0.74773535  1
  O  O87  1  0.69385766  0.55091473  0.25059953  1
  O  O88  1  0.84504107  0.31677928  0.25200026  1
  O  O89  1  0.47338270  0.16641066  0.25152516  1
  O  O90  1  0.63789029  0.49723940  0.92386354  1
  O  O91  1  0.85043551  0.35774865  0.92455843  1
  O  O92  1  0.50603713  0.14317230  0.92630260  1
  O  O93  1  0.63746453  0.14991132  0.42643922  1
  O  O94  1  0.49147980  0.35026229  0.42215223  1
  O  O95  1  0.84726518  0.49275144  0.42446113  1
  O  O96  1  0.34962573  0.50478303  0.07138197  1
  O  O97  1  0.15766798  0.66679973  0.07040314  1
  O  O98  1  0.51696185  0.86344025  0.07409262  1
  O  O99  1  0.33999895  0.87156233  0.57813685  1
  O  O100  1  0.50823877  0.65633493  0.58223928  1
  O  O101  1  0.12547479  0.47050777  0.57654048  1
  O  O102  1  0.29806932  0.82181244  0.25606810  1
  O  O103  1  0.53500067  0.70175630  0.25694971  1
  O  O104  1  0.18981670  0.47622417  0.26031461  1
  O  O105  1  0.28398919  0.47423147  0.75619228  1
  O  O106  1  0.17100523  0.71541764  0.75212522  1
  O  O107  1  0.51715517  0.81738622  0.75710751  1
