# generated using pymatgen
data_MgMn5Cr(PO4)6
_symmetry_space_group_name_H-M   'P 1'
_cell_length_a   8.96387512
_cell_length_b   8.65724309
_cell_length_c   8.80905638
_cell_angle_alpha   59.62222630
_cell_angle_beta   57.72732333
_cell_angle_gamma   57.75702917
_symmetry_Int_Tables_number   1
_chemical_formula_structural   MgMn5Cr(PO4)6
_chemical_formula_sum   'Mg1 Mn5 Cr1 P6 O24'
_cell_volume   464.97535255
_cell_formula_units_Z   1
loop_
 _symmetry_equiv_pos_site_id
 _symmetry_equiv_pos_as_xyz
  1  'x, y, z'
loop_
 _atom_site_type_symbol
 _atom_site_label
 _atom_site_symmetry_multiplicity
 _atom_site_fract_x
 _atom_site_fract_y
 _atom_site_fract_z
 _atom_site_occupancy
  Mg  Mg0  1  0.75488700  0.74334600  0.13188800  1
  Mn  Mn1  1  0.01011900  0.01023900  0.01171300  1
  Mn  Mn2  1  0.07137800  0.64311300  0.63410400  1
  Mn  Mn3  1  0.49630700  0.48020100  0.51857100  1
  Mn  Mn4  1  0.43084600  0.86024000  0.84624300  1
  Mn  Mn5  1  0.95095800  0.35007200  0.36580600  1
  Cr  Cr6  1  0.56528600  0.14636700  0.14557600  1
  P  P7  1  0.25092000  0.24745600  0.55058600  1
  P  P8  1  0.27416300  0.94263000  0.24917700  1
  P  P9  1  0.23245200  0.54902600  0.96501800  1
  P  P10  1  0.73576000  0.47097000  0.02782500  1
  P  P11  1  0.75334300  0.04285800  0.74111100  1
  P  P12  1  0.75304900  0.75197800  0.45252100  1
  O  O13  1  0.10842900  0.11972200  0.30260900  1
  O  O14  1  0.02986600  0.53620600  0.10808200  1
  O  O15  1  0.06889500  0.30984300  0.52849600  1
  O  O16  1  0.23906900  0.08876000  0.74902600  1
  O  O17  1  0.43319200  0.17807400  0.39441100  1
  O  O18  1  0.26680600  0.41415200  0.56095700  1
  O  O19  1  0.25138000  0.93618200  0.08920300  1
  O  O20  1  0.27470900  0.75194200  0.41470200  1
  O  O21  1  0.56328000  0.61018400  0.97003200  1
  O  O22  1  0.27353600  0.54701700  0.77198000  1
  O  O23  1  0.75736600  0.26195500  0.07067600  1
  O  O24  1  0.57937000  0.01105000  0.79385900  1
  O  O25  1  0.46928600  0.95006800  0.19069500  1
  O  O26  1  0.21125400  0.74522600  0.95037500  1
  O  O27  1  0.69765300  0.50150800  0.20892800  1
  O  O28  1  0.38268100  0.37695900  0.04337800  1
  O  O29  1  0.74647700  0.24149900  0.58266300  1
  O  O30  1  0.76156400  0.03942700  0.91850000  1
  O  O31  1  0.74499300  0.58722300  0.42422900  1
  O  O32  1  0.56334400  0.81300400  0.60397700  1
  O  O33  1  0.76584200  0.90382800  0.24584300  1
  O  O34  1  0.92802200  0.70292100  0.47666600  1
  O  O35  1  0.92014600  0.50166600  0.87633000  1
  O  O36  1  0.94118400  0.88309100  0.67799900  1
