# generated using pymatgen
data_Na3TiSi2SnPO12
_symmetry_space_group_name_H-M   'P 1'
_cell_length_a   15.56827276
_cell_length_b   8.96615311
_cell_length_c   9.01056016
_cell_angle_alpha   90.09768525
_cell_angle_beta   125.15270095
_cell_angle_gamma   89.82738300
_symmetry_Int_Tables_number   1
_chemical_formula_structural   Na3TiSi2SnPO12
_chemical_formula_sum   'Na12 Ti4 Si8 Sn4 P4 O48'
_cell_volume   1028.36707318
_cell_formula_units_Z   4
loop_
 _symmetry_equiv_pos_site_id
 _symmetry_equiv_pos_as_xyz
  1  'x, y, z'
loop_
 _atom_site_type_symbol
 _atom_site_label
 _atom_site_symmetry_multiplicity
 _atom_site_fract_x
 _atom_site_fract_y
 _atom_site_fract_z
 _atom_site_occupancy
  Na  Na0  1  0.24413943  0.77167756  0.99356278  1
  Na  Na1  1  0.74781629  0.73381095  0.50211087  1
  Na  Na2  1  0.74849817  0.26581640  0.00124321  1
  Na  Na3  1  0.24344176  0.22361136  0.49332839  1
  Na  Na4  1  0.50180729  0.11289215  0.75337293  1
  Na  Na5  1  0.50538823  0.89057901  0.25147624  1
  Na  Na6  1  0.00370581  0.61992396  0.75723208  1
  Na  Na7  1  0.00391066  0.37621158  0.25016842  1
  Na  Na8  1  0.81063466  0.93967386  0.22417929  1
  Na  Na9  1  0.81123985  0.06225163  0.72461107  1
  Na  Na10  1  0.30246837  0.43408495  0.20644405  1
  Na  Na11  1  0.30978312  0.55699185  0.73126392  1
  Ti  Ti12  1  0.89505907  0.74162268  0.93852909  1
  Ti  Ti13  1  0.89364583  0.26048324  0.43421973  1
  Ti  Ti14  1  0.10456680  0.25175903  0.05631413  1
  Ti  Ti15  1  0.39400100  0.23842100  0.93662081  1
  Si  Si16  1  0.35430834  0.89464906  0.75423810  1
  Si  Si17  1  0.64881749  0.89218418  0.74340422  1
  Si  Si18  1  0.64822125  0.10938342  0.24479332  1
  Si  Si19  1  0.35340595  0.10608419  0.25367616  1
  Si  Si20  1  0.85627193  0.39730664  0.75295463  1
  Si  Si21  1  0.14514744  0.38988174  0.74247089  1
  Si  Si22  1  0.14628057  0.60461119  0.24444609  1
  Si  Si23  1  0.85512703  0.60430716  0.25371991  1
  Sn  Sn24  1  0.10394780  0.75223336  0.55935993  1
  Sn  Sn25  1  0.60450260  0.25167234  0.56140785  1
  Sn  Sn26  1  0.39597495  0.75419304  0.43230885  1
  Sn  Sn27  1  0.60405535  0.74841264  0.05988351  1
  P  P28  1  0.00020940  0.96562725  0.74479018  1
  P  P29  1  0.00195280  0.04010625  0.24498446  1
  P  P30  1  0.49897534  0.45594374  0.74640147  1
  P  P31  1  0.50150960  0.53908605  0.24577862  1
  O  O32  1  0.15024881  0.57467624  0.74634391  1
  O  O33  1  0.85492960  0.57963480  0.75844209  1
  O  O34  1  0.85521522  0.42183725  0.25716300  1
  O  O35  1  0.15061804  0.42094371  0.22968242  1
  O  O36  1  0.65522941  0.07689032  0.74481438  1
  O  O37  1  0.35135842  0.07763515  0.76752835  1
  O  O38  1  0.35274475  0.92399362  0.24476579  1
  O  O39  1  0.65560079  0.92494170  0.24280139  1
  O  O40  1  0.43032608  0.54886705  0.56995062  1
  O  O41  1  0.56296312  0.55412159  0.91591282  1
  O  O42  1  0.56575202  0.44949348  0.42377006  1
  O  O43  1  0.43952026  0.44182010  0.07478891  1
  O  O44  1  0.93404882  0.05808710  0.56800786  1
  O  O45  1  0.06079437  0.06897703  0.91173631  1
  O  O46  1  0.07240913  0.94931471  0.42181389  1
  O  O47  1  0.93668231  0.93765582  0.07744235  1
  O  O48  1  0.25655110  0.81383315  0.74103089  1
  O  O49  1  0.75466279  0.82908692  0.76529030  1
  O  O50  1  0.75107127  0.17477831  0.25916233  1
  O  O51  1  0.25010311  0.17894406  0.22837071  1
  O  O52  1  0.75864570  0.31965148  0.74267652  1
  O  O53  1  0.25069386  0.32848959  0.76296220  1
  O  O54  1  0.24686017  0.66957092  0.25043214  1
  O  O55  1  0.75513850  0.67836240  0.23881769  1
  O  O56  1  0.36223639  0.86769058  0.58396018  1
  O  O57  1  0.64619368  0.86330702  0.91957309  1
  O  O58  1  0.65064794  0.13550457  0.42699929  1
  O  O59  1  0.36446004  0.16047363  0.08921109  1
  O  O60  1  0.86053268  0.34979184  0.57838534  1
  O  O61  1  0.14301047  0.35078206  0.91928882  1
  O  O62  1  0.15083732  0.62666612  0.42924027  1
  O  O63  1  0.86303721  0.65287953  0.08462492  1
  O  O64  1  0.45608561  0.82450551  0.94216631  1
  O  O65  1  0.54635580  0.82661268  0.55355292  1
  O  O66  1  0.53818988  0.17254967  0.06343428  1
  O  O67  1  0.45506677  0.17424777  0.44311354  1
  O  O68  1  0.96370442  0.32919832  0.93331405  1
  O  O69  1  0.03747399  0.32600997  0.55859439  1
  O  O70  1  0.03787281  0.67396850  0.06613837  1
  O  O71  1  0.95561610  0.67689721  0.44097195  1
  O  O72  1  0.08125222  0.86127534  0.74740424  1
  O  O73  1  0.92278589  0.86573237  0.75615894  1
  O  O74  1  0.92081494  0.13616016  0.25215780  1
  O  O75  1  0.07584600  0.14673547  0.23400086  1
  O  O76  1  0.57997898  0.35346075  0.74795136  1
  O  O77  1  0.42013702  0.35704173  0.75371214  1
  O  O78  1  0.41654180  0.63484681  0.24434567  1
  O  O79  1  0.58034020  0.64656242  0.24869805  1
