# generated using pymatgen
data_Ca2Ge7O16
_symmetry_space_group_name_H-M   'P 1'
_cell_length_a   11.38482682
_cell_length_b   11.38482682
_cell_length_c   4.65824744
_cell_angle_alpha   90.00000000
_cell_angle_beta   90.00000000
_cell_angle_gamma   90.00000000
_symmetry_Int_Tables_number   1
_chemical_formula_structural   Ca2Ge7O16
_chemical_formula_sum   'Ca4 Ge14 O32'
_cell_volume   603.77539602
_cell_formula_units_Z   2
loop_
 _symmetry_equiv_pos_site_id
 _symmetry_equiv_pos_as_xyz
  1  'x, y, z'
loop_
 _atom_site_type_symbol
 _atom_site_label
 _atom_site_symmetry_multiplicity
 _atom_site_fract_x
 _atom_site_fract_y
 _atom_site_fract_z
 _atom_site_occupancy
  Ca  Ca0  1  0.83502270  0.33502270  0.50000000  1
  Ca  Ca1  1  0.16497730  0.66497730  0.50000000  1
  Ca  Ca2  1  0.33502270  0.16497730  0.50000000  1
  Ca  Ca3  1  0.66497730  0.83502270  0.50000000  1
  Ge  Ge4  1  0.56596172  0.31211796  0.98997954  1
  Ge  Ge5  1  0.43403828  0.68788204  0.98997954  1
  Ge  Ge6  1  0.06596172  0.18788204  0.98997954  1
  Ge  Ge7  1  0.93403828  0.81211796  0.98997954  1
  Ge  Ge8  1  0.81211796  0.06596172  0.01002046  1
  Ge  Ge9  1  0.18788204  0.93403828  0.01002046  1
  Ge  Ge10  1  0.31211796  0.43403828  0.01002046  1
  Ge  Ge11  1  0.68788204  0.56596172  0.01002046  1
  Ge  Ge12  1  0.63350152  0.13350152  0.50000000  1
  Ge  Ge13  1  0.36649848  0.86649848  0.50000000  1
  Ge  Ge14  1  0.13350152  0.36649848  0.50000000  1
  Ge  Ge15  1  0.86649848  0.63350152  0.50000000  1
  Ge  Ge16  1  0.50000000  -0.00000000  -0.00000000  1
  Ge  Ge17  1  -0.00000000  0.50000000  -0.00000000  1
  O  O18  1  0.64003517  0.43163960  0.16148332  1
  O  O19  1  0.35996483  0.56836040  0.16148332  1
  O  O20  1  0.14003517  0.06836040  0.16148332  1
  O  O21  1  0.85996483  0.93163960  0.16148332  1
  O  O22  1  0.93163960  0.14003517  0.83851668  1
  O  O23  1  0.06836040  0.85996483  0.83851668  1
  O  O24  1  0.43163960  0.35996483  0.83851668  1
  O  O25  1  0.56836040  0.64003517  0.83851668  1
  O  O26  1  0.52741703  0.21917828  0.27620879  1
  O  O27  1  0.47258297  0.78082172  0.27620879  1
  O  O28  1  0.02741703  0.28082172  0.27620879  1
  O  O29  1  0.97258297  0.71917828  0.27620879  1
  O  O30  1  0.50112498  0.11682023  0.75226401  1
  O  O31  1  0.49887502  0.88317977  0.75226401  1
  O  O32  1  0.00112498  0.38317977  0.75226401  1
  O  O33  1  0.99887502  0.61682023  0.75226401  1
  O  O34  1  0.66971061  0.26544470  0.73142992  1
  O  O35  1  0.33028939  0.73455530  0.73142992  1
  O  O36  1  0.88317977  0.50112498  0.24773599  1
  O  O37  1  0.11682023  0.49887502  0.24773599  1
  O  O38  1  0.38317977  0.99887502  0.24773599  1
  O  O39  1  0.61682023  0.00112498  0.24773599  1
  O  O40  1  0.78082172  0.52741703  0.72379121  1
  O  O41  1  0.21917828  0.47258297  0.72379121  1
  O  O42  1  0.28082172  0.97258297  0.72379121  1
  O  O43  1  0.71917828  0.02741703  0.72379121  1
  O  O44  1  0.73455530  0.66971061  0.26857008  1
  O  O45  1  0.26544470  0.33028939  0.26857008  1
  O  O46  1  0.23455530  0.83028939  0.26857008  1
  O  O47  1  0.76544470  0.16971061  0.26857008  1
  O  O48  1  0.83028939  0.76544470  0.73142992  1
  O  O49  1  0.16971061  0.23455530  0.73142992  1
