# generated using pymatgen
data_MgFeCo5O12
_symmetry_space_group_name_H-M   'P 1'
_cell_length_a   5.00817413
_cell_length_b   4.95756839
_cell_length_c   9.86042474
_cell_angle_alpha   94.19038830
_cell_angle_beta   98.31789340
_cell_angle_gamma   59.66175712
_symmetry_Int_Tables_number   1
_chemical_formula_structural   MgFeCo5O12
_chemical_formula_sum   'Mg1 Fe1 Co5 O12'
_cell_volume   209.06982356
_cell_formula_units_Z   1
loop_
 _symmetry_equiv_pos_site_id
 _symmetry_equiv_pos_as_xyz
  1  'x, y, z'
loop_
 _atom_site_type_symbol
 _atom_site_label
 _atom_site_symmetry_multiplicity
 _atom_site_fract_x
 _atom_site_fract_y
 _atom_site_fract_z
 _atom_site_occupancy
  Mg  Mg0  1  0.90795600  0.00000000  0.75276500  1
  Fe  Fe1  1  0.99893700  0.00000000  0.04326800  1
  Co  Co2  1  0.17831600  0.66909000  0.49651400  1
  Co  Co3  1  0.64992500  0.66570000  0.98865100  1
  Co  Co4  1  0.31562500  0.33430000  0.98865100  1
  Co  Co5  1  0.84740800  0.33091000  0.49651400  1
  Co  Co6  1  0.51131100  0.00000000  0.49483100  1
  O  O7  1  0.01372800  0.62351500  0.09634200  1
  O  O8  1  0.27976200  0.67501300  0.89420300  1
  O  O9  1  0.14610800  0.33648600  0.40468000  1
  O  O10  1  0.48259500  0.66351400  0.40468000  1
  O  O11  1  0.55339900  0.32220800  0.59830100  1
  O  O12  1  0.17523000  0.00000000  0.60777800  1
  O  O13  1  0.87560900  0.67779200  0.59830100  1
  O  O14  1  0.63724300  0.37648500  0.09634200  1
  O  O15  1  0.38703900  0.00000000  0.09610900  1
  O  O16  1  0.95477600  0.32498700  0.89420300  1
  O  O17  1  0.63416500  0.00000000  0.89499500  1
  O  O18  1  0.84836600  0.00000000  0.39537400  1
