# generated using pymatgen
data_NaCaLa(SO4)3
_symmetry_space_group_name_H-M   'P 1'
_cell_length_a   9.34855610
_cell_length_b   9.34855575
_cell_length_c   25.00755336
_cell_angle_alpha   90.00000000
_cell_angle_beta   90.00000000
_cell_angle_gamma   120.00000123
_symmetry_Int_Tables_number   1
_chemical_formula_structural   NaCaLa(SO4)3
_chemical_formula_sum   'Na6 Ca6 La6 S18 O72'
_cell_volume   1892.73969967
_cell_formula_units_Z   6
loop_
 _symmetry_equiv_pos_site_id
 _symmetry_equiv_pos_as_xyz
  1  'x, y, z'
loop_
 _atom_site_type_symbol
 _atom_site_label
 _atom_site_symmetry_multiplicity
 _atom_site_fract_x
 _atom_site_fract_y
 _atom_site_fract_z
 _atom_site_occupancy
  Na  Na0  1  0.00000000  -0.00000000  0.49575549  1
  Na  Na1  1  0.00000000  -0.00000000  0.99575549  1
  Na  Na2  1  0.66666700  0.33333300  0.82908849  1
  Na  Na3  1  0.66666700  0.33333300  0.32908849  1
  Na  Na4  1  0.33333300  0.66666700  0.16242249  1
  Na  Na5  1  0.33333300  0.66666700  0.66242249  1
  Ca  Ca6  1  0.00000000  -0.00000000  0.34975595  1
  Ca  Ca7  1  0.00000000  -0.00000000  0.84975595  1
  Ca  Ca8  1  0.66666700  0.33333300  0.68308895  1
  Ca  Ca9  1  0.66666700  0.33333300  0.18308895  1
  Ca  Ca10  1  0.33333300  0.66666700  0.01642295  1
  Ca  Ca11  1  0.33333300  0.66666700  0.51642295  1
  La  La12  1  0.00000000  -0.00000000  0.64952325  1
  La  La13  1  0.00000000  -0.00000000  0.14952325  1
  La  La14  1  0.66666700  0.33333300  0.98285625  1
  La  La15  1  0.66666700  0.33333300  0.48285625  1
  La  La16  1  0.33333300  0.66666700  0.31619025  1
  La  La17  1  0.33333300  0.66666700  0.81619025  1
  S  S18  1  0.30039312  0.00608436  0.25090123  1
  S  S19  1  0.70569124  0.69960688  0.25090123  1
  S  S20  1  0.99391564  0.29430876  0.25090123  1
  S  S21  1  0.30039312  0.29430876  0.75090123  1
  S  S22  1  0.99391564  0.69960688  0.75090123  1
  S  S23  1  0.70569124  0.00608436  0.75090123  1
  S  S24  1  0.96706012  0.33941736  0.58423423  1
  S  S25  1  0.37235824  0.03293988  0.58423423  1
  S  S26  1  0.66058264  0.62764176  0.58423423  1
  S  S27  1  0.96706012  0.62764176  0.08423423  1
  S  S28  1  0.66058264  0.03293988  0.08423423  1
  S  S29  1  0.37235824  0.33941736  0.08423423  1
  S  S30  1  0.63372612  0.67275136  0.91756823  1
  S  S31  1  0.03902424  0.36627388  0.91756823  1
  S  S32  1  0.32724864  0.96097576  0.91756823  1
  S  S33  1  0.63372612  0.96097576  0.41756823  1
  S  S34  1  0.32724864  0.36627388  0.41756823  1
  S  S35  1  0.03902424  0.67275136  0.41756823  1
  O  O36  1  0.21656538  0.02058957  0.29862797  1
  O  O37  1  0.80402419  0.78343462  0.29862797  1
  O  O38  1  0.97941043  0.19597581  0.29862797  1
  O  O39  1  0.21656538  0.19597581  0.79862797  1
  O  O40  1  0.97941043  0.78343462  0.79862797  1
  O  O41  1  0.80402419  0.02058957  0.79862797  1
  O  O42  1  0.78370152  0.98426057  0.70180403  1
  O  O43  1  0.20055905  0.21629848  0.70180403  1
  O  O44  1  0.01573943  0.79944095  0.70180403  1
  O  O45  1  0.78370152  0.79944095  0.20180403  1
  O  O46  1  0.01573943  0.21629848  0.20180403  1
  O  O47  1  0.20055905  0.98426057  0.20180403  1
  O  O48  1  0.88323238  0.35392257  0.63196097  1
  O  O49  1  0.47069119  0.11676762  0.63196097  1
  O  O50  1  0.64607743  0.52930881  0.63196097  1
  O  O51  1  0.88323238  0.52930881  0.13196097  1
  O  O52  1  0.64607743  0.11676762  0.13196097  1
  O  O53  1  0.47069119  0.35392257  0.13196097  1
  O  O54  1  0.45036852  0.31759357  0.03513703  1
  O  O55  1  0.86722605  0.54963148  0.03513703  1
  O  O56  1  0.68240643  0.13277395  0.03513703  1
  O  O57  1  0.45036852  0.13277395  0.53513703  1
  O  O58  1  0.68240643  0.54963148  0.53513703  1
  O  O59  1  0.86722605  0.31759357  0.53513703  1
  O  O60  1  0.54989838  0.68725657  0.96529497  1
  O  O61  1  0.13735719  0.45010162  0.96529497  1
  O  O62  1  0.31274343  0.86264281  0.96529497  1
  O  O63  1  0.54989838  0.86264281  0.46529497  1
  O  O64  1  0.31274343  0.45010162  0.46529497  1
  O  O65  1  0.13735719  0.68725657  0.46529497  1
  O  O66  1  0.11703452  0.65092757  0.36847103  1
  O  O67  1  0.53389205  0.88296548  0.36847103  1
  O  O68  1  0.34907243  0.46610795  0.36847103  1
  O  O69  1  0.11703452  0.46610795  0.86847103  1
  O  O70  1  0.34907243  0.88296548  0.86847103  1
  O  O71  1  0.53389205  0.65092757  0.86847103  1
  O  O72  1  0.02168122  0.82095517  0.41248582  1
  O  O73  1  0.79927395  0.97831878  0.41248582  1
  O  O74  1  0.17904483  0.20072605  0.41248582  1
  O  O75  1  0.02168122  0.20072605  0.91248582  1
  O  O76  1  0.17904483  0.97831878  0.91248582  1
  O  O77  1  0.79927395  0.82095517  0.91248582  1
  O  O78  1  0.98371126  0.18809565  0.58783606  1
  O  O79  1  0.20438440  0.01628874  0.58783606  1
  O  O80  1  0.81190435  0.79561560  0.58783606  1
  O  O81  1  0.98371126  0.79561560  0.08783606  1
  O  O82  1  0.81190435  0.01628874  0.08783606  1
  O  O83  1  0.20438440  0.18809565  0.08783606  1
  O  O84  1  0.68834822  0.15428817  0.74581882  1
  O  O85  1  0.46594095  0.31165178  0.74581882  1
  O  O86  1  0.84571183  0.53405905  0.74581882  1
  O  O87  1  0.68834822  0.53405905  0.24581882  1
  O  O88  1  0.84571183  0.31165178  0.24581882  1
  O  O89  1  0.46594095  0.15428817  0.24581882  1
  O  O90  1  0.65037826  0.52142865  0.92116906  1
  O  O91  1  0.87105140  0.34962174  0.92116906  1
  O  O92  1  0.47857135  0.12894860  0.92116906  1
  O  O93  1  0.65037826  0.12894860  0.42116906  1
  O  O94  1  0.47857135  0.34962174  0.42116906  1
  O  O95  1  0.87105140  0.52142865  0.42116906  1
  O  O96  1  0.35501422  0.48762217  0.07915282  1
  O  O97  1  0.13260695  0.64498578  0.07915282  1
  O  O98  1  0.51237783  0.86739305  0.07915282  1
  O  O99  1  0.35501422  0.86739305  0.57915282  1
  O  O100  1  0.51237783  0.64498578  0.57915282  1
  O  O101  1  0.13260695  0.48762217  0.57915282  1
  O  O102  1  0.31704426  0.85476265  0.25450306  1
  O  O103  1  0.53771740  0.68295574  0.25450306  1
  O  O104  1  0.14523735  0.46228260  0.25450306  1
  O  O105  1  0.31704426  0.46228260  0.75450306  1
  O  O106  1  0.14523735  0.68295574  0.75450306  1
  O  O107  1  0.53771740  0.85476265  0.75450306  1
