# generated using pymatgen
data_Na7Mg2Ga2P5SO24
_symmetry_space_group_name_H-M   'P 1'
_cell_length_a   8.88757857
_cell_length_b   8.87712863
_cell_length_c   21.63830381
_cell_angle_alpha   90.25504928
_cell_angle_beta   89.91156224
_cell_angle_gamma   119.87405141
_symmetry_Int_Tables_number   1
_chemical_formula_structural   Na7Mg2Ga2P5SO24
_chemical_formula_sum   'Na21 Mg6 Ga6 P15 S3 O72'
_cell_volume   1480.31848148
_cell_formula_units_Z   3
loop_
 _symmetry_equiv_pos_site_id
 _symmetry_equiv_pos_as_xyz
  1  'x, y, z'
loop_
 _atom_site_type_symbol
 _atom_site_label
 _atom_site_symmetry_multiplicity
 _atom_site_fract_x
 _atom_site_fract_y
 _atom_site_fract_z
 _atom_site_occupancy
  Na  Na0  1  0.63951382  0.99653793  0.25184160  1
  Na  Na1  1  0.99812114  0.62993296  0.25528651  1
  Na  Na2  1  0.63457587  0.63934864  0.74839489  1
  Na  Na3  1  0.00528931  0.36730234  0.75245350  1
  Na  Na4  1  0.36445680  0.99545631  0.75254121  1
  Na  Na5  1  0.29463942  0.33256942  0.58596771  1
  Na  Na6  1  0.04179241  0.70811521  0.58222498  1
  Na  Na7  1  0.66902311  0.95902993  0.58322690  1
  Na  Na8  1  0.29407024  0.95925565  0.07945874  1
  Na  Na9  1  0.66745862  0.70505567  0.08644142  1
  Na  Na10  1  0.04104016  0.33217535  0.08371402  1
  Na  Na11  1  0.98311841  0.66942734  0.91583597  1
  Na  Na12  1  0.32889425  0.30509986  0.91969767  1
  Na  Na13  1  0.97015938  0.31228285  0.41344694  1
  Na  Na14  1  0.69468695  0.67124856  0.41869895  1
  Na  Na15  1  0.01060218  0.99526588  0.49989045  1
  Na  Na16  1  0.99371513  0.00738392  0.99951856  1
  Na  Na17  1  0.66881090  0.31250916  0.83524009  1
  Na  Na18  1  0.65159240  0.32597459  0.33364191  1
  Na  Na19  1  0.33415905  0.64206721  0.16893750  1
  Na  Na20  1  0.33442327  0.66867867  0.66705708  1
  Mg  Mg21  1  0.00002124  0.00031449  0.64815450  1
  Mg  Mg22  1  0.99866802  0.00213163  0.14812462  1
  Mg  Mg23  1  0.32793336  0.66591389  0.01665819  1
  Mg  Mg24  1  0.33366922  0.67676594  0.51613048  1
  Mg  Mg25  1  0.33263144  0.66427820  0.31759576  1
  Mg  Mg26  1  0.32880325  0.67094990  0.81785640  1
  Ga  Ga27  1  0.98549608  0.98943952  0.34774167  1
  Ga  Ga28  1  0.00627612  0.01028691  0.84632372  1
  Ga  Ga29  1  0.66818165  0.33330367  0.68432598  1
  Ga  Ga30  1  0.67213856  0.33939721  0.18292633  1
  Ga  Ga31  1  0.66731936  0.31908743  0.98413350  1
  Ga  Ga32  1  0.67001808  0.32794761  0.48408243  1
  P  P33  1  0.69945443  0.69527133  0.24780466  1
  P  P34  1  -0.00090872  0.29580512  0.24891373  1
  P  P35  1  0.30159025  0.29812952  0.74887541  1
  P  P36  1  0.99582055  0.70431166  0.74924718  1
  P  P37  1  0.70754757  0.00221852  0.74796141  1
  P  P38  1  0.96079043  0.33426048  0.58360862  1
  P  P39  1  0.37969932  0.04633860  0.58406052  1
  P  P40  1  0.66477056  0.62047598  0.58240784  1
  P  P41  1  0.95714139  0.62284702  0.08236991  1
  P  P42  1  0.66555346  0.04059460  0.08606258  1
  P  P43  1  0.38157881  0.33454042  0.08220634  1
  P  P44  1  0.02729031  0.35988204  0.91656782  1
  P  P45  1  0.33332502  0.97175544  0.91623365  1
  P  P46  1  0.63420302  0.97053096  0.41571830  1
  P  P47  1  0.03061753  0.67067140  0.41655718  1
  S  S48  1  0.29352670  0.00569627  0.24969924  1
  S  S49  1  0.63475433  0.67089191  0.91681951  1
  S  S50  1  0.33202583  0.36407648  0.41744882  1
  O  O51  1  0.20451762  0.02542077  0.30498651  1
  O  O52  1  0.81750860  0.77821720  0.30695931  1
  O  O53  1  0.97257369  0.18020683  0.30763125  1
  O  O54  1  0.21999607  0.18226748  0.80746470  1
  O  O55  1  0.96568728  0.79045066  0.80807757  1
  O  O56  1  0.83140169  0.03702513  0.80370347  1
  O  O57  1  0.78279343  0.97233110  0.68865794  1
  O  O58  1  0.18866321  0.21589717  0.69183845  1
  O  O59  1  0.02192944  0.81347278  0.69184354  1
  O  O60  1  0.78855350  0.80706793  0.19115965  1
  O  O61  1  0.01851829  0.21181586  0.19036971  1
  O  O62  1  0.19443416  0.98390548  0.19279843  1
  O  O63  1  0.87511705  0.36421436  0.64187664  1
  O  O64  1  0.48863898  0.12568310  0.64415461  1
  O  O65  1  0.63708755  0.50874510  0.64133643  1
  O  O66  1  0.87739666  0.51074013  0.14148981  1
  O  O67  1  0.63385395  0.12270828  0.14536719  1
  O  O68  1  0.50084486  0.36497072  0.13843248  1
  O  O69  1  0.46415381  0.30819331  0.02239387  1
  O  O70  1  0.83896708  0.53604205  0.02498246  1
  O  O71  1  0.70092428  0.16083615  0.03009745  1
  O  O72  1  0.46943841  0.16757050  0.52871752  1
  O  O73  1  0.69006738  0.53245161  0.52410146  1
  O  O74  1  0.84924074  0.30604768  0.52480612  1
  O  O75  1  0.55107095  0.68632313  0.97343825  1
  O  O76  1  0.14145093  0.44094972  0.97430884  1
  O  O77  1  0.30536416  0.86122969  0.97406573  1
  O  O78  1  0.55608863  0.85716363  0.47325874  1
  O  O79  1  0.30533303  0.44096463  0.47473634  1
  O  O80  1  0.13164969  0.68997622  0.47607653  1
  O  O81  1  0.11383540  0.63826202  0.35957435  1
  O  O82  1  0.53172880  0.88561797  0.35675707  1
  O  O83  1  0.35823619  0.47748213  0.36420345  1
  O  O84  1  0.11108372  0.47309199  0.85901839  1
  O  O85  1  0.35507735  0.88870339  0.85734584  1
  O  O86  1  0.52871265  0.65006553  0.86139044  1
  O  O87  1  0.00727393  0.83419870  0.41011956  1
  O  O88  1  0.82436515  0.99544573  0.41109948  1
  O  O89  1  0.17409561  0.18962401  0.41033199  1
  O  O90  1  0.00953996  0.17662202  0.90964332  1
  O  O91  1  0.16359119  0.98811405  0.91157646  1
  O  O92  1  0.81262268  0.82413427  0.91318546  1
  O  O93  1  0.97802002  0.17037462  0.58713941  1
  O  O94  1  0.19701266  0.02563797  0.58721754  1
  O  O95  1  0.82912887  0.80129727  0.58534456  1
  O  O96  1  0.97722016  0.80548776  0.08680289  1
  O  O97  1  0.82768550  0.02037257  0.08926214  1
  O  O98  1  0.20045646  0.17031356  0.08659051  1
  O  O99  1  0.69037353  0.17007122  0.74586489  1
  O  O100  1  0.48480313  0.31367493  0.74531446  1
  O  O101  1  0.82859879  0.52008427  0.74655679  1
  O  O102  1  0.68699981  0.51331244  0.24458070  1
  O  O103  1  0.82517296  0.30591086  0.24799650  1
  O  O104  1  0.47091034  0.16029512  0.24825928  1
  O  O105  1  0.65254334  0.51061255  0.91846051  1
  O  O106  1  0.84656139  0.34972603  0.92282505  1
  O  O107  1  0.49226420  0.16055818  0.92137447  1
  O  O108  1  0.65906929  0.15753732  0.42142956  1
  O  O109  1  0.49069190  0.34778769  0.42133882  1
  O  O110  1  0.84129401  0.50566872  0.42003631  1
  O  O111  1  0.36166596  0.49749680  0.07839021  1
  O  O112  1  0.13813099  0.64025670  0.07744867  1
  O  O113  1  0.50240373  0.85969486  0.07985689  1
  O  O114  1  0.36250214  0.86490708  0.57878062  1
  O  O115  1  0.50114116  0.63871525  0.57818745  1
  O  O116  1  0.14232165  0.49744293  0.57940397  1
  O  O117  1  0.31147917  0.84742328  0.25480818  1
  O  O118  1  0.52218388  0.68312409  0.25551259  1
  O  O119  1  0.15189096  0.48170668  0.25560612  1
  O  O120  1  0.32614143  0.48187629  0.75704521  1
  O  O121  1  0.15542478  0.67984667  0.75527706  1
  O  O122  1  0.52513405  0.84247047  0.75644490  1
