# generated using pymatgen
data_Na3TaAlSi2PO12
_symmetry_space_group_name_H-M   'P 1'
_cell_length_a   15.40675568
_cell_length_b   26.54903542
_cell_length_c   8.90496260
_cell_angle_alpha   90.00000000
_cell_angle_beta   124.92469137
_cell_angle_gamma   90.00000000
_symmetry_Int_Tables_number   1
_chemical_formula_structural   Na3TaAlSi2PO12
_chemical_formula_sum   'Na36 Ta12 Al12 Si24 P12 O144'
_cell_volume   2986.45312390
_cell_formula_units_Z   12
loop_
 _symmetry_equiv_pos_site_id
 _symmetry_equiv_pos_as_xyz
  1  'x, y, z'
loop_
 _atom_site_type_symbol
 _atom_site_label
 _atom_site_symmetry_multiplicity
 _atom_site_fract_x
 _atom_site_fract_y
 _atom_site_fract_z
 _atom_site_occupancy
  Na  Na0  1  0.25748135  0.25313985  0.00853830  1
  Na  Na1  1  0.25136800  0.58624960  0.01826010  1
  Na  Na2  1  0.25220445  0.91735786  0.01944814  1
  Na  Na3  1  0.75748135  0.24686015  0.50853830  1
  Na  Na4  1  0.75220445  0.58264214  0.51944814  1
  Na  Na5  1  0.75136800  0.91375040  0.51826010  1
  Na  Na6  1  0.75136800  0.08624960  0.01826010  1
  Na  Na7  1  0.75220445  0.41735786  0.01944814  1
  Na  Na8  1  0.75748135  0.75313985  0.00853830  1
  Na  Na9  1  0.25220445  0.08264214  0.51944814  1
  Na  Na10  1  0.25136800  0.41375040  0.51826010  1
  Na  Na11  1  0.25748135  0.74686015  0.50853830  1
  Na  Na12  1  0.49685965  0.03419121  0.75027735  1
  Na  Na13  1  0.49874264  0.36821514  0.75595296  1
  Na  Na14  1  0.49712677  0.70075146  0.74659193  1
  Na  Na15  1  0.49712677  0.29924854  0.24659193  1
  Na  Na16  1  0.49874264  0.63178486  0.25595296  1
  Na  Na17  1  0.49685965  0.96580879  0.25027735  1
  Na  Na18  1  0.99712677  0.20075146  0.74659193  1
  Na  Na19  1  0.99685965  0.53419121  0.75027735  1
  Na  Na20  1  0.99874264  0.86821514  0.75595296  1
  Na  Na21  1  0.99874264  0.13178486  0.25595296  1
  Na  Na22  1  0.99685965  0.46580879  0.25027735  1
  Na  Na23  1  0.99712677  0.79924854  0.24659193  1
  Na  Na24  1  0.81484984  0.64318797  0.20692752  1
  Na  Na25  1  0.81527461  0.97752867  0.21566620  1
  Na  Na26  1  0.19418725  0.30860005  0.28885630  1
  Na  Na27  1  0.19418725  0.69139995  0.78885630  1
  Na  Na28  1  0.81527461  0.02247133  0.71566620  1
  Na  Na29  1  0.81484984  0.35681203  0.70692752  1
  Na  Na30  1  0.31484984  0.14318797  0.20692752  1
  Na  Na31  1  0.31527461  0.47752867  0.21566620  1
  Na  Na32  1  0.69418725  0.80860005  0.28885630  1
  Na  Na33  1  0.69418725  0.19139995  0.78885630  1
  Na  Na34  1  0.31527461  0.52247133  0.71566620  1
  Na  Na35  1  0.31484984  0.85681203  0.70692752  1
  Ta  Ta36  1  0.10938707  0.24770707  0.57099825  1
  Ta  Ta37  1  0.10383754  0.58275255  0.56728883  1
  Ta  Ta38  1  0.10613343  0.91756620  0.56662167  1
  Ta  Ta39  1  0.10613343  0.08243380  0.06662167  1
  Ta  Ta40  1  0.10383754  0.41724745  0.06728883  1
  Ta  Ta41  1  0.10938707  0.75229293  0.07099825  1
  Ta  Ta42  1  0.60383754  0.08275255  0.56728883  1
  Ta  Ta43  1  0.60613343  0.41756620  0.56662167  1
  Ta  Ta44  1  0.60938707  0.74770707  0.57099825  1
  Ta  Ta45  1  0.60938707  0.25229293  0.07099825  1
  Ta  Ta46  1  0.60613343  0.58243380  0.06662167  1
  Ta  Ta47  1  0.60383754  0.91724745  0.06728883  1
  Al  Al48  1  0.89674555  0.24902126  0.93940778  1
  Al  Al49  1  0.89225647  0.58131156  0.93399355  1
  Al  Al50  1  0.89299963  0.91251034  0.93559718  1
  Al  Al51  1  0.89299963  0.08748966  0.43559718  1
  Al  Al52  1  0.89225647  0.41868844  0.43399355  1
  Al  Al53  1  0.89674555  0.75097874  0.43940778  1
  Al  Al54  1  0.39225647  0.08131156  0.93399355  1
  Al  Al55  1  0.39299963  0.41251034  0.93559718  1
  Al  Al56  1  0.39674555  0.74902126  0.93940778  1
  Al  Al57  1  0.39674555  0.25097874  0.43940778  1
  Al  Al58  1  0.39299963  0.58748966  0.43559718  1
  Al  Al59  1  0.39225647  0.91868844  0.43399355  1
  Si  Si60  1  0.35477987  0.29912501  0.74757800  1
  Si  Si61  1  0.35514073  0.63351678  0.74979024  1
  Si  Si62  1  0.35387474  0.96744735  0.74597678  1
  Si  Si63  1  0.64514642  0.29666884  0.73754578  1
  Si  Si64  1  0.64605232  0.62701624  0.73832094  1
  Si  Si65  1  0.64578932  0.96061041  0.73880930  1
  Si  Si66  1  0.64578932  0.03938959  0.23880930  1
  Si  Si67  1  0.64605232  0.37298376  0.23832094  1
  Si  Si68  1  0.64514642  0.70333116  0.23754578  1
  Si  Si69  1  0.35387474  0.03255265  0.24597678  1
  Si  Si70  1  0.35514073  0.36648322  0.24979024  1
  Si  Si71  1  0.35477987  0.70087499  0.24757800  1
  Si  Si72  1  0.85514073  0.13351678  0.74979024  1
  Si  Si73  1  0.85387474  0.46744735  0.74597678  1
  Si  Si74  1  0.85477987  0.79912501  0.74757800  1
  Si  Si75  1  0.14605232  0.12701624  0.73832094  1
  Si  Si76  1  0.14578932  0.46061041  0.73880930  1
  Si  Si77  1  0.14514642  0.79666884  0.73754578  1
  Si  Si78  1  0.14514642  0.20333116  0.23754578  1
  Si  Si79  1  0.14578932  0.53938959  0.23880930  1
  Si  Si80  1  0.14605232  0.87298376  0.23832094  1
  Si  Si81  1  0.85477987  0.20087499  0.24757800  1
  Si  Si82  1  0.85387474  0.53255265  0.24597678  1
  Si  Si83  1  0.85514073  0.86648322  0.24979024  1
  P  P84  1  0.99889515  0.32091621  0.74530259  1
  P  P85  1  0.99136649  0.65535053  0.74254768  1
  P  P86  1  0.99640478  0.98762652  0.73983461  1
  P  P87  1  0.99640478  0.01237348  0.23983461  1
  P  P88  1  0.99136649  0.34464947  0.24254768  1
  P  P89  1  0.99889515  0.67908379  0.24530259  1
  P  P90  1  0.49136649  0.15535053  0.74254768  1
  P  P91  1  0.49640478  0.48762652  0.73983461  1
  P  P92  1  0.49889515  0.82091621  0.74530259  1
  P  P93  1  0.49889515  0.17908379  0.24530259  1
  P  P94  1  0.49640478  0.51237348  0.23983461  1
  P  P95  1  0.49136649  0.84464947  0.24254768  1
  O  O96  1  0.14811775  0.19071137  0.73956677  1
  O  O97  1  0.14990908  0.52487944  0.74053862  1
  O  O98  1  0.14892159  0.85912758  0.73832465  1
  O  O99  1  0.85151811  0.19418675  0.76483827  1
  O  O100  1  0.85455319  0.52743458  0.76562571  1
  O  O101  1  0.85260432  0.86000453  0.76326962  1
  O  O102  1  0.85260432  0.13999547  0.26326962  1
  O  O103  1  0.85455319  0.47256542  0.26562571  1
  O  O104  1  0.85151811  0.80581325  0.26483827  1
  O  O105  1  0.14892159  0.14087242  0.23832465  1
  O  O106  1  0.14990908  0.47512056  0.24053862  1
  O  O107  1  0.14811775  0.80928863  0.23956677  1
  O  O108  1  0.64990908  0.02487944  0.74053862  1
  O  O109  1  0.64892159  0.35912758  0.73832465  1
  O  O110  1  0.64811775  0.69071137  0.73956677  1
  O  O111  1  0.35455319  0.02743458  0.76562571  1
  O  O112  1  0.35260432  0.36000453  0.76326962  1
  O  O113  1  0.35151811  0.69418675  0.76483827  1
  O  O114  1  0.35151811  0.30581325  0.26483827  1
  O  O115  1  0.35260432  0.63999547  0.26326962  1
  O  O116  1  0.35455319  0.97256542  0.26562571  1
  O  O117  1  0.64811775  0.30928863  0.23956677  1
  O  O118  1  0.64892159  0.64087242  0.23832465  1
  O  O119  1  0.64990908  0.97512056  0.24053862  1
  O  O120  1  0.43119820  0.18730757  0.56766392  1
  O  O121  1  0.43221224  0.52073887  0.56998838  1
  O  O122  1  0.43594003  0.85582980  0.58236712  1
  O  O123  1  0.56254242  0.18918187  0.91332896  1
  O  O124  1  0.56100608  0.52123683  0.91486862  1
  O  O125  1  0.56708335  0.85266741  0.92630369  1
  O  O126  1  0.56708335  0.14733259  0.42630369  1
  O  O127  1  0.56100608  0.47876317  0.41486862  1
  O  O128  1  0.56254242  0.81081813  0.41332896  1
  O  O129  1  0.43594003  0.14417020  0.08236712  1
  O  O130  1  0.43221224  0.47926113  0.06998838  1
  O  O131  1  0.43119820  0.81269243  0.06766392  1
  O  O132  1  0.93221224  0.02073887  0.56998838  1
  O  O133  1  0.93594003  0.35582980  0.58236712  1
  O  O134  1  0.93119820  0.68730757  0.56766392  1
  O  O135  1  0.06100608  0.02123683  0.91486862  1
  O  O136  1  0.06708335  0.35266741  0.92630369  1
  O  O137  1  0.06254242  0.68918187  0.91332896  1
  O  O138  1  0.06254242  0.31081813  0.41332896  1
  O  O139  1  0.06708335  0.64733259  0.42630369  1
  O  O140  1  0.06100608  0.97876317  0.41486862  1
  O  O141  1  0.93119820  0.31269243  0.06766392  1
  O  O142  1  0.93594003  0.64417020  0.08236712  1
  O  O143  1  0.93221224  0.97926113  0.06998838  1
  O  O144  1  0.25277133  0.27455336  0.73591122  1
  O  O145  1  0.25341892  0.60904977  0.74347924  1
  O  O146  1  0.25471671  0.93990723  0.73748410  1
  O  O147  1  0.75097922  0.27495389  0.76231472  1
  O  O148  1  0.75282390  0.60633370  0.77214453  1
  O  O149  1  0.75498662  0.94323657  0.76860874  1
  O  O150  1  0.75498662  0.05676343  0.26860874  1
  O  O151  1  0.75282390  0.39366630  0.27214453  1
  O  O152  1  0.75097922  0.72504611  0.26231472  1
  O  O153  1  0.25471671  0.06009277  0.23748410  1
  O  O154  1  0.25341892  0.39095023  0.24347924  1
  O  O155  1  0.25277133  0.72544664  0.23591122  1
  O  O156  1  0.75341892  0.10904977  0.74347924  1
  O  O157  1  0.75471671  0.43990723  0.73748410  1
  O  O158  1  0.75277133  0.77455336  0.73591122  1
  O  O159  1  0.25282390  0.10633370  0.77214453  1
  O  O160  1  0.25498662  0.44323657  0.76860874  1
  O  O161  1  0.25097922  0.77495389  0.76231472  1
  O  O162  1  0.25097922  0.22504611  0.26231472  1
  O  O163  1  0.25498662  0.55676343  0.26860874  1
  O  O164  1  0.25282390  0.89366630  0.27214453  1
  O  O165  1  0.75277133  0.22544664  0.23591122  1
  O  O166  1  0.75471671  0.56009277  0.23748410  1
  O  O167  1  0.75341892  0.89095023  0.24347924  1
  O  O168  1  0.35606604  0.28568164  0.57099122  1
  O  O169  1  0.35893947  0.61678881  0.58109160  1
  O  O170  1  0.36293280  0.95053430  0.58355188  1
  O  O171  1  0.64113797  0.28450053  0.91664540  1
  O  O172  1  0.64133247  0.61793589  0.92132908  1
  O  O173  1  0.64438181  0.95064493  0.92447220  1
  O  O174  1  0.64438181  0.04935507  0.42447220  1
  O  O175  1  0.64133247  0.38206411  0.42132908  1
  O  O176  1  0.64113797  0.71549947  0.41664540  1
  O  O177  1  0.36293280  0.04946570  0.08355188  1
  O  O178  1  0.35893947  0.38321119  0.08109160  1
  O  O179  1  0.35606604  0.71431836  0.07099122  1
  O  O180  1  0.85893947  0.11678881  0.58109160  1
  O  O181  1  0.86293280  0.45053430  0.58355188  1
  O  O182  1  0.85606604  0.78568164  0.57099122  1
  O  O183  1  0.14133247  0.11793589  0.92132908  1
  O  O184  1  0.14438181  0.45064493  0.92447220  1
  O  O185  1  0.14113797  0.78450053  0.91664540  1
  O  O186  1  0.14113797  0.21549947  0.41664540  1
  O  O187  1  0.14438181  0.54935507  0.42447220  1
  O  O188  1  0.14133247  0.88206411  0.42132908  1
  O  O189  1  0.85606604  0.21431836  0.07099122  1
  O  O190  1  0.86293280  0.54946570  0.08355188  1
  O  O191  1  0.85893947  0.88321119  0.08109160  1
  O  O192  1  0.46209543  0.27593959  0.93522743  1
  O  O193  1  0.46004026  0.60798837  0.93784739  1
  O  O194  1  0.46046952  0.94136186  0.93661539  1
  O  O195  1  0.53833328  0.27350723  0.56017071  1
  O  O196  1  0.53571173  0.60774872  0.55920699  1
  O  O197  1  0.53752788  0.94111177  0.55963953  1
  O  O198  1  0.53752788  0.05888823  0.05963953  1
  O  O199  1  0.53571173  0.39225128  0.05920699  1
  O  O200  1  0.53833328  0.72649277  0.06017071  1
  O  O201  1  0.46046952  0.05863814  0.43661539  1
  O  O202  1  0.46004026  0.39201163  0.43784739  1
  O  O203  1  0.46209543  0.72406041  0.43522743  1
  O  O204  1  0.96004026  0.10798837  0.93784739  1
  O  O205  1  0.96046952  0.44136186  0.93661539  1
  O  O206  1  0.96209543  0.77593959  0.93522743  1
  O  O207  1  0.03571173  0.10774872  0.55920699  1
  O  O208  1  0.03752788  0.44111177  0.55963953  1
  O  O209  1  0.03833328  0.77350723  0.56017071  1
  O  O210  1  0.03833328  0.22649277  0.06017071  1
  O  O211  1  0.03752788  0.55888823  0.05963953  1
  O  O212  1  0.03571173  0.89225128  0.05920699  1
  O  O213  1  0.96209543  0.22406041  0.43522743  1
  O  O214  1  0.96046952  0.55863814  0.43661539  1
  O  O215  1  0.96004026  0.89201163  0.43784739  1
  O  O216  1  0.07905864  0.28605717  0.74293017  1
  O  O217  1  0.07746795  0.62216146  0.74071625  1
  O  O218  1  0.08003055  0.95396525  0.74316568  1
  O  O219  1  0.92149246  0.28725436  0.75856150  1
  O  O220  1  0.92031133  0.61957358  0.75802570  1
  O  O221  1  0.92046328  0.95346470  0.75305302  1
  O  O222  1  0.92046328  0.04653530  0.25305302  1
  O  O223  1  0.92031133  0.38042642  0.25802570  1
  O  O224  1  0.92149246  0.71274564  0.25856150  1
  O  O225  1  0.08003055  0.04603475  0.24316568  1
  O  O226  1  0.07746795  0.37783854  0.24071625  1
  O  O227  1  0.07905864  0.71394283  0.24293017  1
  O  O228  1  0.57746795  0.12216146  0.74071625  1
  O  O229  1  0.58003055  0.45396525  0.74316568  1
  O  O230  1  0.57905864  0.78605717  0.74293017  1
  O  O231  1  0.42031133  0.11957358  0.75802570  1
  O  O232  1  0.42046328  0.45346470  0.75305302  1
  O  O233  1  0.42149246  0.78725436  0.75856150  1
  O  O234  1  0.42149246  0.21274564  0.25856150  1
  O  O235  1  0.42046328  0.54653530  0.25305302  1
  O  O236  1  0.42031133  0.88042642  0.25802570  1
  O  O237  1  0.57905864  0.21394283  0.24293017  1
  O  O238  1  0.58003055  0.54603475  0.24316568  1
  O  O239  1  0.57746795  0.87783854  0.24071625  1
