# generated using pymatgen
data_NaZrInP2SO12
_symmetry_space_group_name_H-M   'P 1'
_cell_length_a   8.90153588
_cell_length_b   8.88762472
_cell_length_c   23.52304372
_cell_angle_alpha   90.13168612
_cell_angle_beta   90.00000000
_cell_angle_gamma   120.05179086
_symmetry_Int_Tables_number   1
_chemical_formula_structural   NaZrInP2SO12
_chemical_formula_sum   'Na6 Zr6 In6 P12 S6 O72'
_cell_volume   1610.81767179
_cell_formula_units_Z   6
loop_
 _symmetry_equiv_pos_site_id
 _symmetry_equiv_pos_as_xyz
  1  'x, y, z'
loop_
 _atom_site_type_symbol
 _atom_site_label
 _atom_site_symmetry_multiplicity
 _atom_site_fract_x
 _atom_site_fract_y
 _atom_site_fract_z
 _atom_site_occupancy
  Na  Na0  1  0.98896062  0.99392655  0.50250157  1
  Na  Na1  1  0.00496593  0.99392655  0.00250157  1
  Na  Na2  1  0.65562762  0.32725955  0.83583457  1
  Na  Na3  1  0.67163293  0.32725955  0.33583457  1
  Na  Na4  1  0.32229362  0.66059355  0.16916857  1
  Na  Na5  1  0.33829893  0.66059355  0.66916857  1
  Zr  Zr6  1  0.00073175  0.00253316  0.35314014  1
  Zr  Zr7  1  0.00180140  0.00253316  0.85314014  1
  Zr  Zr8  1  0.66739875  0.33586616  0.68647314  1
  Zr  Zr9  1  0.66846840  0.33586616  0.18647314  1
  Zr  Zr10  1  0.33406475  0.66920016  0.01980714  1
  Zr  Zr11  1  0.33513440  0.66920016  0.51980714  1
  In  In12  1  0.99187047  0.00575056  0.64894890  1
  In  In13  1  0.01388009  0.00575056  0.14894890  1
  In  In14  1  0.65853747  0.33908356  0.98228190  1
  In  In15  1  0.68054709  0.33908356  0.48228190  1
  In  In16  1  0.32520347  0.67241756  0.31561590  1
  In  In17  1  0.34721309  0.67241756  0.81561590  1
  P  P18  1  0.29282647  -0.00062343  0.24991571  1
  P  P19  1  0.00311243  0.29287794  0.24947279  1
  P  P20  1  0.28976551  0.29287794  0.74947279  1
  P  P21  1  0.70655010  -0.00062343  0.74991571  1
  P  P22  1  0.95949347  0.33270957  0.58324871  1
  P  P23  1  0.66977943  0.62621094  0.58280579  1
  P  P24  1  0.95643251  0.62621094  0.08280579  1
  P  P25  1  0.37321710  0.33270957  0.08324871  1
  P  P26  1  0.62615947  0.66604357  0.91658271  1
  P  P27  1  0.33644543  0.95954494  0.91613979  1
  P  P28  1  0.62309851  0.95954494  0.41613979  1
  P  P29  1  0.03988310  0.66604357  0.41658271  1
  S  S30  1  0.70684904  0.71017816  0.24958199  1
  S  S31  1  0.00332912  0.71017816  0.74958199  1
  S  S32  1  0.37351604  0.04351116  0.58291499  1
  S  S33  1  0.66999612  0.04351116  0.08291499  1
  S  S34  1  0.04018204  0.37684516  0.91624899  1
  S  S35  1  0.33666212  0.37684516  0.41624899  1
  O  O36  1  0.20377746  0.02534490  0.30317204  1
  O  O37  1  0.81577488  0.79041698  0.30102629  1
  O  O38  1  0.97380543  0.17726696  0.30296505  1
  O  O39  1  0.20346153  0.17726696  0.80296505  1
  O  O40  1  0.97464210  0.79041698  0.80102629  1
  O  O41  1  0.82156744  0.02534490  0.80317204  1
  O  O42  1  0.78255269  0.96656473  0.69647120  1
  O  O43  1  0.18531505  0.21023568  0.69550168  1
  O  O44  1  0.02887851  0.81191810  0.69804976  1
  O  O45  1  0.78303960  0.81191810  0.19804976  1
  O  O46  1  0.02492064  0.21023568  0.19550168  1
  O  O47  1  0.18401204  0.96656473  0.19647120  1
  O  O48  1  0.87044446  0.35867790  0.63650504  1
  O  O49  1  0.48244188  0.12374998  0.63435929  1
  O  O50  1  0.64047243  0.51059996  0.63629805  1
  O  O51  1  0.87012853  0.51059996  0.13629805  1
  O  O52  1  0.64130910  0.12374998  0.13435929  1
  O  O53  1  0.48823444  0.35867790  0.13650504  1
  O  O54  1  0.44921969  0.29989773  0.02980420  1
  O  O55  1  0.85198205  0.54356868  0.02883468  1
  O  O56  1  0.69554551  0.14525110  0.03138276  1
  O  O57  1  0.44970660  0.14525110  0.53138276  1
  O  O58  1  0.69158764  0.54356868  0.52883468  1
  O  O59  1  0.85067904  0.29989773  0.52980420  1
  O  O60  1  0.53711046  0.69201190  0.96983904  1
  O  O61  1  0.14910788  0.45708398  0.96769329  1
  O  O62  1  0.30713843  0.84393396  0.96963205  1
  O  O63  1  0.53679453  0.84393396  0.46963205  1
  O  O64  1  0.30797510  0.45708398  0.46769329  1
  O  O65  1  0.15490044  0.69201190  0.46983904  1
  O  O66  1  0.11588569  0.63323173  0.36313820  1
  O  O67  1  0.51864805  0.87690268  0.36216868  1
  O  O68  1  0.36221151  0.47858510  0.36471676  1
  O  O69  1  0.11637260  0.47858510  0.86471676  1
  O  O70  1  0.35825364  0.87690268  0.86216868  1
  O  O71  1  0.51734504  0.63323173  0.86313820  1
  O  O72  1  0.02669731  0.83383308  0.40991082  1
  O  O73  1  0.80616735  0.97650156  0.40991349  1
  O  O74  1  0.17594544  0.20234604  0.41112397  1
  O  O75  1  0.02640060  0.20234604  0.91112397  1
  O  O76  1  0.17033420  0.97650156  0.90991349  1
  O  O77  1  0.80713576  0.83383308  0.90991082  1
  O  O78  1  0.98562842  0.17502697  0.58830770  1
  O  O79  1  0.19894145  0.01916533  0.59016122  1
  O  O80  1  0.83199514  0.80673674  0.58983569  1
  O  O81  1  0.97474160  0.80673674  0.08983569  1
  O  O82  1  0.82022388  0.01916533  0.09016122  1
  O  O83  1  0.18939855  0.17502697  0.08830770  1
  O  O84  1  0.69336431  0.16716608  0.74324382  1
  O  O85  1  0.47283435  0.30983456  0.74324649  1
  O  O86  1  0.84261244  0.53567904  0.74445697  1
  O  O87  1  0.69306760  0.53567904  0.24445697  1
  O  O88  1  0.83700120  0.30983456  0.24324649  1
  O  O89  1  0.47380276  0.16716608  0.24324382  1
  O  O90  1  0.65229542  0.50835997  0.92164070  1
  O  O91  1  0.86560845  0.35249833  0.92349422  1
  O  O92  1  0.49866214  0.14006974  0.92316869  1
  O  O93  1  0.64140860  0.14006974  0.42316869  1
  O  O94  1  0.48689088  0.35249833  0.42349422  1
  O  O95  1  0.85606555  0.50835997  0.42164070  1
  O  O96  1  0.36003031  0.50050008  0.07657782  1
  O  O97  1  0.13950035  0.64316856  0.07658049  1
  O  O98  1  0.50927844  0.86901304  0.07779097  1
  O  O99  1  0.35973360  0.86901304  0.57779097  1
  O  O100  1  0.50366720  0.64316856  0.57658049  1
  O  O101  1  0.14046876  0.50050008  0.57657782  1
  O  O102  1  0.31896142  0.84169397  0.25497470  1
  O  O103  1  0.53227445  0.68583233  0.25682822  1
  O  O104  1  0.16532814  0.47340374  0.25650269  1
  O  O105  1  0.30807460  0.47340374  0.75650269  1
  O  O106  1  0.15355688  0.68583233  0.75682822  1
  O  O107  1  0.52273155  0.84169397  0.75497470  1
