# generated using pymatgen
data_Na6Ca2Ti6Si5S7O48
_symmetry_space_group_name_H-M   'P 1'
_cell_length_a   17.73710887
_cell_length_b   8.93659638
_cell_length_c   22.73111249
_cell_angle_alpha   89.90890255
_cell_angle_beta   90.29246218
_cell_angle_gamma   120.25492663
_symmetry_Int_Tables_number   1
_chemical_formula_structural   Na6Ca2Ti6Si5S7O48
_chemical_formula_sum   'Na18 Ca6 Ti18 Si15 S21 O144'
_cell_volume   3112.28240860
_cell_formula_units_Z   3
loop_
 _symmetry_equiv_pos_site_id
 _symmetry_equiv_pos_as_xyz
  1  'x, y, z'
loop_
 _atom_site_type_symbol
 _atom_site_label
 _atom_site_symmetry_multiplicity
 _atom_site_fract_x
 _atom_site_fract_y
 _atom_site_fract_z
 _atom_site_occupancy
  Na  Na0  1  0.66305879  0.35439176  0.58641077  1
  Na  Na1  1  0.51457005  0.67910566  0.58840839  1
  Na  Na2  1  0.82220577  0.97157962  0.58641195  1
  Na  Na3  1  0.16228009  0.96991023  0.08949941  1
  Na  Na4  1  0.32192086  0.67598963  0.08880808  1
  Na  Na5  1  0.01480526  0.35261120  0.09201144  1
  Na  Na6  1  0.00929266  0.00100871  0.49419455  1
  Na  Na7  1  0.49249205  0.00015228  0.49821667  1
  Na  Na8  1  0.99455214  0.98741731  0.00145387  1
  Na  Na9  1  0.50760718  0.01326419  0.99862649  1
  Na  Na10  1  0.32977708  0.32452984  0.82802582  1
  Na  Na11  1  0.82868821  0.32697254  0.83601477  1
  Na  Na12  1  0.32533778  0.32724278  0.33619923  1
  Na  Na13  1  0.83395481  0.33759555  0.32941963  1
  Na  Na14  1  0.16326149  0.66269435  0.16270904  1
  Na  Na15  1  0.66970728  0.66964526  0.16680575  1
  Na  Na16  1  0.17013953  0.66827830  0.66125248  1
  Na  Na17  1  0.66440755  0.66491402  0.65652411  1
  Ca  Ca18  1  0.32936418  0.32827394  0.69279093  1
  Ca  Ca19  1  0.83515517  0.33242887  0.68964973  1
  Ca  Ca20  1  0.33563186  0.33795333  0.18999526  1
  Ca  Ca21  1  0.82903254  0.33162643  0.19326725  1
  Ca  Ca22  1  0.16546078  0.66808292  0.00930758  1
  Ca  Ca23  1  0.66556670  0.66424003  0.50918745  1
  Ti  Ti24  1  0.00392179  0.99166633  0.35717472  1
  Ti  Ti25  1  0.49892461  0.99545301  0.35413524  1
  Ti  Ti26  1  0.99974533  0.00204095  0.85362379  1
  Ti  Ti27  1  0.50417555  0.00070298  0.85187934  1
  Ti  Ti28  1  0.00969370  0.01131732  0.64415627  1
  Ti  Ti29  1  0.48944294  0.00446643  0.64075778  1
  Ti  Ti30  1  0.99180516  0.97745924  0.14586173  1
  Ti  Ti31  1  0.50482041  0.00897148  0.15022084  1
  Ti  Ti32  1  0.32854920  0.31273556  0.98803254  1
  Ti  Ti33  1  0.82987443  0.35181413  0.97645149  1
  Ti  Ti34  1  0.32951577  0.30753109  0.47483847  1
  Ti  Ti35  1  0.83298553  0.35884264  0.48544523  1
  Ti  Ti36  1  0.67187236  0.67924646  0.01058531  1
  Ti  Ti37  1  0.16742902  0.66604182  0.50736492  1
  Ti  Ti38  1  0.16173488  0.65540634  0.32142626  1
  Ti  Ti39  1  0.67513569  0.68553203  0.30839189  1
  Ti  Ti40  1  0.17331265  0.66435439  0.80683707  1
  Ti  Ti41  1  0.67215459  0.67992909  0.81786863  1
  Si  Si42  1  0.63948606  0.98781683  0.25407742  1
  Si  Si43  1  0.85832231  0.72014072  0.25551807  1
  Si  Si44  1  0.13926154  0.29027687  0.75346808  1
  Si  Si45  1  0.35885419  0.99671497  0.75391087  1
  Si  Si46  1  0.47372015  0.33138974  0.58421637  1
  Si  Si47  1  0.68418864  0.04278757  0.58440147  1
  Si  Si48  1  0.83967728  0.64088891  0.58809335  1
  Si  Si49  1  0.97414713  0.62040928  0.08441297  1
  Si  Si50  1  0.34083240  0.03984226  0.08688923  1
  Si  Si51  1  0.18168340  0.32686529  0.08646386  1
  Si  Si52  1  0.81434945  0.67281676  0.91432907  1
  Si  Si53  1  0.66810915  0.96408048  0.91649886  1
  Si  Si54  1  0.31182792  0.95116342  0.41304512  1
  Si  Si55  1  0.16781236  0.37422454  0.41634835  1
  Si  Si56  1  0.01662351  0.65632457  0.41653821  1
  S  S57  1  0.13954917  0.98540993  0.25246410  1
  S  S58  1  0.35405977  0.72594518  0.25087528  1
  S  S59  1  0.01036649  0.28981826  0.25147360  1
  S  S60  1  0.50731816  0.28949063  0.25520930  1
  S  S61  1  0.63997335  0.29493119  0.75299967  1
  S  S62  1  0.00724210  0.72618526  0.75479766  1
  S  S63  1  0.50962350  0.72417528  0.75170447  1
  S  S64  1  0.85315054  0.98294039  0.75220705  1
  S  S65  1  0.98707506  0.33952163  0.58248031  1
  S  S66  1  0.18522139  0.02951079  0.58129180  1
  S  S67  1  0.32760287  0.62593887  0.58191541  1
  S  S68  1  0.48545643  0.63131353  0.08044214  1
  S  S69  1  0.82799187  0.03180326  0.08090178  1
  S  S70  1  0.68349245  0.33867472  0.07995882  1
  S  S71  1  0.31963693  0.66370822  0.91253645  1
  S  S72  1  0.01299693  0.36273807  0.91318915  1
  S  S73  1  0.52220769  0.38030979  0.91533059  1
  S  S74  1  0.16969765  0.97610457  0.91309785  1
  S  S75  1  0.81892788  0.97381592  0.41259859  1
  S  S76  1  0.66742206  0.36378313  0.41264075  1
  S  S77  1  0.51243095  0.66226332  0.41320197  1
  O  O78  1  0.09338172  0.99422221  0.30534855  1
  O  O79  1  0.57808083  0.98873828  0.30747552  1
  O  O80  1  0.40367374  0.83077866  0.30243023  1
  O  O81  1  0.91680965  0.83818535  0.31033292  1
  O  O82  1  0.49987429  0.18583056  0.30753690  1
  O  O83  1  0.01233824  0.18979452  0.30224022  1
  O  O84  1  0.07789088  0.16749836  0.80734533  1
  O  O85  1  0.59301115  0.18872149  0.80613412  1
  O  O86  1  0.51237289  0.83163639  0.80360766  1
  O  O87  1  0.99949278  0.81399230  0.80794152  1
  O  O88  1  0.41743123  0.99505183  0.80998452  1
  O  O89  1  0.90241440  0.97608881  0.80398880  1
  O  O90  1  0.40517854  0.97159379  0.69463440  1
  O  O91  1  0.89308637  0.97273422  0.69604987  1
  O  O92  1  0.08366675  0.19120385  0.69264439  1
  O  O93  1  0.59276639  0.20902353  0.69790869  1
  O  O94  1  0.01326369  0.82427514  0.70029448  1
  O  O95  1  0.51790070  0.81570184  0.69576213  1
  O  O96  1  0.39896935  0.82136802  0.19415617  1
  O  O97  1  0.90474184  0.83720400  0.19541835  1
  O  O98  1  0.01623851  0.21164629  0.19390097  1
  O  O99  1  0.51173766  0.19948922  0.19991019  1
  O  O100  1  0.09171565  0.98024648  0.19675288  1
  O  O101  1  0.58330914  0.97632026  0.19271645  1
  O  O102  1  0.44072588  0.39154731  0.63868954  1
  O  O103  1  0.95548104  0.36704883  0.63786552  1
  O  O104  1  0.23408197  0.09963109  0.63491446  1
  O  O105  1  0.74904940  0.10936793  0.63949890  1
  O  O106  1  0.31193111  0.53328400  0.63713709  1
  O  O107  1  0.81707535  0.51759229  0.64290004  1
  O  O108  1  0.45516759  0.53956738  0.13562388  1
  O  O109  1  0.93859046  0.48575258  0.13659057  1
  O  O110  1  0.31925793  0.12088480  0.14114301  1
  O  O111  1  0.80857316  0.08658662  0.13573329  1
  O  O112  1  0.25079880  0.39055883  0.13861552  1
  O  O113  1  0.73420895  0.37654853  0.13328636  1
  O  O114  1  0.23799855  0.29488278  0.02812402  1
  O  O115  1  0.72518054  0.30911015  0.02720215  1
  O  O116  1  0.42410402  0.53767078  0.02968077  1
  O  O117  1  0.91053575  0.51778021  0.02424363  1
  O  O118  1  0.35266003  0.16819684  0.02615447  1
  O  O119  1  0.83935570  0.14367456  0.02979585  1
  O  O120  1  0.22497248  0.13914293  0.52815671  1
  O  O121  1  0.73898312  0.18395485  0.52783069  1
  O  O122  1  0.34075540  0.53987090  0.53095634  1
  O  O123  1  0.85372274  0.54377329  0.52771187  1
  O  O124  1  0.41069481  0.30908948  0.52507309  1
  O  O125  1  0.92674549  0.30801638  0.53198485  1
  O  O126  1  0.29101355  0.69754913  0.96869258  1
  O  O127  1  0.76245423  0.69335137  0.97068322  1
  O  O128  1  0.05772084  0.41362128  0.96994404  1
  O  O129  1  0.57690855  0.46436785  0.96862604  1
  O  O130  1  0.15375213  0.89091216  0.97020673  1
  O  O131  1  0.65288092  0.83199459  0.97203907  1
  O  O132  1  0.26581926  0.83325907  0.47137386  1
  O  O133  1  0.79000287  0.88043390  0.46852351  1
  O  O134  1  0.15246011  0.47189521  0.47235218  1
  O  O135  1  0.65139738  0.41708243  0.46989106  1
  O  O136  1  0.08195030  0.69126945  0.47281884  1
  O  O137  1  0.55691301  0.70000661  0.47023087  1
  O  O138  1  0.06534562  0.62686609  0.35931875  1
  O  O139  1  0.56337278  0.64511044  0.36537099  1
  O  O140  1  0.24850958  0.85820301  0.35597735  1
  O  O141  1  0.75528709  0.86124998  0.36426456  1
  O  O142  1  0.18510962  0.50202579  0.35892846  1
  O  O143  1  0.67448384  0.48127008  0.36452688  1
  O  O144  1  0.06404540  0.48332475  0.86530368  1
  O  O145  1  0.56528149  0.48793828  0.86238817  1
  O  O146  1  0.17795000  0.87504124  0.86496930  1
  O  O147  1  0.68124839  0.85997591  0.85978145  1
  O  O148  1  0.25664561  0.64513594  0.86422263  1
  O  O149  1  0.75043042  0.64221298  0.85711151  1
  O  O150  1  0.00765318  0.82977568  0.40885807  1
  O  O151  1  0.49595824  0.81036018  0.40332240  1
  O  O152  1  0.41055077  0.98325002  0.40720349  1
  O  O153  1  0.90759867  0.00229772  0.40240073  1
  O  O154  1  0.08305053  0.18206487  0.40827296  1
  O  O155  1  0.59095254  0.18425829  0.40290943  1
  O  O156  1  0.99634934  0.18210885  0.90274877  1
  O  O157  1  0.51396368  0.20619590  0.91075884  1
  O  O158  1  0.09369010  0.00376375  0.90310434  1
  O  O159  1  0.58243805  0.98439638  0.90912475  1
  O  O160  1  0.40867068  0.81638247  0.90253742  1
  O  O161  1  0.91135933  0.83950689  0.90952689  1
  O  O162  1  0.47169399  0.14127646  0.59110943  1
  O  O163  1  0.98996264  0.17009693  0.58628450  1
  O  O164  1  0.09644029  0.01838446  0.58652451  1
  O  O165  1  0.58954653  0.04158282  0.59295584  1
  O  O166  1  0.41489669  0.79953768  0.58643857  1
  O  O167  1  0.93020088  0.83415621  0.59608775  1
  O  O168  1  0.48940659  0.80439799  0.08313204  1
  O  O169  1  0.97370417  0.80642670  0.09342877  1
  O  O170  1  0.43116477  0.02665820  0.09383752  1
  O  O171  1  0.91240744  0.02770614  0.08516610  1
  O  O172  1  0.08919090  0.13985002  0.09222092  1
  O  O173  1  0.59656929  0.17373969  0.08594767  1
  O  O174  1  0.34752191  0.15981085  0.75753000  1
  O  O175  1  0.84788137  0.14082433  0.75727374  1
  O  O176  1  0.23409553  0.32036821  0.75873636  1
  O  O177  1  0.72719589  0.31402390  0.75605974  1
  O  O178  1  0.42903873  0.55791374  0.75636347  1
  O  O179  1  0.93166388  0.55064549  0.75517071  1
  O  O180  1  0.35280429  0.56110878  0.25425120  1
  O  O181  1  0.84555826  0.53295283  0.25744496  1
  O  O182  1  0.43161608  0.31223882  0.25440748  1
  O  O183  1  0.93072543  0.30050841  0.25334458  1
  O  O184  1  0.22638799  0.14258444  0.25412254  1
  O  O185  1  0.73414776  0.14779887  0.25856454  1
  O  O186  1  0.32591142  0.50496128  0.91406781  1
  O  O187  1  0.81854555  0.49446289  0.92283649  1
  O  O188  1  0.43539425  0.36419638  0.92150374  1
  O  O189  1  0.92565774  0.34948482  0.91584676  1
  O  O190  1  0.25171484  0.15167756  0.91632728  1
  O  O191  1  0.75409807  0.15141207  0.92727521  1
  O  O192  1  0.31991083  0.14288851  0.42272287  1
  O  O193  1  0.82055520  0.13922893  0.41296348  1
  O  O194  1  0.25318544  0.35421003  0.42882974  1
  O  O195  1  0.74870440  0.35268690  0.41534397  1
  O  O196  1  0.42508069  0.50134807  0.41560552  1
  O  O197  1  0.92182889  0.48461000  0.42792800  1
  O  O198  1  0.16098174  0.47779170  0.07269416  1
  O  O199  1  0.66619600  0.48352117  0.06823549  1
  O  O200  1  0.07456974  0.68029630  0.07258919  1
  O  O201  1  0.57375627  0.65720864  0.06905801  1
  O  O202  1  0.26258165  0.84778751  0.07400469  1
  O  O203  1  0.75437546  0.84680145  0.07077604  1
  O  O204  1  0.16867942  0.85092827  0.57290982  1
  O  O205  1  0.66028981  0.84695273  0.57186148  1
  O  O206  1  0.25617908  0.66600971  0.57325668  1
  O  O207  1  0.76217270  0.67916176  0.57512877  1
  O  O208  1  0.07669884  0.48584871  0.57291530  1
  O  O209  1  0.57481673  0.47010433  0.57319956  1
  O  O210  1  0.14396530  0.82409501  0.25347750  1
  O  O211  1  0.63900079  0.79991278  0.26006014  1
  O  O212  1  0.26676669  0.70744749  0.25028744  1
  O  O213  1  0.76078418  0.71168058  0.26028106  1
  O  O214  1  0.09047176  0.46902574  0.25363278  1
  O  O215  1  0.59048168  0.45828547  0.25688154  1
  O  O216  1  0.13963758  0.47817580  0.76006957  1
  O  O217  1  0.64328047  0.46434790  0.75761927  1
  O  O218  1  0.09026953  0.72126652  0.75893376  1
  O  O219  1  0.58792666  0.70214624  0.75755284  1
  O  O220  1  0.26129932  0.81091495  0.76059854  1
  O  O221  1  0.76349112  0.82364625  0.75480861  1
