# generated using pymatgen
data_Na3Nb8Zn4P15(SO24)3
_symmetry_space_group_name_H-M   'P 1'
_cell_length_a   8.77487347
_cell_length_b   8.77017647
_cell_length_c   22.75369773
_cell_angle_alpha   89.91186220
_cell_angle_beta   90.15616686
_cell_angle_gamma   119.86623831
_symmetry_Int_Tables_number   1
_chemical_formula_structural   Na3Nb8Zn4P15(SO24)3
_chemical_formula_sum   'Na3 Nb8 Zn4 P15 S3 O72'
_cell_volume   1518.49716312
_cell_formula_units_Z   1
loop_
 _symmetry_equiv_pos_site_id
 _symmetry_equiv_pos_as_xyz
  1  'x, y, z'
loop_
 _atom_site_type_symbol
 _atom_site_label
 _atom_site_symmetry_multiplicity
 _atom_site_fract_x
 _atom_site_fract_y
 _atom_site_fract_z
 _atom_site_occupancy
  Na  Na0  1  0.99987716  0.99706244  0.99361433  1
  Na  Na1  1  0.66371125  0.33316587  0.83947034  1
  Na  Na2  1  0.66326009  0.33417206  0.33753325  1
  Nb  Nb3  1  0.00485573  0.00564936  0.35641753  1
  Nb  Nb4  1  0.00218976  0.00059649  0.64497142  1
  Nb  Nb5  1  0.99979279  0.99882470  0.14637837  1
  Nb  Nb6  1  0.66516490  0.33258404  0.68758942  1
  Nb  Nb7  1  0.66672682  0.33517040  0.18725949  1
  Nb  Nb8  1  0.33972252  0.67479544  0.02243287  1
  Nb  Nb9  1  0.33061168  0.65748940  0.52410250  1
  Nb  Nb10  1  0.34183203  0.67335701  0.81093813  1
  Zn  Zn11  1  0.99943322  0.99335668  0.85247564  1
  Zn  Zn12  1  0.65977831  0.33265693  0.98071818  1
  Zn  Zn13  1  0.66017479  0.33315602  0.48386152  1
  Zn  Zn14  1  0.33533962  0.66120542  0.30931945  1
  P  P15  1  0.28882653  0.99532525  0.25095010  1
  P  P16  1  0.70983503  0.71355779  0.25117661  1
  P  P17  1  0.00288140  0.29154423  0.25043629  1
  P  P18  1  0.28473522  0.28502802  0.75216529  1
  P  P19  1  0.99952449  0.71286929  0.75159311  1
  P  P20  1  0.71834555  0.00275685  0.75162060  1
  P  P21  1  0.94781845  0.32956162  0.58136233  1
  P  P22  1  0.37995649  0.04646251  0.58137782  1
  P  P23  1  0.67078205  0.62089965  0.58177282  1
  P  P24  1  0.95239470  0.61882375  0.08105963  1
  P  P25  1  0.66966531  0.05083649  0.08155887  1
  P  P26  1  0.37832894  0.33244679  0.08157239  1
  P  P27  1  0.62818773  0.66696785  0.91691371  1
  P  P28  1  0.33342033  0.96146394  0.91655418  1
  P  P29  1  0.34293435  0.38344109  0.41453918  1
  S  S30  1  0.04359075  0.37678168  0.91666103  1
  S  S31  1  0.61893935  0.95704118  0.41524363  1
  S  S32  1  0.04259051  0.66154709  0.41514247  1
  O  O33  1  0.19958478  0.03381389  0.30503189  1
  O  O34  1  0.83516733  0.80056545  0.30500888  1
  O  O35  1  0.96554292  0.16554288  0.30479961  1
  O  O36  1  0.21422419  0.17433847  0.80590857  1
  O  O37  1  0.95755921  0.78206468  0.80526679  1
  O  O38  1  0.82600803  0.04076717  0.80604615  1
  O  O39  1  0.79959253  0.97276176  0.69518553  1
  O  O40  1  0.17328434  0.20069265  0.69539640  1
  O  O41  1  0.02786362  0.82612216  0.69527049  1
  O  O42  1  0.80694162  0.82646952  0.19583736  1
  O  O43  1  0.02032713  0.19374757  0.19590590  1
  O  O44  1  0.17414219  0.97851246  0.19606300  1
  O  O45  1  0.86792875  0.36373797  0.63752157  1
  O  O46  1  0.49497220  0.13032506  0.63755526  1
  O  O47  1  0.63523777  0.50510979  0.63762843  1
  O  O48  1  0.86625753  0.50510218  0.13805480  1
  O  O49  1  0.63900297  0.13379098  0.13821637  1
  O  O50  1  0.49407251  0.36162154  0.13816762  1
  O  O51  1  0.44982631  0.29140692  0.02831100  1
  O  O52  1  0.84044342  0.54607646  0.02764111  1
  O  O53  1  0.70663307  0.15977159  0.02753372  1
  O  O54  1  0.45138064  0.15581491  0.52769778  1
  O  O55  1  0.70587883  0.54936335  0.52756772  1
  O  O56  1  0.84253044  0.29742149  0.52685291  1
  O  O57  1  0.52396791  0.68660825  0.97126568  1
  O  O58  1  0.15655755  0.46651360  0.97026954  1
  O  O59  1  0.31101164  0.83748194  0.97141964  1
  O  O60  1  0.53935931  0.84420712  0.46965278  1
  O  O61  1  0.30651083  0.46929641  0.47150891  1
  O  O62  1  0.15580139  0.69639165  0.46985015  1
  O  O63  1  0.12445135  0.63998314  0.36333148  1
  O  O64  1  0.51410206  0.87744276  0.36332738  1
  O  O65  1  0.36214667  0.49219951  0.36151539  1
  O  O66  1  0.13302781  0.48981637  0.86305036  1
  O  O67  1  0.35325183  0.85731537  0.86199958  1
  O  O68  1  0.50411194  0.64438585  0.86182040  1
  O  O69  1  0.02883784  0.82828059  0.40882200  1
  O  O70  1  0.79854044  0.96874776  0.40870082  1
  O  O71  1  0.16671278  0.19648201  0.40710697  1
  O  O72  1  0.03380899  0.20656216  0.91236044  1
  O  O73  1  0.16490233  0.96775464  0.91302798  1
  O  O74  1  0.80020745  0.83758305  0.91320872  1
  O  O75  1  0.98022031  0.17462287  0.59540942  1
  O  O76  1  0.19429150  0.01931242  0.59586333  1
  O  O77  1  0.82605932  0.80694647  0.59586371  1
  O  O78  1  0.98035479  0.80731672  0.09398068  1
  O  O79  1  0.82773947  0.01946427  0.09386104  1
  O  O80  1  0.19110240  0.17195543  0.09448670  1
  O  O81  1  0.68682214  0.16187285  0.73921756  1
  O  O82  1  0.47429515  0.31317338  0.73905792  1
  O  O83  1  0.83791608  0.52416999  0.73849596  1
  O  O84  1  0.69969741  0.53017206  0.24170484  1
  O  O85  1  0.82914197  0.29957566  0.24187717  1
  O  O86  1  0.46985918  0.16915707  0.24190379  1
  O  O87  1  0.63437621  0.49832559  0.92028898  1
  O  O88  1  0.87327532  0.36706489  0.92104366  1
  O  O89  1  0.50406202  0.13349677  0.92018750  1
  O  O90  1  0.64895634  0.13474644  0.42347438  1
  O  O91  1  0.49462857  0.35069731  0.42355641  1
  O  O92  1  0.86675385  0.51197244  0.42345192  1
  O  O93  1  0.35527771  0.49584877  0.07453229  1
  O  O94  1  0.13884371  0.64128827  0.07455277  1
  O  O95  1  0.50481996  0.86275046  0.07544065  1
  O  O96  1  0.35596898  0.85841942  0.57276522  1
  O  O97  1  0.50480731  0.64481569  0.57385105  1
  O  O98  1  0.13754074  0.49653101  0.57394311  1
  O  O99  1  0.30727694  0.83822423  0.25901459  1
  O  O100  1  0.53329737  0.69487513  0.25669538  1
  O  O101  1  0.15901259  0.46829177  0.25716240  1
  O  O102  1  0.30883537  0.47227694  0.75881207  1
  O  O103  1  0.16178630  0.68778902  0.75881318  1
  O  O104  1  0.52937472  0.83892226  0.75786874  1
