# generated using pymatgen
data_Na10Ca6Hf2Si3(S3O16)3
_symmetry_space_group_name_H-M   'P 1'
_cell_length_a   18.67780349
_cell_length_b   9.35124912
_cell_length_c   23.22095031
_cell_angle_alpha   89.99416545
_cell_angle_beta   90.02435427
_cell_angle_gamma   120.13244641
_symmetry_Int_Tables_number   1
_chemical_formula_structural   Na10Ca6Hf2Si3(S3O16)3
_chemical_formula_sum   'Na30 Ca18 Hf6 Si9 S27 O144'
_cell_volume   3507.71936893
_cell_formula_units_Z   3
loop_
 _symmetry_equiv_pos_site_id
 _symmetry_equiv_pos_as_xyz
  1  'x, y, z'
loop_
 _atom_site_type_symbol
 _atom_site_label
 _atom_site_symmetry_multiplicity
 _atom_site_fract_x
 _atom_site_fract_y
 _atom_site_fract_z
 _atom_site_occupancy
  Na  Na0  1  0.31493891  0.99638092  0.24458236  1
  Na  Na1  1  0.19112983  0.35393841  0.24993184  1
  Na  Na2  1  0.48952071  0.63539315  0.25628571  1
  Na  Na3  1  0.30757627  0.61169059  0.73073259  1
  Na  Na4  1  0.81499254  0.63555536  0.74303832  1
  Na  Na5  1  0.99695044  0.33126839  0.75452337  1
  Na  Na6  1  0.18090768  0.02677028  0.75664126  1
  Na  Na7  1  0.69069034  0.02788786  0.75015240  1
  Na  Na8  1  0.17300224  0.36000347  0.59411620  1
  Na  Na9  1  0.83299061  0.68987596  0.08353071  1
  Na  Na10  1  0.48558809  0.65635235  0.91706929  1
  Na  Na11  1  0.35596454  0.04990761  0.91589769  1
  Na  Na12  1  0.85129357  0.02847907  0.92177373  1
  Na  Na13  1  0.65725137  0.30692723  0.91405189  1
  Na  Na14  1  0.98363946  0.31129925  0.41606507  1
  Na  Na15  1  0.15502073  0.00796839  0.41098975  1
  Na  Na16  1  0.35211519  0.67021017  0.42407213  1
  Na  Na17  1  0.85474409  0.66164467  0.41430157  1
  Na  Na18  1  0.99329130  0.94949218  0.49976062  1
  Na  Na19  1  0.50421961  0.99357643  0.50609000  1
  Na  Na20  1  0.01073930  0.03712177  0.00395819  1
  Na  Na21  1  0.50254720  0.03842731  0.99843241  1
  Na  Na22  1  0.32590778  0.33366978  0.83689946  1
  Na  Na23  1  0.82914698  0.32451826  0.82706651  1
  Na  Na24  1  0.32760864  0.32948573  0.32681219  1
  Na  Na25  1  0.83202316  0.33869380  0.33772304  1
  Na  Na26  1  0.16162196  0.67243644  0.16369077  1
  Na  Na27  1  0.68341905  0.71164823  0.16144396  1
  Na  Na28  1  0.17763911  0.66937518  0.66182234  1
  Na  Na29  1  0.66359397  0.65028294  0.66256310  1
  Ca  Ca30  1  0.00138271  0.99092798  0.34507323  1
  Ca  Ca31  1  0.50325558  0.00389589  0.35150784  1
  Ca  Ca32  1  0.00375805  0.00811795  0.85149694  1
  Ca  Ca33  1  0.50377969  0.01607982  0.84608691  1
  Ca  Ca34  1  0.33720683  0.33881869  0.67897664  1
  Ca  Ca35  1  0.83154775  0.32857323  0.67967921  1
  Ca  Ca36  1  0.33033638  0.33170409  0.18009518  1
  Ca  Ca37  1  0.83362100  0.31840934  0.18074737  1
  Ca  Ca38  1  0.33373491  0.33461325  0.98621470  1
  Ca  Ca39  1  0.83574362  0.31143947  0.99419094  1
  Ca  Ca40  1  0.34192536  0.35148278  0.49077958  1
  Ca  Ca41  1  0.83268187  0.33347373  0.48599652  1
  Ca  Ca42  1  0.16355864  0.65949076  0.01661886  1
  Ca  Ca43  1  0.66272364  0.66416933  0.02060853  1
  Ca  Ca44  1  0.16575703  0.67665004  0.52031713  1
  Ca  Ca45  1  0.66412569  0.66737497  0.51664791  1
  Ca  Ca46  1  0.67033423  0.67097328  0.31377571  1
  Ca  Ca47  1  0.16455595  0.65182506  0.81671408  1
  Hf  Hf48  1  0.99572641  0.00490092  0.65426287  1
  Hf  Hf49  1  0.50276611  0.01017984  0.64952935  1
  Hf  Hf50  1  0.00179574  -0.00046561  0.15177824  1
  Hf  Hf51  1  0.49506256  0.99419235  0.15236839  1
  Hf  Hf52  1  0.16103315  0.67224622  0.31046386  1
  Hf  Hf53  1  0.66101673  0.64970663  0.81121591  1
  Si  Si54  1  0.15162699  0.00314087  0.25398278  1
  Si  Si55  1  0.34954361  0.70110414  0.25617773  1
  Si  Si56  1  0.15163332  0.29877017  0.74775553  1
  Si  Si57  1  0.65231002  0.30145957  0.75352748  1
  Si  Si58  1  0.84838116  0.99871431  0.75742473  1
  Si  Si59  1  0.33589628  0.65123522  0.58460285  1
  Si  Si60  1  0.83718362  0.01894034  0.08088368  1
  Si  Si61  1  0.51550583  0.36954482  0.91668040  1
  Si  Si62  1  0.01531634  0.66195740  0.41561253  1
  S  S63  1  0.64490484  0.99511534  0.24746826  1
  S  S64  1  0.84808705  0.69895885  0.24713437  1
  S  S65  1  0.00348961  0.29988143  0.25331637  1
  S  S66  1  0.50359675  0.29987403  0.24629757  1
  S  S67  1  0.00279596  0.71115053  0.74685865  1
  S  S68  1  0.50366361  0.71025637  0.75206889  1
  S  S69  1  0.34937537  0.99376808  0.74893619  1
  S  S70  1  0.49041105  0.32956743  0.58617729  1
  S  S71  1  0.98489676  0.31688501  0.58475117  1
  S  S72  1  0.17274909  0.03020337  0.58624152  1
  S  S73  1  0.67559710  0.02295104  0.58790110  1
  S  S74  1  0.83811012  0.65387601  0.58489674  1
  S  S75  1  0.48536816  0.65279085  0.08706640  1
  S  S76  1  0.98628234  0.64562490  0.08781285  1
  S  S77  1  0.33771125  0.02237740  0.08491626  1
  S  S78  1  0.17611628  0.32892402  0.08843947  1
  S  S79  1  0.67578101  0.31940546  0.08408158  1
  S  S80  1  0.31944729  0.66885300  0.91560411  1
  S  S81  1  0.80944980  0.65720368  0.91376023  1
  S  S82  1  0.00995199  0.36044496  0.91527697  1
  S  S83  1  0.16882825  0.96699844  0.91565539  1
  S  S84  1  0.66693866  0.95979897  0.91187141  1
  S  S85  1  0.31019318  0.96107154  0.41138147  1
  S  S86  1  0.81808370  0.96797549  0.41690854  1
  S  S87  1  0.16708159  0.37539957  0.41387862  1
  S  S88  1  0.66874263  0.37167936  0.41768250  1
  S  S89  1  0.51277665  0.66258518  0.41281827  1
  O  O90  1  0.12220340  0.04157248  0.31453949  1
  O  O91  1  0.60700211  0.00644583  0.30151447  1
  O  O92  1  0.40217683  0.77785125  0.31416580  1
  O  O93  1  0.88794711  0.77325212  0.30272842  1
  O  O94  1  0.49621404  0.20524591  0.29880094  1
  O  O95  1  0.99263052  0.21555311  0.30868443  1
  O  O96  1  0.10590553  0.17503663  0.80029167  1
  O  O97  1  0.62347679  0.20320212  0.81400871  1
  O  O98  1  0.49047610  0.77272622  0.80717400  1
  O  O99  1  0.98553485  0.77744142  0.79897146  1
  O  O100  1  0.38843029  0.00526834  0.80532034  1
  O  O101  1  0.89847190  0.02553527  0.81640982  1
  O  O102  1  0.40329982  0.98799981  0.70189614  1
  O  O103  1  0.90347924  0.97449323  0.70320128  1
  O  O104  1  0.09145413  0.19676841  0.68887939  1
  O  O105  1  0.58783987  0.18696404  0.70127245  1
  O  O106  1  0.00772796  0.81571814  0.69555608  1
  O  O107  1  0.51276075  0.82468461  0.70383141  1
  O  O108  1  0.40435256  0.83693231  0.20159219  1
  O  O109  1  0.90188206  0.81033224  0.19839415  1
  O  O110  1  0.01059897  0.20123240  0.20498678  1
  O  O111  1  0.50915975  0.20648494  0.19498861  1
  O  O112  1  0.08845623  0.99228487  0.20154624  1
  O  O113  1  0.59074055  0.99318082  0.19795329  1
  O  O114  1  0.44830235  0.33866265  0.63806235  1
  O  O115  1  0.94556611  0.33576607  0.63685923  1
  O  O116  1  0.22036353  0.11575616  0.63844462  1
  O  O117  1  0.72043510  0.09465697  0.64229604  1
  O  O118  1  0.32338252  0.53066174  0.63929467  1
  O  O119  1  0.83278889  0.55787709  0.63702191  1
  O  O120  1  0.44317492  0.55351928  0.13844232  1
  O  O121  1  0.94569794  0.54961252  0.13919599  1
  O  O122  1  0.33165480  0.10568724  0.13710284  1
  O  O123  1  0.82886879  0.12968456  0.13024121  1
  O  O124  1  0.22118709  0.34823435  0.14275605  1
  O  O125  1  0.73246343  0.33966161  0.13118429  1
  O  O126  1  0.21838756  0.30868134  0.03823256  1
  O  O127  1  0.70690719  0.29454141  0.02769440  1
  O  O128  1  0.43753877  0.57919123  0.03352606  1
  O  O129  1  0.93430376  0.57383153  0.03556273  1
  O  O130  1  0.34637271  0.11714366  0.03173076  1
  O  O131  1  0.85101862  0.10354221  0.01682699  1
  O  O132  1  0.21423046  0.12932258  0.53352239  1
  O  O133  1  0.71800160  0.12786767  0.53778146  1
  O  O134  1  0.34956711  0.57674368  0.52395598  1
  O  O135  1  0.84541982  0.57469068  0.53151518  1
  O  O136  1  0.44236792  0.30631850  0.53311304  1
  O  O137  1  0.93805092  0.30301986  0.53179051  1
  O  O138  1  0.27261682  0.68177248  0.96440868  1
  O  O139  1  0.77156000  0.67541337  0.96669904  1
  O  O140  1  0.06030834  0.46451701  0.96349237  1
  O  O141  1  0.57230253  0.45754724  0.97151466  1
  O  O142  1  0.16892262  0.86561188  0.96432924  1
  O  O143  1  0.66496985  0.86497022  0.96253999  1
  O  O144  1  0.27157206  0.85873129  0.46212889  1
  O  O145  1  0.77531120  0.86734568  0.46803963  1
  O  O146  1  0.16543731  0.46177518  0.46628594  1
  O  O147  1  0.66588495  0.45819754  0.46994527  1
  O  O148  1  0.07227583  0.68931664  0.47057327  1
  O  O149  1  0.56159302  0.65913290  0.46174885  1
  O  O150  1  0.06978430  0.64948904  0.35834273  1
  O  O151  1  0.55244973  0.66427576  0.35687639  1
  O  O152  1  0.26048043  0.86747460  0.35794890  1
  O  O153  1  0.77228440  0.88678288  0.36362885  1
  O  O154  1  0.17411712  0.47690254  0.36111233  1
  O  O155  1  0.67267124  0.46636170  0.36523230  1
  O  O156  1  0.04875619  0.43651450  0.85894103  1
  O  O157  1  0.56851666  0.48990963  0.85885248  1
  O  O158  1  0.17227150  0.89076940  0.85960338  1
  O  O159  1  0.67267112  0.87578620  0.85775819  1
  O  O160  1  0.27797876  0.66029956  0.86006896  1
  O  O161  1  0.75712566  0.65415373  0.86197283  1
  O  O162  1  0.00101610  0.82195375  0.41164994  1
  O  O163  1  0.50342224  0.81243672  0.41860184  1
  O  O164  1  0.39523472  0.99015628  0.40671126  1
  O  O165  1  0.90302571  0.98753826  0.41545916  1
  O  O166  1  0.08927141  0.21254700  0.41156150  1
  O  O167  1  0.59627325  0.20160396  0.41686487  1
  O  O168  1  0.00184234  0.19348475  0.92151304  1
  O  O169  1  0.50202368  0.18124701  0.91301866  1
  O  O170  1  0.09541618  0.98710073  0.91919048  1
  O  O171  1  0.58910026  0.96753968  0.91125638  1
  O  O172  1  0.40457373  0.81882326  0.91646728  1
  O  O173  1  0.89342421  0.80088325  0.90869015  1
  O  O174  1  0.50036207  0.17756660  0.59132875  1
  O  O175  1  0.98758271  0.15707118  0.58935516  1
  O  O176  1  0.08912981  0.02122433  0.58860626  1
  O  O177  1  0.59102383  0.01016820  0.59193702  1
  O  O178  1  0.41999831  0.83749701  0.59757633  1
  O  O179  1  0.91634335  0.82127793  0.58867260  1
  O  O180  1  0.49149323  0.82144579  0.09368410  1
  O  O181  1  0.99469417  0.81640840  0.09396304  1
  O  O182  1  0.41675712  0.01250961  0.08952932  1
  O  O183  1  0.92296811  0.00214177  0.09518242  1
  O  O184  1  0.09172507  0.17299243  0.09270173  1
  O  O185  1  0.59121730  0.16847006  0.09393054  1
  O  O186  1  0.33532790  0.13427803  0.74192533  1
  O  O187  1  0.83883477  0.16043566  0.74573808  1
  O  O188  1  0.24534110  0.32450994  0.74486427  1
  O  O189  1  0.74761168  0.34578934  0.74264725  1
  O  O190  1  0.43504788  0.54287804  0.74230383  1
  O  O191  1  0.93488229  0.53890907  0.73836916  1
  O  O192  1  0.33936424  0.51911068  0.24571214  1
  O  O193  1  0.83958111  0.53462087  0.24166547  1
  O  O194  1  0.42722529  0.31176675  0.24089574  1
  O  O195  1  0.93726645  0.33767455  0.24421677  1
  O  O196  1  0.24708649  0.15061845  0.24415339  1
  O  O197  1  0.72893005  0.13431214  0.24263072  1
  O  O198  1  0.32892373  0.52018527  0.92040829  1
  O  O199  1  0.80861307  0.49779988  0.91254297  1
  O  O200  1  0.42468909  0.35906237  0.91661727  1
  O  O201  1  0.92529736  0.34064652  0.91593352  1
  O  O202  1  0.24768502  0.13166065  0.91833616  1
  O  O203  1  0.74027406  0.13026367  0.91256318  1
  O  O204  1  0.30868938  0.11867117  0.41266925  1
  O  O205  1  0.82852824  0.13675286  0.42047595  1
  O  O206  1  0.24048534  0.35122721  0.41357895  1
  O  O207  1  0.74787434  0.36565597  0.41834981  1
  O  O208  1  0.42733430  0.51270426  0.41299189  1
  O  O209  1  0.92479376  0.48981844  0.41499766  1
  O  O210  1  0.16218953  0.47040196  0.08220498  1
  O  O211  1  0.66701937  0.46781987  0.08264236  1
  O  O212  1  0.07063783  0.67038758  0.08184521  1
  O  O213  1  0.56981870  0.68082241  0.08406128  1
  O  O214  1  0.26606302  0.85255534  0.08229365  1
  O  O215  1  0.76252725  0.82541708  0.08314836  1
  O  O216  1  0.15987443  0.86228082  0.58457716  1
  O  O217  1  0.66119246  0.85347064  0.58206838  1
  O  O218  1  0.25123920  0.66225660  0.58388202  1
  O  O219  1  0.76561977  0.67783591  0.58293116  1
  O  O220  1  0.07190741  0.45323173  0.58160521  1
  O  O221  1  0.57451742  0.47577770  0.58324756  1
  O  O222  1  0.15613580  0.82732733  0.25434840  1
  O  O223  1  0.64207699  0.83256102  0.24390450  1
  O  O224  1  0.25687934  0.68700618  0.25655974  1
  O  O225  1  0.76680945  0.69043981  0.24209768  1
  O  O226  1  0.08729708  0.45997145  0.25355016  1
  O  O227  1  0.57601387  0.46840952  0.24650030  1
  O  O228  1  0.15313773  0.47640392  0.74651771  1
  O  O229  1  0.65622303  0.48560708  0.75488166  1
  O  O230  1  0.08340782  0.71565758  0.74937656  1
  O  O231  1  0.58523926  0.71219465  0.75413084  1
  O  O232  1  0.26833948  0.83613328  0.74479644  1
  O  O233  1  0.75541340  0.82641228  0.75687219  1
