# generated using pymatgen
data_Rb2PdI6
_symmetry_space_group_name_H-M   'P 1'
_cell_length_a   8.11734609
_cell_length_b   12.38152156
_cell_length_c   14.61077578
_cell_angle_alpha   90.00000000
_cell_angle_beta   90.00000000
_cell_angle_gamma   90.00000000
_symmetry_Int_Tables_number   1
_chemical_formula_structural   Rb2PdI6
_chemical_formula_sum   'Rb8 Pd4 I24'
_cell_volume   1468.45741690
_cell_formula_units_Z   4
loop_
 _symmetry_equiv_pos_site_id
 _symmetry_equiv_pos_as_xyz
  1  'x, y, z'
loop_
 _atom_site_type_symbol
 _atom_site_label
 _atom_site_symmetry_multiplicity
 _atom_site_fract_x
 _atom_site_fract_y
 _atom_site_fract_z
 _atom_site_occupancy
  Rb  Rb0  1  0.29039690  0.01318782  0.86058378  1
  Rb  Rb1  1  0.79039690  0.48681218  0.63941622  1
  Rb  Rb2  1  0.70960310  0.51318782  0.13941622  1
  Rb  Rb3  1  0.20960310  0.98681218  0.36058378  1
  Rb  Rb4  1  0.70960310  0.98681218  0.13941622  1
  Rb  Rb5  1  0.20960310  0.51318782  0.36058378  1
  Rb  Rb6  1  0.29039690  0.48681218  0.86058378  1
  Rb  Rb7  1  0.79039690  0.01318782  0.63941622  1
  Pd  Pd8  1  0.26514974  0.25000000  0.59905311  1
  Pd  Pd9  1  0.76514974  0.25000000  0.90094689  1
  Pd  Pd10  1  0.73485026  0.75000000  0.40094689  1
  Pd  Pd11  1  0.23485026  0.75000000  0.09905311  1
  I  I12  1  0.44830074  0.25000000  0.41478300  1
  I  I13  1  0.94830074  0.25000000  0.08521700  1
  I  I14  1  0.55169926  0.75000000  0.58521700  1
  I  I15  1  0.05169926  0.75000000  0.91478300  1
  I  I16  1  0.49016218  0.25000000  0.21962064  1
  I  I17  1  0.99016218  0.25000000  0.28037936  1
  I  I18  1  0.50983782  0.75000000  0.78037936  1
  I  I19  1  0.00983782  0.75000000  0.71962064  1
  I  I20  1  0.47959670  0.25000000  0.99459308  1
  I  I21  1  0.97959670  0.25000000  0.50540692  1
  I  I22  1  0.52040330  0.75000000  0.00540692  1
  I  I23  1  0.02040330  0.75000000  0.49459308  1
  I  I24  1  0.02578981  0.25000000  0.79326309  1
  I  I25  1  0.52578981  0.25000000  0.70673691  1
  I  I26  1  0.97421019  0.75000000  0.20673691  1
  I  I27  1  0.47421019  0.75000000  0.29326309  1
  I  I28  1  0.26533091  0.03486871  0.60563965  1
  I  I29  1  0.76533091  0.46513129  0.89436035  1
  I  I30  1  0.73466909  0.53486871  0.39436035  1
  I  I31  1  0.23466909  0.96513129  0.10563965  1
  I  I32  1  0.73466909  0.96513129  0.39436035  1
  I  I33  1  0.23466909  0.53486871  0.10563965  1
  I  I34  1  0.26533091  0.46513129  0.60563965  1
  I  I35  1  0.76533091  0.03486871  0.89436035  1
