# generated using pymatgen
data_MgFe2(NiO2)4
_symmetry_space_group_name_H-M   'P 1'
_cell_length_a   6.24873273
_cell_length_b   6.24990391
_cell_length_c   6.25013704
_cell_angle_alpha   59.99545566
_cell_angle_beta   60.00336854
_cell_angle_gamma   59.99008701
_symmetry_Int_Tables_number   1
_chemical_formula_structural   MgFe2(NiO2)4
_chemical_formula_sum   'Mg1 Fe2 Ni4 O8'
_cell_volume   172.58514931
_cell_formula_units_Z   1
loop_
 _symmetry_equiv_pos_site_id
 _symmetry_equiv_pos_as_xyz
  1  'x, y, z'
loop_
 _atom_site_type_symbol
 _atom_site_label
 _atom_site_symmetry_multiplicity
 _atom_site_fract_x
 _atom_site_fract_y
 _atom_site_fract_z
 _atom_site_occupancy
  Mg  Mg0  1  0.37506000  0.37503800  0.37491200  1
  Fe  Fe1  1  0.12513000  0.12503800  0.12487400  1
  Fe  Fe2  1  0.87491300  0.87496300  0.87510100  1
  Ni  Ni3  1  0.51865600  0.51861700  0.94409000  1
  Ni  Ni4  1  0.94400500  0.51860300  0.51874400  1
  Ni  Ni5  1  0.51856100  0.94406400  0.51867200  1
  Ni  Ni6  1  0.51856600  0.51865500  0.51868100  1
  O  O7  1  0.26139800  0.74616000  0.74622600  1
  O  O8  1  0.25223600  0.74354800  0.25210100  1
  O  O9  1  0.74361300  0.25219200  0.25207500  1
  O  O10  1  0.25221300  0.25214300  0.25216800  1
  O  O11  1  0.25224200  0.25220800  0.74338200  1
  O  O12  1  0.74613400  0.26142000  0.74625300  1
  O  O13  1  0.74611600  0.74617700  0.26151200  1
  O  O14  1  0.74615800  0.74617400  0.74620800  1
