# generated using pymatgen
data_Na10Zr4Ti4Si9(SO16)3
_symmetry_space_group_name_H-M   'P 1'
_cell_length_a   18.07142040
_cell_length_b   9.05026156
_cell_length_c   22.70601889
_cell_angle_alpha   90.03899903
_cell_angle_beta   89.93506400
_cell_angle_gamma   119.87297024
_symmetry_Int_Tables_number   1
_chemical_formula_structural   Na10Zr4Ti4Si9(SO16)3
_chemical_formula_sum   'Na30 Zr12 Ti12 Si27 S9 O144'
_cell_volume   3220.17337177
_cell_formula_units_Z   3
loop_
 _symmetry_equiv_pos_site_id
 _symmetry_equiv_pos_as_xyz
  1  'x, y, z'
loop_
 _atom_site_type_symbol
 _atom_site_label
 _atom_site_symmetry_multiplicity
 _atom_site_fract_x
 _atom_site_fract_y
 _atom_site_fract_z
 _atom_site_occupancy
  Na  Na0  1  0.31978477  0.99892423  0.24943724  1
  Na  Na1  1  0.82112945  0.00206896  0.24840927  1
  Na  Na2  1  0.18382209  0.98900762  0.74917155  1
  Na  Na3  1  0.68423704  0.99597422  0.74761299  1
  Na  Na4  1  0.01875194  0.70221277  0.57904527  1
  Na  Na5  1  0.51626229  0.70547597  0.57944744  1
  Na  Na6  1  0.01740709  0.33728877  0.07944372  1
  Na  Na7  1  0.51818791  0.32966500  0.07956141  1
  Na  Na8  1  0.48380788  0.66683141  0.91275105  1
  Na  Na9  1  0.35021488  0.03400080  0.91542111  1
  Na  Na10  1  0.85438935  0.04168297  0.91395827  1
  Na  Na11  1  0.16025981  0.29989324  0.91712465  1
  Na  Na12  1  0.48475571  0.30566083  0.41432665  1
  Na  Na13  1  0.98689616  0.30860043  0.41375993  1
  Na  Na14  1  0.16306649  0.02900608  0.41636732  1
  Na  Na15  1  0.66646378  0.02732838  0.41977792  1
  Na  Na16  1  0.34686932  0.66241152  0.41613432  1
  Na  Na17  1  0.85182726  0.66930293  0.41541827  1
  Na  Na18  1  0.00368869  0.00698612  0.50232768  1
  Na  Na19  1  0.50235707  0.00200018  0.50148774  1
  Na  Na20  1  0.00473873  0.98944704  0.00208041  1
  Na  Na21  1  0.50810488  0.01317745  0.99697629  1
  Na  Na22  1  0.34212303  0.34290145  0.83135860  1
  Na  Na23  1  0.84500321  0.35366075  0.83547973  1
  Na  Na24  1  0.33881861  0.35154712  0.33118526  1
  Na  Na25  1  0.84013272  0.35169741  0.32886828  1
  Na  Na26  1  0.17058717  0.66090102  0.16258648  1
  Na  Na27  1  0.67282443  0.65849100  0.16541103  1
  Na  Na28  1  0.17659537  0.67030422  0.66735966  1
  Na  Na29  1  0.67870658  0.67156811  0.66761544  1
  Zr  Zr30  1  0.49433123  0.99430090  0.35226043  1
  Zr  Zr31  1  0.49475469  0.98675776  0.64954128  1
  Zr  Zr32  1  0.49813843  0.00795895  0.14533004  1
  Zr  Zr33  1  0.33015667  0.33278725  0.68818752  1
  Zr  Zr34  1  0.83478729  0.33294225  0.68941375  1
  Zr  Zr35  1  0.32628728  0.33120657  0.18524692  1
  Zr  Zr36  1  0.32568697  0.31893733  0.97834311  1
  Zr  Zr37  1  0.32539342  0.32942019  0.48265273  1
  Zr  Zr38  1  0.83134693  0.33700946  0.48305280  1
  Zr  Zr39  1  0.67606145  0.67982091  0.51884690  1
  Zr  Zr40  1  0.16267179  0.65091042  0.31151291  1
  Zr  Zr41  1  0.66699734  0.65413185  0.31236687  1
  Ti  Ti42  1  0.99262290  0.99448591  0.35215939  1
  Ti  Ti43  1  0.99641472  0.99373898  0.85283655  1
  Ti  Ti44  1  0.49300443  0.99502737  0.85612168  1
  Ti  Ti45  1  0.99348021  0.97361244  0.64923372  1
  Ti  Ti46  1  0.99238462  0.01323505  0.14502997  1
  Ti  Ti47  1  0.83447112  0.34553302  0.18309884  1
  Ti  Ti48  1  0.82915486  0.31002445  0.98092539  1
  Ti  Ti49  1  0.17408461  0.67127289  0.01543930  1
  Ti  Ti50  1  0.67103281  0.66835392  0.01797682  1
  Ti  Ti51  1  0.17359558  0.67811861  0.51678797  1
  Ti  Ti52  1  0.16315489  0.67124366  0.81721754  1
  Ti  Ti53  1  0.66422596  0.68206782  0.81411193  1
  Si  Si54  1  0.35104044  0.70101588  0.24943289  1
  Si  Si55  1  0.86003740  0.71119818  0.24728017  1
  Si  Si56  1  0.99614131  0.28776623  0.24866188  1
  Si  Si57  1  0.49988207  0.30279137  0.24889222  1
  Si  Si58  1  0.00042865  0.70938349  0.75294568  1
  Si  Si59  1  0.49873399  0.70790638  0.75448176  1
  Si  Si60  1  0.34987809  0.99227954  0.75457084  1
  Si  Si61  1  0.85524485  0.99098735  0.75242060  1
  Si  Si62  1  0.18082762  0.02914553  0.58588158  1
  Si  Si63  1  0.68346581  0.03648805  0.58558732  1
  Si  Si64  1  0.32794954  0.62750096  0.58235455  1
  Si  Si65  1  0.83273307  0.62926884  0.58611636  1
  Si  Si66  1  0.32738584  0.02731873  0.08220208  1
  Si  Si67  1  0.82707693  0.03941179  0.08508159  1
  Si  Si68  1  0.18037839  0.33227992  0.08178014  1
  Si  Si69  1  0.69346740  0.33953272  0.08052933  1
  Si  Si70  1  0.30960349  0.66743439  0.91332078  1
  Si  Si71  1  0.02149532  0.38302945  0.91764349  1
  Si  Si72  1  0.52871481  0.38268137  0.91627048  1
  Si  Si73  1  0.15863220  0.94294125  0.91651645  1
  Si  Si74  1  0.66514813  0.95479461  0.91803150  1
  Si  Si75  1  0.31040179  0.95685185  0.41488144  1
  Si  Si76  1  0.81611192  0.96553117  0.41177244  1
  Si  Si77  1  0.16215552  0.37345222  0.41806473  1
  Si  Si78  1  0.66603092  0.37141458  0.41837712  1
  Si  Si79  1  0.02303606  0.67196990  0.41809900  1
  Si  Si80  1  0.52034573  0.66400940  0.41808296  1
  S  S81  1  0.13970544  0.99837033  0.24955619  1
  S  S82  1  0.64987069  0.00639019  0.24860224  1
  S  S83  1  0.13896884  0.28612029  0.75068409  1
  S  S84  1  0.64307060  0.29333406  0.75322245  1
  S  S85  1  0.48037223  0.33300351  0.58352618  1
  S  S86  1  0.98285122  0.32975994  0.58387527  1
  S  S87  1  0.48280529  0.62649519  0.08141924  1
  S  S88  1  0.97508245  0.62125011  0.08275840  1
  S  S89  1  0.81003724  0.66388268  0.91597160  1
  O  O90  1  0.10197547  0.01876143  0.30521867  1
  O  O91  1  0.60968314  0.02409771  0.30379109  1
  O  O92  1  0.40508995  0.78455420  0.31071019  1
  O  O93  1  0.91562823  0.80149549  0.30882943  1
  O  O94  1  0.48770822  0.18536834  0.30808198  1
  O  O95  1  0.98457755  0.16305214  0.30635666  1
  O  O96  1  0.10120249  0.18271280  0.80571203  1
  O  O97  1  0.60102202  0.18043866  0.80425935  1
  O  O98  1  0.49177978  0.81416093  0.81092419  1
  O  O99  1  0.99306825  0.82476799  0.80727030  1
  O  O100  1  0.41324361  0.01740827  0.81165031  1
  O  O101  1  0.91383593  0.01659800  0.81167763  1
  O  O102  1  0.39901229  0.97539420  0.69689914  1
  O  O103  1  0.90867742  0.97663551  0.69611896  1
  O  O104  1  0.08923929  0.20099001  0.69786878  1
  O  O105  1  0.59399699  0.21824938  0.69809929  1
  O  O106  1  0.01504080  0.82787502  0.69310679  1
  O  O107  1  0.52207379  0.82588093  0.69456772  1
  O  O108  1  0.40508137  0.82832152  0.19501437  1
  O  O109  1  0.91322387  0.84103181  0.19302945  1
  O  O110  1  0.00741607  0.19052985  0.19033040  1
  O  O111  1  0.51299118  0.21001731  0.19048580  1
  O  O112  1  0.09013801  0.98509673  0.19713612  1
  O  O113  1  0.59577672  0.98409137  0.19719654  1
  O  O114  1  0.43528639  0.35428824  0.63499991  1
  O  O115  1  0.93795228  0.35650322  0.63494852  1
  O  O116  1  0.24179638  0.12024096  0.64362121  1
  O  O117  1  0.74189840  0.12759336  0.64392888  1
  O  O118  1  0.32051355  0.50743018  0.63887001  1
  O  O119  1  0.82640422  0.50729367  0.64048276  1
  O  O120  1  0.43979795  0.51600528  0.13342833  1
  O  O121  1  0.93317273  0.50901051  0.13639912  1
  O  O122  1  0.31946065  0.12141049  0.14179958  1
  O  O123  1  0.81908227  0.13995670  0.14241030  1
  O  O124  1  0.24421562  0.36624536  0.13739989  1
  O  O125  1  0.75432572  0.36335324  0.13867440  1
  O  O126  1  0.22490898  0.30428331  0.02235502  1
  O  O127  1  0.74713520  0.31997553  0.02519187  1
  O  O128  1  0.43124675  0.55018026  0.02727453  1
  O  O129  1  0.92246496  0.53906360  0.03002266  1
  O  O130  1  0.34903562  0.15660167  0.02511093  1
  O  O131  1  0.84837034  0.16379577  0.02582521  1
  O  O132  1  0.22433919  0.14389727  0.52622523  1
  O  O133  1  0.73078288  0.14535394  0.52560357  1
  O  O134  1  0.35089399  0.54964975  0.52386505  1
  O  O135  1  0.85508737  0.55773432  0.52548988  1
  O  O136  1  0.43048137  0.30988863  0.52872801  1
  O  O137  1  0.93128844  0.30442001  0.52898647  1
  O  O138  1  0.26678859  0.70327053  0.97206877  1
  O  O139  1  0.77054107  0.69549201  0.96945152  1
  O  O140  1  0.08367515  0.46674895  0.97522584  1
  O  O141  1  0.58529021  0.47463417  0.97613778  1
  O  O142  1  0.14986390  0.82522881  0.97320559  1
  O  O143  1  0.65415234  0.82272552  0.97181857  1
  O  O144  1  0.26246631  0.82854339  0.47128491  1
  O  O145  1  0.77530059  0.83788282  0.46861347  1
  O  O146  1  0.14585929  0.47039088  0.47351103  1
  O  O147  1  0.64515933  0.45739659  0.47404377  1
  O  O148  1  0.08230591  0.70304695  0.47685242  1
  O  O149  1  0.57732238  0.69896809  0.47801144  1
  O  O150  1  0.06512343  0.63132462  0.36143329  1
  O  O151  1  0.56818799  0.63378855  0.36217827  1
  O  O152  1  0.25328973  0.88075356  0.35596291  1
  O  O153  1  0.75559364  0.88724445  0.35431500  1
  O  O154  1  0.18679183  0.49807869  0.36072903  1
  O  O155  1  0.68793332  0.49588788  0.36099207  1
  O  O156  1  0.07038540  0.50447299  0.86041825  1
  O  O157  1  0.58112907  0.51479295  0.86194809  1
  O  O158  1  0.17896943  0.86257092  0.85787987  1
  O  O159  1  0.68573565  0.87281863  0.85839392  1
  O  O160  1  0.24574429  0.63416360  0.85863618  1
  O  O161  1  0.75845581  0.64158353  0.86326605  1
  O  O162  1  0.01402719  0.84361069  0.40977841  1
  O  O163  1  0.51289613  0.83659682  0.41235706  1
  O  O164  1  0.40507446  0.97205109  0.41499243  1
  O  O165  1  0.91006315  0.97769875  0.40691981  1
  O  O166  1  0.07876713  0.18390262  0.40939747  1
  O  O167  1  0.58412742  0.18062428  0.41135203  1
  O  O168  1  0.00999920  0.18835516  0.90818587  1
  O  O169  1  0.51381849  0.18925203  0.90863394  1
  O  O170  1  0.07962228  0.98237521  0.90907564  1
  O  O171  1  0.57843127  0.96521654  0.91134517  1
  O  O172  1  0.40506305  0.84128623  0.90987015  1
  O  O173  1  0.89595527  0.82679881  0.91205425  1
  O  O174  1  0.49121021  0.18337431  0.58987682  1
  O  O175  1  0.99217385  0.17975470  0.59154625  1
  O  O176  1  0.08615551  0.01254136  0.59407571  1
  O  O177  1  0.58915098  0.02137040  0.58749706  1
  O  O178  1  0.41577339  0.81481519  0.58855135  1
  O  O179  1  0.92024860  0.81805480  0.59329728  1
  O  O180  1  0.49497769  0.79902330  0.08817651  1
  O  O181  1  0.98468157  0.79181710  0.09056979  1
  O  O182  1  0.41712965  0.01792442  0.08466518  1
  O  O183  1  0.91604925  0.02814942  0.09078546  1
  O  O184  1  0.08598824  0.15930069  0.09131812  1
  O  O185  1  0.59790112  0.17054283  0.08522465  1
  O  O186  1  0.33624981  0.15977549  0.75080287  1
  O  O187  1  0.83944545  0.15510541  0.74831232  1
  O  O188  1  0.22569367  0.29690083  0.74742902  1
  O  O189  1  0.72881549  0.30190078  0.74847698  1
  O  O190  1  0.41541937  0.51927768  0.74889906  1
  O  O191  1  0.91541694  0.52291446  0.74954745  1
  O  O192  1  0.34044057  0.51233010  0.24610978  1
  O  O193  1  0.84925118  0.52100663  0.23930011  1
  O  O194  1  0.40864227  0.29906451  0.24495222  1
  O  O195  1  0.90683688  0.29177088  0.24215411  1
  O  O196  1  0.22847707  0.15271602  0.24672997  1
  O  O197  1  0.73559613  0.16114407  0.24391938  1
  O  O198  1  0.32350381  0.50279653  0.91988131  1
  O  O199  1  0.82224438  0.51616347  0.92359220  1
  O  O200  1  0.43346320  0.36763532  0.92054921  1
  O  O201  1  0.92434973  0.35541271  0.92585031  1
  O  O202  1  0.24722094  0.13463110  0.91981332  1
  O  O203  1  0.75399273  0.14020385  0.92607926  1
  O  O204  1  0.32510064  0.14783975  0.42412337  1
  O  O205  1  0.83130057  0.15695464  0.42161092  1
  O  O206  1  0.24672939  0.35010759  0.42310382  1
  O  O207  1  0.75208687  0.35422926  0.42215945  1
  O  O208  1  0.42547465  0.49401702  0.42167835  1
  O  O209  1  0.92821864  0.50254331  0.42394096  1
  O  O210  1  0.16455849  0.49511826  0.07536304  1
  O  O211  1  0.67892462  0.50538812  0.07336343  1
  O  O212  1  0.05906693  0.62934508  0.07972983  1
  O  O213  1  0.56729871  0.63513913  0.07727290  1
  O  O214  1  0.24199634  0.84147593  0.07477769  1
  O  O215  1  0.74552231  0.85032943  0.07271151  1
  O  O216  1  0.16595835  0.83510755  0.57746173  1
  O  O217  1  0.66682933  0.84055287  0.58305050  1
  O  O218  1  0.24226228  0.64196856  0.57535183  1
  O  O219  1  0.74763339  0.64528016  0.58348694  1
  O  O220  1  0.06558050  0.49006387  0.57918053  1
  O  O221  1  0.56380754  0.49153674  0.58045770  1
  O  O222  1  0.15236044  0.84786469  0.25260721  1
  O  O223  1  0.66110405  0.85461106  0.25166145  1
  O  O224  1  0.26192521  0.70683236  0.25048859  1
  O  O225  1  0.76885960  0.71040343  0.25072436  1
  O  O226  1  0.08086155  0.47443044  0.25069998  1
  O  O227  1  0.58438334  0.49170101  0.24925440  1
  O  O228  1  0.15049654  0.45818675  0.75547550  1
  O  O229  1  0.65607180  0.46631750  0.75978489  1
  O  O230  1  0.08860962  0.70141344  0.75800839  1
  O  O231  1  0.58819880  0.69764469  0.76221693  1
  O  O232  1  0.25544858  0.82267611  0.76001660  1
  O  O233  1  0.75958451  0.82021522  0.75944493  1
