# generated using pymatgen
data_Na8Mg3Sn(PO4)6
_symmetry_space_group_name_H-M   'P 1'
_cell_length_a   9.02406112
_cell_length_b   9.02406081
_cell_length_c   22.00789700
_cell_angle_alpha   90.00000000
_cell_angle_beta   90.00000000
_cell_angle_gamma   120.00000113
_symmetry_Int_Tables_number   1
_chemical_formula_structural   Na8Mg3Sn(PO4)6
_chemical_formula_sum   'Na24 Mg9 Sn3 P18 O72'
_cell_volume   1552.07682068
_cell_formula_units_Z   3
loop_
 _symmetry_equiv_pos_site_id
 _symmetry_equiv_pos_as_xyz
  1  'x, y, z'
loop_
 _atom_site_type_symbol
 _atom_site_label
 _atom_site_symmetry_multiplicity
 _atom_site_fract_x
 _atom_site_fract_y
 _atom_site_fract_z
 _atom_site_occupancy
  Na  Na0  1  0.63486920  0.99916911  0.25248236  1
  Na  Na1  1  0.36429991  0.36513080  0.25248236  1
  Na  Na2  1  0.00083089  0.63570009  0.25248236  1
  Na  Na3  1  0.64343140  0.63401086  0.74267567  1
  Na  Na4  1  0.99057946  0.35656860  0.74267567  1
  Na  Na5  1  0.36598914  0.00942054  0.74267567  1
  Na  Na6  1  0.29656419  0.33333468  0.58089382  1
  Na  Na7  1  0.03677149  0.70343581  0.58089382  1
  Na  Na8  1  0.66666532  0.96322851  0.58089382  1
  Na  Na9  1  0.29667944  0.96497831  0.09235845  1
  Na  Na10  1  0.66829987  0.70332056  0.09235845  1
  Na  Na11  1  0.03502169  0.33170013  0.09235845  1
  Na  Na12  1  0.97170363  0.67643089  0.91594939  1
  Na  Na13  1  0.70472626  0.02829637  0.91594939  1
  Na  Na14  1  0.32356911  0.29527374  0.91594939  1
  Na  Na15  1  0.97695326  0.30003714  0.40880243  1
  Na  Na16  1  0.32308288  0.02304674  0.40880243  1
  Na  Na17  1  0.69996286  0.67691712  0.40880243  1
  Na  Na18  1  -0.00000000  0.00000000  0.49669718  1
  Na  Na19  1  -0.00000000  0.00000000  0.00566652  1
  Na  Na20  1  0.66666700  0.33333300  0.82760654  1
  Na  Na21  1  0.66666700  0.33333300  0.32669385  1
  Na  Na22  1  0.33333300  0.66666700  0.17315579  1
  Na  Na23  1  0.33333300  0.66666700  0.65899984  1
  Mg  Mg24  1  -0.00000000  0.00000000  0.34687955  1
  Mg  Mg25  1  -0.00000000  0.00000000  0.84840299  1
  Mg  Mg26  1  -0.00000000  0.00000000  0.64957308  1
  Mg  Mg27  1  -0.00000000  0.00000000  0.15465776  1
  Mg  Mg28  1  0.66666700  0.33333300  0.68244232  1
  Mg  Mg29  1  0.66666700  0.33333300  0.18574657  1
  Mg  Mg30  1  0.33333300  0.66666700  0.02016347  1
  Mg  Mg31  1  0.33333300  0.66666700  0.51466504  1
  Mg  Mg32  1  0.33333300  0.66666700  0.31647999  1
  Sn  Sn33  1  0.66666700  0.33333300  0.98670208  1
  Sn  Sn34  1  0.66666700  0.33333300  0.48359573  1
  Sn  Sn35  1  0.33333300  0.66666700  0.81701454  1
  P  P36  1  0.29646940  0.99927332  0.24973750  1
  P  P37  1  0.70280392  0.70353060  0.24973750  1
  P  P38  1  0.00072668  0.29719608  0.24973750  1
  P  P39  1  0.29497210  0.29513459  0.75163194  1
  P  P40  1  0.00016248  0.70502790  0.75163194  1
  P  P41  1  0.70486541  0.99983752  0.75163194  1
  P  P42  1  0.96407891  0.33337418  0.58593905  1
  P  P43  1  0.36929626  0.03592109  0.58593905  1
  P  P44  1  0.66662582  0.63070374  0.58593905  1
  P  P45  1  0.96433305  0.63118846  0.08390303  1
  P  P46  1  0.66685641  0.03566695  0.08390303  1
  P  P47  1  0.36881154  0.33314359  0.08390303  1
  P  P48  1  0.62904715  0.66603525  0.91860644  1
  P  P49  1  0.03698710  0.37095285  0.91860644  1
  P  P50  1  0.33396475  0.96301290  0.91860644  1
  P  P51  1  0.62872248  0.96147816  0.41820184  1
  P  P52  1  0.33275468  0.37127752  0.41820184  1
  P  P53  1  0.03852184  0.66724532  0.41820184  1
  O  O54  1  0.21312889  0.02720142  0.30644448  1
  O  O55  1  0.81407253  0.78687111  0.30644448  1
  O  O56  1  0.97279858  0.18592747  0.30644448  1
  O  O57  1  0.21442791  0.19169519  0.80954982  1
  O  O58  1  0.97726728  0.78557209  0.80954982  1
  O  O59  1  0.80830481  0.02273272  0.80954982  1
  O  O60  1  0.78291302  0.96568820  0.69535617  1
  O  O61  1  0.18277518  0.21708698  0.69535617  1
  O  O62  1  0.03431180  0.81722482  0.69535617  1
  O  O63  1  0.78406785  0.81299757  0.19209893  1
  O  O64  1  0.02892972  0.21593215  0.19209893  1
  O  O65  1  0.18700243  0.97107028  0.19209893  1
  O  O66  1  0.87806919  0.36161541  0.64110248  1
  O  O67  1  0.48354722  0.12193081  0.64110248  1
  O  O68  1  0.63838459  0.51645278  0.64110248  1
  O  O69  1  0.87139257  0.50991286  0.13585385  1
  O  O70  1  0.63852129  0.12860743  0.13585385  1
  O  O71  1  0.49008714  0.36147871  0.13585385  1
  O  O72  1  0.44375631  0.29684269  0.02203354  1
  O  O73  1  0.85308738  0.55624369  0.02203354  1
  O  O74  1  0.70315731  0.14691262  0.02203354  1
  O  O75  1  0.45124287  0.15204537  0.52726596  1
  O  O76  1  0.70080350  0.54875713  0.52726596  1
  O  O77  1  0.84795463  0.29919650  0.52726596  1
  O  O78  1  0.54054339  0.69120792  0.97255743  1
  O  O79  1  0.15066353  0.45945661  0.97255743  1
  O  O80  1  0.30879208  0.84933647  0.97255743  1
  O  O81  1  0.54820046  0.85816487  0.47614547  1
  O  O82  1  0.30996341  0.45179954  0.47614547  1
  O  O83  1  0.14183513  0.69003659  0.47614547  1
  O  O84  1  0.11615348  0.63265284  0.36207481  1
  O  O85  1  0.51649837  0.88384652  0.36207481  1
  O  O86  1  0.36734716  0.48350163  0.36207481  1
  O  O87  1  0.11150885  0.48428662  0.85929842  1
  O  O88  1  0.37277677  0.88849115  0.85929842  1
  O  O89  1  0.51571338  0.62722323  0.85929842  1
  O  O90  1  0.01217062  0.82298916  0.41296591  1
  O  O91  1  0.81081854  0.98782938  0.41296591  1
  O  O92  1  0.17701084  0.18918146  0.41296591  1
  O  O93  1  0.01498899  0.19190821  0.91132884  1
  O  O94  1  0.17691922  0.98501101  0.91132884  1
  O  O95  1  0.80809179  0.82308078  0.91132884  1
  O  O96  1  0.97938471  0.17131553  0.58908739  1
  O  O97  1  0.19193081  0.02061529  0.58908739  1
  O  O98  1  0.82868447  0.80806919  0.58908739  1
  O  O99  1  0.98071930  0.80902688  0.08662682  1
  O  O100  1  0.82830758  0.01928070  0.08662682  1
  O  O101  1  0.19097312  0.17169242  0.08662682  1
  O  O102  1  0.67905606  0.15615347  0.74652252  1
  O  O103  1  0.47709840  0.32094394  0.74652252  1
  O  O104  1  0.84384653  0.52290160  0.74652252  1
  O  O105  1  0.68424810  0.52270554  0.24469970  1
  O  O106  1  0.83845845  0.31575190  0.24469970  1
  O  O107  1  0.47729446  0.16154155  0.24469970  1
  O  O108  1  0.64469584  0.49877644  0.92101945  1
  O  O109  1  0.85408160  0.35530416  0.92101945  1
  O  O110  1  0.50122356  0.14591840  0.92101945  1
  O  O111  1  0.64642742  0.14815973  0.42219119  1
  O  O112  1  0.50173331  0.35357258  0.42219119  1
  O  O113  1  0.85184027  0.49826669  0.42219119  1
  O  O114  1  0.35449568  0.49538436  0.07675982  1
  O  O115  1  0.14088768  0.64550432  0.07675982  1
  O  O116  1  0.50461564  0.85911232  0.07675982  1
  O  O117  1  0.35377064  0.85871029  0.57898669  1
  O  O118  1  0.50493865  0.64622936  0.57898669  1
  O  O119  1  0.14128971  0.49506135  0.57898669  1
  O  O120  1  0.31552067  0.83758869  0.25490584  1
  O  O121  1  0.52206702  0.68447933  0.25490584  1
  O  O122  1  0.16241131  0.47793298  0.25490584  1
  O  O123  1  0.31259625  0.48135949  0.75556159  1
  O  O124  1  0.16876224  0.68740375  0.75556159  1
  O  O125  1  0.51864051  0.83123776  0.75556159  1
