# generated using pymatgen
data_Na8Ca2Y2Si3(SO8)3
_symmetry_space_group_name_H-M   'P 1'
_cell_length_a   9.53759611
_cell_length_b   9.54065044
_cell_length_c   23.26741518
_cell_angle_alpha   90.17562884
_cell_angle_beta   90.07668180
_cell_angle_gamma   119.86740437
_symmetry_Int_Tables_number   1
_chemical_formula_structural   Na8Ca2Y2Si3(SO8)3
_chemical_formula_sum   'Na24 Ca6 Y6 Si9 S9 O72'
_cell_volume   1835.98865445
_cell_formula_units_Z   3
loop_
 _symmetry_equiv_pos_site_id
 _symmetry_equiv_pos_as_xyz
  1  'x, y, z'
loop_
 _atom_site_type_symbol
 _atom_site_label
 _atom_site_symmetry_multiplicity
 _atom_site_fract_x
 _atom_site_fract_y
 _atom_site_fract_z
 _atom_site_occupancy
  Na  Na0  1  0.64302616  0.02558125  0.26362332  1
  Na  Na1  1  0.33963974  0.33158513  0.25562712  1
  Na  Na2  1  0.00204439  0.62297028  0.24016433  1
  Na  Na3  1  0.62013824  0.62318931  0.72945802  1
  Na  Na4  1  0.98839421  0.33784088  0.73268842  1
  Na  Na5  1  0.38714982  0.03003107  0.75125289  1
  Na  Na6  1  0.30586958  0.35578324  0.59518820  1
  Na  Na7  1  0.00756431  0.66643208  0.58659388  1
  Na  Na8  1  0.67023110  0.95675122  0.57855623  1
  Na  Na9  1  0.28229662  0.94166574  0.08020522  1
  Na  Na10  1  0.68419543  0.69377013  0.08053822  1
  Na  Na11  1  0.02944007  0.35704123  0.09895379  1
  Na  Na12  1  0.99576769  0.69498976  0.91912155  1
  Na  Na13  1  0.67730565  0.02571070  0.89577163  1
  Na  Na14  1  0.32523516  0.27391350  0.89962093  1
  Na  Na15  1  0.94951477  0.27453337  0.41669078  1
  Na  Na16  1  0.34499756  0.03051863  0.40467434  1
  Na  Na17  1  0.69547226  0.69210321  0.43498121  1
  Na  Na18  1  0.96522956  0.99842758  0.50660569  1
  Na  Na19  1  0.01830694  0.98210620  0.99639092  1
  Na  Na20  1  0.64245154  0.31120013  0.81908517  1
  Na  Na21  1  0.66651647  0.30202020  0.32895846  1
  Na  Na22  1  0.29736621  0.66438537  0.17271041  1
  Na  Na23  1  0.34394426  0.64938611  0.66047411  1
  Ca  Ca24  1  -0.00047446  0.00385884  0.34755598  1
  Ca  Ca25  1  0.00398739  0.00708935  0.84339591  1
  Ca  Ca26  1  0.66884015  0.33325552  0.68005834  1
  Ca  Ca27  1  0.67226625  0.33183235  0.18420011  1
  Ca  Ca28  1  0.32462347  0.67316409  0.01447009  1
  Ca  Ca29  1  0.34152426  0.66864697  0.51726717  1
  Y  Y30  1  0.99274721  0.00784908  0.65170189  1
  Y  Y31  1  0.00943614  0.00142911  0.15541726  1
  Y  Y32  1  0.66851838  0.33405538  0.98408697  1
  Y  Y33  1  0.67379630  0.33170568  0.48840014  1
  Y  Y34  1  0.33458861  0.67675637  0.31678910  1
  Y  Y35  1  0.34112003  0.67695273  0.81358056  1
  Si  Si36  1  0.30697520  -0.00062678  0.25197081  1
  Si  Si37  1  0.00389331  0.30678294  0.24948012  1
  Si  Si38  1  0.30649897  0.30677404  0.75262401  1
  Si  Si39  1  0.69379950  -0.00037964  0.75403559  1
  Si  Si40  1  0.97674325  0.33577334  0.58440162  1
  Si  Si41  1  0.67141914  0.63945123  0.58291882  1
  Si  Si42  1  0.96891576  0.64018480  0.08349693  1
  Si  Si43  1  0.33159553  0.97345432  0.92077899  1
  Si  Si44  1  0.63865910  0.97433771  0.41677432  1
  S  S45  1  0.69607881  0.69917572  0.24955396  1
  S  S46  1  -0.00035209  0.69884352  0.75241256  1
  S  S47  1  0.36113284  0.03154444  0.58312779  1
  S  S48  1  0.67019405  0.03075495  0.08268746  1
  S  S49  1  0.36632383  0.33390306  0.08368937  1
  S  S50  1  0.63219863  0.66379569  0.92032792  1
  S  S51  1  0.03172994  0.36431455  0.91927560  1
  S  S52  1  0.33654661  0.36638692  0.41534832  1
  S  S53  1  0.02913792  0.66362790  0.41694150  1
  O  O54  1  0.22013041  0.01500867  0.30938657  1
  O  O55  1  0.79611575  0.77621662  0.29996642  1
  O  O56  1  0.97922599  0.19358065  0.30432084  1
  O  O57  1  0.22812819  0.20370074  0.81105081  1
  O  O58  1  0.98403263  0.77431465  0.80538184  1
  O  O59  1  0.78612462  0.00980465  0.81400743  1
  O  O60  1  0.78925433  0.97469917  0.69965997  1
  O  O61  1  0.19240758  0.21061156  0.69647607  1
  O  O62  1  0.02262146  0.80085611  0.70147092  1
  O  O63  1  0.77396916  0.79905212  0.19670331  1
  O  O64  1  0.02155597  0.22027328  0.18910907  1
  O  O65  1  0.19502247  0.97689835  0.19377946  1
  O  O66  1  0.89112269  0.35488576  0.64157072  1
  O  O67  1  0.46024878  0.10774671  0.63451941  1
  O  O68  1  0.64811179  0.52968412  0.63891556  1
  O  O69  1  0.87726251  0.53492445  0.13958535  1
  O  O70  1  0.64543972  0.10535107  0.13367638  1
  O  O71  1  0.45836573  0.34870594  0.13558353  1
  O  O72  1  0.44953312  0.31482353  0.03229802  1
  O  O73  1  0.85900133  0.55068426  0.02493477  1
  O  O74  1  0.68579328  0.13053241  0.03108970  1
  O  O75  1  0.44179870  0.13246361  0.53108645  1
  O  O76  1  0.68477780  0.54861263  0.52319400  1
  O  O77  1  0.86325364  0.31225780  0.52661141  1
  O  O78  1  0.55695474  0.67709096  0.97373723  1
  O  O79  1  0.12560110  0.44016543  0.97166428  1
  O  O80  1  0.31592274  0.87783249  0.98048489  1
  O  O81  1  0.54686791  0.86755671  0.47248955  1
  O  O82  1  0.31963584  0.44870276  0.46581717  1
  O  O83  1  0.12489487  0.67947205  0.46826733  1
  O  O84  1  0.11106792  0.64555055  0.36476376  1
  O  O85  1  0.53217202  0.88543583  0.35758151  1
  O  O86  1  0.35152167  0.46164600  0.36225646  1
  O  O87  1  0.11231152  0.46603601  0.86858852  1
  O  O88  1  0.35518008  0.87663899  0.86607999  1
  O  O89  1  0.52959959  0.64631131  0.87019855  1
  O  O90  1  0.00931223  0.80772129  0.41213900  1
  O  O91  1  0.81999485  0.99133159  0.41649103  1
  O  O92  1  0.19402803  0.20160174  0.41226322  1
  O  O93  1  0.00751918  0.19956372  0.91476046  1
  O  O94  1  0.16644647  0.98806474  0.91687242  1
  O  O95  1  0.79690911  0.80652093  0.91570314  1
  O  O96  1  0.99503988  0.17154479  0.58434852  1
  O  O97  1  0.19949438  0.01811431  0.58723123  1
  O  O98  1  0.84499077  0.81524503  0.58459247  1
  O  O99  1  0.98402717  0.82403062  0.08374890  1
  O  O100  1  0.82293573  0.02222164  0.08602538  1
  O  O101  1  0.20075086  0.18604452  0.08487820  1
  O  O102  1  0.67721464  0.16174069  0.74942056  1
  O  O103  1  0.49020567  0.33491567  0.74843030  1
  O  O104  1  0.85530359  0.53663496  0.74716737  1
  O  O105  1  0.67336828  0.53468489  0.24324661  1
  O  O106  1  0.84820626  0.33621908  0.24811216  1
  O  O107  1  0.48535640  0.16248275  0.24796895  1
  O  O108  1  0.64694096  0.51295376  0.92146869  1
  O  O109  1  0.86623495  0.35095254  0.92279888  1
  O  O110  1  0.49835185  0.15871369  0.92072846  1
  O  O111  1  0.65095881  0.15680628  0.41635455  1
  O  O112  1  0.48707417  0.35290576  0.41843933  1
  O  O113  1  0.86485614  0.51446060  0.41862905  1
  O  O114  1  0.35014374  0.48002148  0.07775196  1
  O  O115  1  0.14967722  0.65510686  0.08343857  1
  O  O116  1  0.53274988  0.86331615  0.07708947  1
  O  O117  1  0.33989063  0.86764409  0.57714797  1
  O  O118  1  0.51634095  0.66998170  0.58186966  1
  O  O119  1  0.15515976  0.49882621  0.58051892  1
  O  O120  1  0.32371793  0.83379865  0.25105852  1
  O  O121  1  0.53333095  0.68509921  0.25374267  1
  O  O122  1  0.17550135  0.48446004  0.25217003  1
  O  O123  1  0.31210791  0.48442955  0.75439989  1
  O  O124  1  0.14718252  0.68020585  0.75591498  1
  O  O125  1  0.50908735  0.83687615  0.75206721  1
