# generated using pymatgen
data_PCl5
_symmetry_space_group_name_H-M   'P 1'
_cell_length_a   7.50069897
_cell_length_b   9.38838533
_cell_length_c   9.38838533
_cell_angle_alpha   90.00000000
_cell_angle_beta   90.00000000
_cell_angle_gamma   90.00000000
_symmetry_Int_Tables_number   1
_chemical_formula_structural   PCl5
_chemical_formula_sum   'P4 Cl20'
_cell_volume   661.12495242
_cell_formula_units_Z   4
loop_
 _symmetry_equiv_pos_site_id
 _symmetry_equiv_pos_as_xyz
  1  'x, y, z'
loop_
 _atom_site_type_symbol
 _atom_site_label
 _atom_site_symmetry_multiplicity
 _atom_site_fract_x
 _atom_site_fract_y
 _atom_site_fract_z
 _atom_site_occupancy
  P  P0  1  -0.00000000  0.75000000  0.25000000  1
  P  P1  1  -0.00000000  0.25000000  0.75000000  1
  P  P2  1  0.62321266  0.25000000  0.25000000  1
  P  P3  1  0.37678734  0.75000000  0.75000000  1
  Cl  Cl4  1  0.14957126  0.29615197  0.58758178  1
  Cl  Cl5  1  0.14957126  0.91241822  0.29615197  1
  Cl  Cl6  1  0.14957126  0.58758178  0.20384803  1
  Cl  Cl7  1  0.14957126  0.20384803  0.91241822  1
  Cl  Cl8  1  0.85042874  0.70384803  0.41241822  1
  Cl  Cl9  1  0.85042874  0.08758178  0.70384803  1
  Cl  Cl10  1  0.85042874  0.41241822  0.79615197  1
  Cl  Cl11  1  0.85042874  0.79615197  0.08758178  1
  Cl  Cl12  1  0.90835220  0.25000000  0.25000000  1
  Cl  Cl13  1  0.09164780  0.75000000  0.75000000  1
  Cl  Cl14  1  0.33137593  0.25000000  0.25000000  1
  Cl  Cl15  1  0.66862407  0.75000000  0.75000000  1
  Cl  Cl16  1  0.61985586  0.33747580  0.46193819  1
  Cl  Cl17  1  0.61985586  0.03806181  0.33747580  1
  Cl  Cl18  1  0.61985586  0.46193819  0.16252420  1
  Cl  Cl19  1  0.61985586  0.16252420  0.03806181  1
  Cl  Cl20  1  0.38014414  0.66252420  0.53806181  1
  Cl  Cl21  1  0.38014414  0.96193819  0.66252420  1
  Cl  Cl22  1  0.38014414  0.53806181  0.83747580  1
  Cl  Cl23  1  0.38014414  0.83747580  0.96193819  1
