# generated using pymatgen
data_Na5Zr2Al2SiP5O24
_symmetry_space_group_name_H-M   'P 1'
_cell_length_a   8.84236199
_cell_length_b   8.82893512
_cell_length_c   22.26778683
_cell_angle_alpha   89.98828614
_cell_angle_beta   89.92052230
_cell_angle_gamma   119.80046216
_symmetry_Int_Tables_number   1
_chemical_formula_structural   Na5Zr2Al2SiP5O24
_chemical_formula_sum   'Na15 Zr6 Al6 Si3 P15 O72'
_cell_volume   1508.52799028
_cell_formula_units_Z   3
loop_
 _symmetry_equiv_pos_site_id
 _symmetry_equiv_pos_as_xyz
  1  'x, y, z'
loop_
 _atom_site_type_symbol
 _atom_site_label
 _atom_site_symmetry_multiplicity
 _atom_site_fract_x
 _atom_site_fract_y
 _atom_site_fract_z
 _atom_site_occupancy
  Na  Na0  1  0.00225815  0.63434727  0.25220329  1
  Na  Na1  1  0.63444550  0.64158788  0.75274313  1
  Na  Na2  1  0.36261337  0.99654918  0.75348185  1
  Na  Na3  1  0.66285668  0.96736484  0.58429223  1
  Na  Na4  1  0.29727406  0.96800238  0.08479022  1
  Na  Na5  1  0.67223464  0.69880241  0.08332835  1
  Na  Na6  1  0.02936077  0.33355429  0.08570489  1
  Na  Na7  1  0.96905150  0.30058316  0.41474001  1
  Na  Na8  1  0.33535632  0.03284661  0.41703020  1
  Na  Na9  1  0.00172737  0.98955097  0.49764760  1
  Na  Na10  1  0.00032757  0.99685307  0.99944427  1
  Na  Na11  1  0.67652709  0.33071109  0.83969147  1
  Na  Na12  1  0.65783444  0.33527386  0.33634590  1
  Na  Na13  1  0.34054825  0.66709638  0.17356701  1
  Na  Na14  1  0.31826950  0.65504209  0.66899713  1
  Zr  Zr15  1  0.99606117  0.00268934  0.85670695  1
  Zr  Zr16  1  0.00643662  0.00088240  0.64631854  1
  Zr  Zr17  1  0.66930925  0.32842484  0.68565024  1
  Zr  Zr18  1  0.66516894  0.33039735  0.19087364  1
  Zr  Zr19  1  0.32985876  0.66695187  0.01591890  1
  Zr  Zr20  1  0.33182180  0.66655681  0.51641902  1
  Al  Al21  1  0.99595001  0.99648300  0.34970575  1
  Al  Al22  1  0.99693208  0.99388948  0.15194147  1
  Al  Al23  1  0.67218682  0.34144335  0.97876232  1
  Al  Al24  1  0.66257672  0.33942212  0.48052380  1
  Al  Al25  1  0.34215505  0.66617665  0.31459188  1
  Al  Al26  1  0.33312966  0.66683999  0.81794087  1
  Si  Si27  1  0.69413051  0.99076503  0.75127745  1
  Si  Si28  1  0.37712361  0.04858943  0.57738497  1
  Si  Si29  1  0.95095428  0.62772670  0.08301791  1
  P  P30  1  0.27902866  0.99150590  0.25307758  1
  P  P31  1  0.71038726  0.72508563  0.25192109  1
  P  P32  1  0.01232263  0.28631852  0.25184173  1
  P  P33  1  0.29016197  0.30348779  0.75249902  1
  P  P34  1  0.00878569  0.70472086  0.75332246  1
  P  P35  1  0.95354748  0.33445072  0.57759033  1
  P  P36  1  0.66829089  0.61896479  0.58003619  1
  P  P37  1  0.67503695  0.04978349  0.08170582  1
  P  P38  1  0.37485734  0.32499951  0.08209208  1
  P  P39  1  0.62038739  0.65236363  0.91567641  1
  P  P40  1  0.03505836  0.38250658  0.91552328  1
  P  P41  1  0.34857025  0.97107732  0.91544875  1
  P  P42  1  0.63089381  0.95938910  0.41204928  1
  P  P43  1  0.33568130  0.37314330  0.41147120  1
  P  P44  1  0.03383107  0.66627870  0.41177835  1
  O  O45  1  0.19171840  0.01714449  0.30868347  1
  O  O46  1  0.83427089  0.81051708  0.30481763  1
  O  O47  1  0.98416833  0.17474262  0.30791287  1
  O  O48  1  0.21225002  0.17639375  0.80504134  1
  O  O49  1  0.97385640  0.79290082  0.80624851  1
  O  O50  1  0.82622765  0.02456317  0.80591633  1
  O  O51  1  0.77834094  0.95715976  0.68995334  1
  O  O52  1  0.18147608  0.21726321  0.69540924  1
  O  O53  1  0.04352705  0.82223393  0.69670525  1
  O  O54  1  0.79201011  0.82608825  0.19255288  1
  O  O55  1  0.02868610  0.19919975  0.19351643  1
  O  O56  1  0.16888976  0.96477008  0.19518859  1
  O  O57  1  0.87439911  0.36055509  0.63559470  1
  O  O58  1  0.48731459  0.12490144  0.64010258  1
  O  O59  1  0.64500380  0.52369236  0.64014493  1
  O  O60  1  0.87545290  0.50683811  0.14391618  1
  O  O61  1  0.63121680  0.12338809  0.13802634  1
  O  O62  1  0.49031786  0.36254572  0.13836414  1
  O  O63  1  0.46022902  0.29209828  0.02750838  1
  O  O64  1  0.82221668  0.52963094  0.02758487  1
  O  O65  1  0.70243103  0.16626698  0.02721444  1
  O  O66  1  0.47810615  0.16390498  0.51956992  1
  O  O67  1  0.69094321  0.52571202  0.52628723  1
  O  O68  1  0.84063186  0.31104816  0.52208838  1
  O  O69  1  0.54312979  0.68491487  0.97388797  1
  O  O70  1  0.14062651  0.45584663  0.97495996  1
  O  O71  1  0.31524831  0.85912661  0.97347121  1
  O  O72  1  0.55646130  0.85469259  0.47135349  1
  O  O73  1  0.29477862  0.44853576  0.46829730  1
  O  O74  1  0.15533889  0.70536416  0.46718699  1
  O  O75  1  0.12260366  0.62998397  0.35756371  1
  O  O76  1  0.49832025  0.86344774  0.36149828  1
  O  O77  1  0.36067175  0.49426242  0.35862238  1
  O  O78  1  0.13701350  0.50055763  0.86280349  1
  O  O79  1  0.36472049  0.87325215  0.86053739  1
  O  O80  1  0.50798679  0.63710693  0.86065209  1
  O  O81  1  0.02006954  0.83374415  0.40482842  1
  O  O82  1  0.81681182  0.98554779  0.40425729  1
  O  O83  1  0.17054055  0.18648831  0.40524072  1
  O  O84  1  0.02014714  0.20041909  0.91222042  1
  O  O85  1  0.18308774  0.98757625  0.91186008  1
  O  O86  1  0.80390769  0.81622598  0.91221925  1
  O  O87  1  0.96168437  0.16395115  0.58384321  1
  O  O88  1  0.18403626  0.02566175  0.58302932  1
  O  O89  1  0.82822709  0.80569505  0.58376202  1
  O  O90  1  0.97546081  0.82378594  0.09320822  1
  O  O91  1  0.83969471  0.03204388  0.09117582  1
  O  O92  1  0.18977148  0.16523319  0.09164174  1
  O  O93  1  0.66870649  0.16135944  0.74909844  1
  O  O94  1  0.47627521  0.32719295  0.74505619  1
  O  O95  1  0.84028287  0.52930778  0.74612322  1
  O  O96  1  0.69546099  0.53934196  0.24717338  1
  O  O97  1  0.84718271  0.31096088  0.24807318  1
  O  O98  1  0.46255767  0.15442004  0.24798222  1
  O  O99  1  0.63409763  0.48693523  0.92263002  1
  O  O100  1  0.85473345  0.36440140  0.92300274  1
  O  O101  1  0.51285127  0.14860702  0.92404955  1
  O  O102  1  0.64902682  0.14483088  0.41876410  1
  O  O103  1  0.49832412  0.35181216  0.42019516  1
  O  O104  1  0.85541933  0.49855013  0.42255446  1
  O  O105  1  0.35522128  0.49071488  0.07750859  1
  O  O106  1  0.14940376  0.65244675  0.07919665  1
  O  O107  1  0.51496326  0.86182798  0.07704648  1
  O  O108  1  0.36338116  0.85569041  0.57586998  1
  O  O109  1  0.50677563  0.64331648  0.57520421  1
  O  O110  1  0.13806296  0.49203739  0.57465374  1
  O  O111  1  0.29717259  0.82457674  0.25907165  1
  O  O112  1  0.52657807  0.70111876  0.25958686  1
  O  O113  1  0.17098538  0.47529179  0.25726115  1
  O  O114  1  0.30969895  0.48379509  0.76126478  1
  O  O115  1  0.17158608  0.68831779  0.76132131  1
  O  O116  1  0.50394096  0.81740938  0.76043436  1
