# generated using pymatgen
data_K2BeO2
_symmetry_space_group_name_H-M   'P 1'
_cell_length_a   5.73329515
_cell_length_b   7.07371749
_cell_length_c   7.85352494
_cell_angle_alpha   89.97859721
_cell_angle_beta   90.00000000
_cell_angle_gamma   90.00000000
_symmetry_Int_Tables_number   1
_chemical_formula_structural   K2BeO2
_chemical_formula_sum   'K8 Be4 O8'
_cell_volume   318.50525890
_cell_formula_units_Z   4
loop_
 _symmetry_equiv_pos_site_id
 _symmetry_equiv_pos_as_xyz
  1  'x, y, z'
loop_
 _atom_site_type_symbol
 _atom_site_label
 _atom_site_symmetry_multiplicity
 _atom_site_fract_x
 _atom_site_fract_y
 _atom_site_fract_z
 _atom_site_occupancy
  K  K0  1  0.65909137  0.14012672  0.11129517  1
  K  K1  1  0.15909137  0.35987328  0.38870483  1
  K  K2  1  0.34090863  0.85987328  0.88870483  1
  K  K3  1  0.84090863  0.64012672  0.61129517  1
  K  K4  1  0.56120959  0.59730005  0.24326580  1
  K  K5  1  0.06120959  0.90269995  0.25673420  1
  K  K6  1  0.43879041  0.40269995  0.75673420  1
  K  K7  1  0.93879041  0.09730005  0.74326580  1
  Be  Be8  1  0.08445072  0.37506552  0.02273633  1
  Be  Be9  1  0.41554928  0.87506552  0.52273633  1
  Be  Be10  1  0.91554928  0.62493448  0.97726367  1
  Be  Be11  1  0.58445072  0.12493448  0.47726367  1
  O  O12  1  0.79593759  0.80924092  0.94413243  1
  O  O13  1  0.64059374  0.91824048  0.40979148  1
  O  O14  1  0.35940626  0.08175952  0.59020852  1
  O  O15  1  0.85940626  0.41824048  0.90979148  1
  O  O16  1  0.29593759  0.69075908  0.55586757  1
  O  O17  1  0.20406241  0.19075908  0.05586757  1
  O  O18  1  0.70406241  0.30924092  0.44413243  1
  O  O19  1  0.14059374  0.58175952  0.09020852  1
