# generated using pymatgen
data_MgZn2Fe2(SiO5)2
_symmetry_space_group_name_H-M   'P 1'
_cell_length_a   5.46495589
_cell_length_b   7.22616699
_cell_length_c   7.93322336
_cell_angle_alpha   90.12198914
_cell_angle_beta   42.92956248
_cell_angle_gamma   73.16645685
_symmetry_Int_Tables_number   1
_chemical_formula_structural   MgZn2Fe2(SiO5)2
_chemical_formula_sum   'Mg1 Zn2 Fe2 Si2 O10'
_cell_volume   192.90132793
_cell_formula_units_Z   1
loop_
 _symmetry_equiv_pos_site_id
 _symmetry_equiv_pos_as_xyz
  1  'x, y, z'
loop_
 _atom_site_type_symbol
 _atom_site_label
 _atom_site_symmetry_multiplicity
 _atom_site_fract_x
 _atom_site_fract_y
 _atom_site_fract_z
 _atom_site_occupancy
  Mg  Mg0  1  0.99977600  0.98560100  0.49570500  1
  Zn  Zn1  1  0.28611800  0.30058500  0.78842200  1
  Zn  Zn2  1  0.71277900  0.66918200  0.20314300  1
  Fe  Fe3  1  0.49927900  0.48587400  0.99566700  1
  Fe  Fe4  1  0.50019500  0.98566900  0.99569600  1
  Si  Si5  1  0.52635000  0.23773000  0.34069000  1
  Si  Si6  1  0.47156000  0.73411700  0.65167700  1
  O  O7  1  0.47005700  0.06479400  0.25088500  1
  O  O8  1  0.68656400  0.37603900  0.14032500  1
  O  O9  1  0.52794900  0.90704400  0.74155000  1
  O  O10  1  0.31185800  0.59545300  0.85152700  1
  O  O11  1  0.89760300  0.58623600  0.34419700  1
  O  O12  1  0.16688600  0.83721800  0.64623000  1
  O  O13  1  0.10026900  0.38604500  0.64800100  1
  O  O14  1  0.83053300  0.13470900  0.34655000  1
  O  O15  1  0.44369200  0.75489200  0.12272100  1
  O  O16  1  0.55526100  0.21668000  0.86902200  1
