# generated using pymatgen
data_Na3CaInSi(SO6)2
_symmetry_space_group_name_H-M   'P 1'
_cell_length_a   9.36235089
_cell_length_b   9.36085257
_cell_length_c   22.85242433
_cell_angle_alpha   90.69437324
_cell_angle_beta   90.00000000
_cell_angle_gamma   120.00529501
_symmetry_Int_Tables_number   1
_chemical_formula_structural   Na3CaInSi(SO6)2
_chemical_formula_sum   'Na18 Ca6 In6 Si6 S12 O72'
_cell_volume   1734.19338373
_cell_formula_units_Z   6
loop_
 _symmetry_equiv_pos_site_id
 _symmetry_equiv_pos_as_xyz
  1  'x, y, z'
loop_
 _atom_site_type_symbol
 _atom_site_label
 _atom_site_symmetry_multiplicity
 _atom_site_fract_x
 _atom_site_fract_y
 _atom_site_fract_z
 _atom_site_occupancy
  Na  Na0  1  0.63247800  0.99513420  0.25690603  1
  Na  Na1  1  0.00963413  0.64556493  0.23368569  1
  Na  Na2  1  0.63593080  0.64556493  0.73368569  1
  Na  Na3  1  0.36265620  0.99513420  0.75690603  1
  Na  Na4  1  0.32800476  0.35293035  0.58757711  1
  Na  Na5  1  0.65693026  0.94617027  0.57737835  1
  Na  Na6  1  0.28924101  0.94617027  0.07737835  1
  Na  Na7  1  0.02492659  0.35293035  0.08757711  1
  Na  Na8  1  0.99110151  0.68568912  0.92979822  1
  Na  Na9  1  0.68374883  0.02693804  0.90160104  1
  Na  Na10  1  0.34318821  0.02693804  0.40160104  1
  Na  Na11  1  0.69458662  0.68568912  0.42979822  1
  Na  Na12  1  0.96732140  0.98858928  0.49944531  1
  Na  Na13  1  0.02126788  0.98858928  0.99944531  1
  Na  Na14  1  0.66046028  0.29994725  0.83382123  1
  Na  Na15  1  0.63948797  0.29994725  0.33382123  1
  Na  Na16  1  0.32245957  0.66630267  0.16562459  1
  Na  Na17  1  0.34384210  0.66630267  0.66562459  1
  Ca  Ca18  1  0.00685605  0.01054509  0.35014788  1
  Ca  Ca19  1  0.00368904  0.01054509  0.85014788  1
  Ca  Ca20  1  0.67961201  0.33279013  0.68420477  1
  Ca  Ca21  1  0.65317912  0.33279013  0.18420477  1
  Ca  Ca22  1  0.33887614  0.67164875  0.01646041  1
  Ca  Ca23  1  0.33277161  0.67164875  0.51646041  1
  In  In24  1  0.97664632  0.98224938  0.65181534  1
  In  In25  1  0.00560307  0.98224938  0.15181534  1
  In  In26  1  0.65971377  0.33981730  0.98621640  1
  In  In27  1  0.68010453  0.33981730  0.48621640  1
  In  In28  1  0.33849558  0.68363516  0.32041074  1
  In  In29  1  0.34513858  0.68363516  0.82041074  1
  Si  Si30  1  0.30436796  0.98975131  0.25372386  1
  Si  Si31  1  0.68538335  0.98975131  0.75372386  1
  Si  Si32  1  0.67046287  0.63461226  0.58483064  1
  Si  Si33  1  0.96415039  0.63461226  0.08483064  1
  Si  Si34  1  0.34140153  0.98151314  0.92179191  1
  Si  Si35  1  0.64011061  0.98151314  0.42179191  1
  S  S36  1  0.69528940  0.70630649  0.25263893  1
  S  S37  1  0.00759051  0.30380539  0.24627040  1
  S  S38  1  0.29621487  0.30380539  0.74627040  1
  S  S39  1  0.01101709  0.70630649  0.75263893  1
  S  S40  1  0.97196553  0.32258636  0.58402344  1
  S  S41  1  0.35228506  0.03655802  0.58490916  1
  S  S42  1  0.68427396  0.03655802  0.08490916  1
  S  S43  1  0.35062183  0.32258636  0.08402344  1
  S  S44  1  0.63438662  0.65746532  0.91358094  1
  S  S45  1  0.03237771  0.37593597  0.91649422  1
  S  S46  1  0.34355726  0.37593597  0.41649422  1
  S  S47  1  0.02307769  0.65746532  0.41358094  1
  O  O48  1  0.21630314  0.99592795  0.31330369  1
  O  O49  1  0.78539810  0.78579556  0.30713535  1
  O  O50  1  0.98361529  0.19612154  0.29554132  1
  O  O51  1  0.21250625  0.19612154  0.79554132  1
  O  O52  1  0.00039747  0.78579556  0.80713535  1
  O  O53  1  0.77962481  0.99592795  0.81330369  1
  O  O54  1  0.77557163  0.96474351  0.69428345  1
  O  O55  1  0.20639569  0.22567020  0.68983074  1
  O  O56  1  0.04472272  0.81941863  0.70163219  1
  O  O57  1  0.77469591  0.81941863  0.20163219  1
  O  O58  1  0.01927451  0.22567020  0.18983074  1
  O  O59  1  0.18917189  0.96474351  0.19428345  1
  O  O60  1  0.89115928  0.33571306  0.63671594  1
  O  O61  1  0.45754592  0.11424217  0.63727825  1
  O  O62  1  0.65745745  0.53256216  0.64284596  1
  O  O63  1  0.87510571  0.53256216  0.14284596  1
  O  O64  1  0.65669725  0.11424217  0.13727825  1
  O  O65  1  0.44455478  0.33571306  0.13671594  1
  O  O66  1  0.43015327  0.29751032  0.03095004  1
  O  O67  1  0.86086372  0.54031864  0.02275719  1
  O  O68  1  0.70231223  0.13566632  0.03132828  1
  O  O69  1  0.43335509  0.13566632  0.53132828  1
  O  O70  1  0.67945591  0.54031864  0.52275719  1
  O  O71  1  0.86735806  0.29751032  0.53095004  1
  O  O72  1  0.54049460  0.66262511  0.96385718  1
  O  O73  1  0.11699109  0.44917328  0.97229481  1
  O  O74  1  0.32416152  0.87425811  0.97910668  1
  O  O75  1  0.55009559  0.87425811  0.47910668  1
  O  O76  1  0.33218119  0.44917328  0.47229481  1
  O  O77  1  0.12212952  0.66262511  0.46385718  1
  O  O78  1  0.09691468  0.63793543  0.35765481  1
  O  O79  1  0.52203167  0.89548856  0.36145824  1
  O  O80  1  0.34179530  0.47550063  0.36581581  1
  O  O81  1  0.13370434  0.47550063  0.86581581  1
  O  O82  1  0.37345589  0.89548856  0.86145824  1
  O  O83  1  0.54101975  0.63793543  0.85765481  1
  O  O84  1  0.01325393  0.81156078  0.41386535  1
  O  O85  1  0.81677717  0.98906889  0.41654119  1
  O  O86  1  0.20785505  0.20284278  0.41299026  1
  O  O87  1  0.99498773  0.20284278  0.91299026  1
  O  O88  1  0.17229172  0.98906889  0.91654119  1
  O  O89  1  0.79830684  0.81156078  0.91386535  1
  O  O90  1  0.99160387  0.17217390  0.58575720  1
  O  O91  1  0.19288428  0.03706609  0.59007412  1
  O  O92  1  0.83395640  0.82524599  0.58219486  1
  O  O93  1  0.99128958  0.82524599  0.08219486  1
  O  O94  1  0.84418181  0.03706609  0.09007412  1
  O  O95  1  0.18057003  0.17217390  0.08575720  1
  O  O96  1  0.64912160  0.14268151  0.75055705  1
  O  O97  1  0.46718717  0.33024375  0.74422634  1
  O  O98  1  0.85675352  0.54788996  0.74576836  1
  O  O99  1  0.69113745  0.54788996  0.24576836  1
  O  O100  1  0.86305757  0.33024375  0.24422634  1
  O  O101  1  0.49356091  0.14268151  0.25055705  1
  O  O102  1  0.66524634  0.51553697  0.91589519  1
  O  O103  1  0.87179448  0.37619512  0.91299731  1
  O  O104  1  0.52164507  0.16287107  0.92307941  1
  O  O105  1  0.64122700  0.16287107  0.42307941  1
  O  O106  1  0.50440164  0.37619512  0.41299731  1
  O  O107  1  0.85029163  0.51553697  0.41589519  1
  O  O108  1  0.32778864  0.46705547  0.07920117  1
  O  O109  1  0.14843326  0.65075524  0.08369999  1
  O  O110  1  0.54326682  0.86654441  0.07970933  1
  O  O111  1  0.32327659  0.86654441  0.57970933  1
  O  O112  1  0.50232097  0.65075524  0.58369999  1
  O  O113  1  0.13926583  0.46705547  0.57920117  1
  O  O114  1  0.31210980  0.81176174  0.25000246  1
  O  O115  1  0.52392165  0.68104289  0.25430808  1
  O  O116  1  0.16162634  0.46900608  0.25198579  1
  O  O117  1  0.30737874  0.46900608  0.75198579  1
  O  O118  1  0.15712024  0.68104289  0.75430808  1
  O  O119  1  0.49965095  0.81176174  0.75000246  1
