# generated using pymatgen
data_Na5La3ZrSi3(SO8)3
_symmetry_space_group_name_H-M   'P 1'
_cell_length_a   9.58412813
_cell_length_b   9.56614591
_cell_length_c   24.06775545
_cell_angle_alpha   90.64230554
_cell_angle_beta   89.89113705
_cell_angle_gamma   119.85238610
_symmetry_Int_Tables_number   1
_chemical_formula_structural   Na5La3ZrSi3(SO8)3
_chemical_formula_sum   'Na15 La9 Zr3 Si9 S9 O72'
_cell_volume   1913.67731108
_cell_formula_units_Z   3
loop_
 _symmetry_equiv_pos_site_id
 _symmetry_equiv_pos_as_xyz
  1  'x, y, z'
loop_
 _atom_site_type_symbol
 _atom_site_label
 _atom_site_symmetry_multiplicity
 _atom_site_fract_x
 _atom_site_fract_y
 _atom_site_fract_z
 _atom_site_occupancy
  Na  Na0  1  0.65459289  0.01436104  0.26004799  1
  Na  Na1  1  0.99790428  0.61842315  0.24762174  1
  Na  Na2  1  0.62840056  0.64323888  0.74549102  1
  Na  Na3  1  0.36174732  0.01037606  0.76364110  1
  Na  Na4  1  0.66698617  0.94606235  0.58297451  1
  Na  Na5  1  0.98436725  0.69400972  0.92202677  1
  Na  Na6  1  0.67962852  0.00387549  0.91009961  1
  Na  Na7  1  0.95247002  0.30419822  0.40897994  1
  Na  Na8  1  0.70119519  0.69118112  0.43049477  1
  Na  Na9  1  0.99521013  0.96003426  0.50179514  1
  Na  Na10  1  0.00877956  0.97187785  0.99700293  1
  Na  Na11  1  0.63493102  0.30907571  0.83243583  1
  Na  Na12  1  0.67211276  0.31315294  0.33609733  1
  Na  Na13  1  0.27752839  0.61829691  0.16043283  1
  Na  Na14  1  0.33836792  0.62461579  0.67135674  1
  La  La15  1  0.00117007  0.00494380  0.35028876  1
  La  La16  1  0.01121138  0.01905193  0.84856066  1
  La  La17  1  0.99797612  0.00493985  0.65354925  1
  La  La18  1  0.00188253  0.00325699  0.14187149  1
  La  La19  1  0.66533842  0.34144462  0.68457518  1
  La  La20  1  0.68036941  0.34273994  0.17775345  1
  La  La21  1  0.33214589  0.67375467  0.01728375  1
  La  La22  1  0.33414554  0.67244087  0.51551150  1
  La  La23  1  0.31892459  0.66246264  0.32402441  1
  Zr  Zr24  1  0.66289540  0.34751236  0.97887049  1
  Zr  Zr25  1  0.67305147  0.34516416  0.48355491  1
  Zr  Zr26  1  0.36022232  0.67434424  0.81877209  1
  Si  Si27  1  0.99932376  0.30556796  0.25255628  1
  Si  Si28  1  0.30638335  0.31370810  0.75050250  1
  Si  Si29  1  0.68322635  0.99391971  0.75330462  1
  Si  Si30  1  0.67135508  0.64076957  0.58361949  1
  Si  Si31  1  0.96246351  0.63344331  0.08149265  1
  Si  Si32  1  0.63616345  0.66565611  0.91738694  1
  Si  Si33  1  0.34371659  0.96988423  0.91551682  1
  Si  Si34  1  0.64094473  0.98182800  0.41683612  1
  Si  Si35  1  0.01358270  0.65878384  0.41696130  1
  S  S36  1  0.30624644  0.99622456  0.24934928  1
  S  S37  1  0.69515074  0.70005013  0.25077462  1
  S  S38  1  0.01691080  0.69977681  0.75479039  1
  S  S39  1  0.95477190  0.32605355  0.57856703  1
  S  S40  1  0.37494375  0.04756472  0.58029148  1
  S  S41  1  0.67206821  0.04354691  0.07882273  1
  S  S42  1  0.37261994  0.32883920  0.07874913  1
  S  S43  1  0.02322573  0.37787481  0.91661053  1
  S  S44  1  0.34806867  0.36277205  0.41932633  1
  O  O45  1  0.22869607  0.00696415  0.30093309  1
  O  O46  1  0.78612468  0.77274278  0.30329289  1
  O  O47  1  0.98953790  0.21852680  0.31263519  1
  O  O48  1  0.23113871  0.18364435  0.80035520  1
  O  O49  1  0.98798713  0.77105553  0.80535584  1
  O  O50  1  0.78498329  0.01010761  0.80921165  1
  O  O51  1  0.76746906  0.96440868  0.69740475  1
  O  O52  1  0.20229213  0.22963083  0.69357991  1
  O  O53  1  0.04145178  0.80476983  0.70624486  1
  O  O54  1  0.78837304  0.79973764  0.20334735  1
  O  O55  1  0.99890428  0.19077171  0.20110067  1
  O  O56  1  0.20851846  0.98528538  0.20043568  1
  O  O57  1  0.87706641  0.33529251  0.62990099  1
  O  O58  1  0.45186283  0.11866535  0.63432166  1
  O  O59  1  0.67298189  0.55617490  0.64193641  1
  O  O60  1  0.88151093  0.55567789  0.14251829  1
  O  O61  1  0.66702949  0.11672577  0.13328690  1
  O  O62  1  0.45079389  0.32699708  0.13123320  1
  O  O63  1  0.47215196  0.32809232  0.03038944  1
  O  O64  1  0.83859082  0.51060887  0.02966645  1
  O  O65  1  0.66617872  0.14098564  0.03210925  1
  O  O66  1  0.47860593  0.14997982  0.53415204  1
  O  O67  1  0.66900771  0.52302258  0.52939131  1
  O  O68  1  0.85812221  0.32692354  0.52922649  1
  O  O69  1  0.54531535  0.69361349  0.96835167  1
  O  O70  1  0.11282805  0.44399373  0.96835916  1
  O  O71  1  0.30630880  0.85000063  0.96721225  1
  O  O72  1  0.55481144  0.85212577  0.46713607  1
  O  O73  1  0.32297492  0.44120449  0.46798565  1
  O  O74  1  0.13304772  0.67063931  0.46639892  1
  O  O75  1  0.07788233  0.62137961  0.35793184  1
  O  O76  1  0.54464633  0.90552702  0.35740407  1
  O  O77  1  0.37765233  0.46275981  0.36924566  1
  O  O78  1  0.11334470  0.47656896  0.86829862  1
  O  O79  1  0.37012732  0.87605522  0.85956844  1
  O  O80  1  0.52652896  0.64698606  0.86002319  1
  O  O81  1  0.97884875  0.80956324  0.41598247  1
  O  O82  1  0.82811674  0.01422119  0.41498081  1
  O  O83  1  0.20646750  0.20085482  0.41319450  1
  O  O84  1  0.98132097  0.20661050  0.91151467  1
  O  O85  1  0.18395630  0.98821822  0.90990377  1
  O  O86  1  0.81998904  0.81738617  0.91289542  1
  O  O87  1  0.95244956  0.16907341  0.57587495  1
  O  O88  1  0.21353026  0.02971515  0.57621187  1
  O  O89  1  0.83159111  0.82253965  0.57789912  1
  O  O90  1  0.97407978  0.81046535  0.07582922  1
  O  O91  1  0.82400619  0.03742707  0.07507192  1
  O  O92  1  0.21273736  0.18109900  0.07370853  1
  O  O93  1  0.64008149  0.13919259  0.74869567  1
  O  O94  1  0.49745346  0.35805894  0.74810221  1
  O  O95  1  0.87441436  0.53796050  0.74690828  1
  O  O96  1  0.67432935  0.53557527  0.24706896  1
  O  O97  1  0.82952883  0.31709179  0.25100674  1
  O  O98  1  0.47245938  0.13657597  0.24715670  1
  O  O99  1  0.65109407  0.49811684  0.92397513  1
  O  O100  1  0.86494234  0.37833769  0.91918229  1
  O  O101  1  0.51964921  0.14336137  0.92455896  1
  O  O102  1  0.65851885  0.16210877  0.42919405  1
  O  O103  1  0.49508129  0.34786415  0.42652695  1
  O  O104  1  0.83184109  0.49265323  0.42677838  1
  O  O105  1  0.35752005  0.47422590  0.07861124  1
  O  O106  1  0.13639071  0.64198013  0.08171456  1
  O  O107  1  0.53236776  0.87940985  0.07871605  1
  O  O108  1  0.36720148  0.88819366  0.57714601  1
  O  O109  1  0.51101546  0.66381400  0.58240533  1
  O  O110  1  0.11960404  0.46316187  0.57627867  1
  O  O111  1  0.31819963  0.84516583  0.24988752  1
  O  O112  1  0.53802712  0.69516916  0.25238339  1
  O  O113  1  0.15424604  0.49213905  0.24976935  1
  O  O114  1  0.31496673  0.49017873  0.76165843  1
  O  O115  1  0.16523588  0.68855456  0.76097350  1
  O  O116  1  0.50386839  0.81929263  0.75771792  1
