# generated using pymatgen
data_Na2Ta5In3Si6(SO8)6
_symmetry_space_group_name_H-M   'P 1'
_cell_length_a   17.84060518
_cell_length_b   8.88231507
_cell_length_c   23.08099489
_cell_angle_alpha   89.88273157
_cell_angle_beta   90.02743280
_cell_angle_gamma   120.05854929
_symmetry_Int_Tables_number   1
_chemical_formula_structural   Na2Ta5In3Si6(SO8)6
_chemical_formula_sum   'Na6 Ta15 In9 Si18 S18 O144'
_cell_volume   3165.65358509
_cell_formula_units_Z   3
loop_
 _symmetry_equiv_pos_site_id
 _symmetry_equiv_pos_as_xyz
  1  'x, y, z'
loop_
 _atom_site_type_symbol
 _atom_site_label
 _atom_site_symmetry_multiplicity
 _atom_site_fract_x
 _atom_site_fract_y
 _atom_site_fract_z
 _atom_site_occupancy
  Na  Na0  1  0.99300342  0.97366941  0.49898095  1
  Na  Na1  1  0.50094723  0.99575720  0.99897980  1
  Na  Na2  1  0.33585972  0.31503977  0.83998561  1
  Na  Na3  1  0.83197298  0.33904163  0.83922283  1
  Na  Na4  1  0.32363611  0.31759696  0.33783995  1
  Na  Na5  1  0.83630765  0.34545973  0.34576752  1
  Ta  Ta6  1  0.49347939  0.99399399  0.36166321  1
  Ta  Ta7  1  0.00500215  0.00578901  0.86303027  1
  Ta  Ta8  1  0.49906679  0.00220329  0.64454092  1
  Ta  Ta9  1  0.00248905  0.01428426  0.14857039  1
  Ta  Ta10  1  0.32587152  0.33377754  0.68974279  1
  Ta  Ta11  1  0.82697615  0.32767647  0.68197360  1
  Ta  Ta12  1  0.34003819  0.34812059  0.18945560  1
  Ta  Ta13  1  0.83376752  0.32027651  0.18641593  1
  Ta  Ta14  1  0.16222088  0.66397354  0.01909675  1
  Ta  Ta15  1  0.66716808  0.66409480  0.02362135  1
  Ta  Ta16  1  0.17097700  0.67613524  0.52058333  1
  Ta  Ta17  1  0.67156239  0.65912948  0.52470904  1
  Ta  Ta18  1  0.16287486  0.67802215  0.30719176  1
  Ta  Ta19  1  0.16791312  0.67351576  0.80872493  1
  Ta  Ta20  1  0.66397189  0.64559652  0.81238090  1
  In  In21  1  0.00586414  0.00041392  0.35352322  1
  In  In22  1  0.50433501  0.02844665  0.85216104  1
  In  In23  1  0.99819754  0.00496220  0.65121203  1
  In  In24  1  0.49420535  0.97980993  0.14863608  1
  In  In25  1  0.34045979  0.33628032  0.97614635  1
  In  In26  1  0.83647847  0.33246944  0.97636841  1
  In  In27  1  0.33376061  0.33577052  0.48033832  1
  In  In28  1  0.83139795  0.34929381  0.47938873  1
  In  In29  1  0.67096739  0.66864834  0.31320314  1
  Si  Si30  1  0.14599340  0.00690175  0.24840611  1
  Si  Si31  1  0.35602227  0.71433172  0.25274805  1
  Si  Si32  1  0.99809542  0.28382879  0.25538027  1
  Si  Si33  1  0.14028588  0.28381794  0.75132851  1
  Si  Si34  1  0.64591042  0.28412372  0.74977929  1
  Si  Si35  1  0.35697741  0.00256432  0.74944182  1
  Si  Si36  1  0.68652785  0.03927385  0.58014483  1
  Si  Si37  1  0.33285476  0.62131952  0.58132553  1
  Si  Si38  1  0.84149653  0.63623668  0.58240393  1
  Si  Si39  1  0.47825765  0.62734240  0.07918471  1
  Si  Si40  1  0.83463837  0.04214723  0.08027541  1
  Si  Si41  1  0.80832997  0.66259202  0.91720465  1
  Si  Si42  1  0.02287617  0.38382127  0.91428469  1
  Si  Si43  1  0.52243579  0.37393618  0.91846817  1
  Si  Si44  1  0.16986021  0.95749506  0.91563406  1
  Si  Si45  1  0.30570391  0.95857561  0.41518733  1
  Si  Si46  1  0.66809575  0.37918158  0.41337128  1
  Si  Si47  1  0.02137743  0.66510676  0.41679015  1
  S  S48  1  0.64757560  0.00361808  0.25166195  1
  S  S49  1  0.85405340  0.70634779  0.24638123  1
  S  S50  1  0.50028379  0.28773570  0.24929611  1
  S  S51  1  0.99786661  0.70407305  0.75153485  1
  S  S52  1  0.49948350  0.71001518  0.75011458  1
  S  S53  1  0.85335709  0.00361562  0.75329090  1
  S  S54  1  0.47812797  0.33383784  0.58372837  1
  S  S55  1  0.97982562  0.33814797  0.58200485  1
  S  S56  1  0.18806749  0.04073590  0.58362075  1
  S  S57  1  0.97947875  0.62680031  0.08440412  1
  S  S58  1  0.33120981  0.03811383  0.08288907  1
  S  S59  1  0.18980093  0.33539409  0.08414627  1
  S  S60  1  0.68843738  0.33300741  0.08388124  1
  S  S61  1  0.30804841  0.66945914  0.91656582  1
  S  S62  1  0.66247251  0.94292546  0.91591604  1
  S  S63  1  0.81130257  0.95349103  0.41840442  1
  S  S64  1  0.16537626  0.38410997  0.41741366  1
  S  S65  1  0.52282171  0.66903617  0.41518699  1
  O  O66  1  0.11551790  0.06183211  0.30544996  1
  O  O67  1  0.60803372  0.03558748  0.30283941  1
  O  O68  1  0.42506987  0.80940910  0.30661925  1
  O  O69  1  0.90397018  0.76513651  0.29993002  1
  O  O70  1  0.48551998  0.17547680  0.30115810  1
  O  O71  1  0.96691740  0.15426297  0.30911018  1
  O  O72  1  0.09278175  0.15069000  0.80584311  1
  O  O73  1  0.61765369  0.17238465  0.80803150  1
  O  O74  1  0.47761572  0.77214111  0.80243931  1
  O  O75  1  0.98189495  0.78423869  0.80234250  1
  O  O76  1  0.41000784  0.04738170  0.80869456  1
  O  O77  1  0.91119126  0.03019074  0.80276271  1
  O  O78  1  0.40472032  0.97298045  0.69406760  1
  O  O79  1  0.88251842  0.96082870  0.69967308  1
  O  O80  1  0.08892529  0.21543522  0.69210651  1
  O  O81  1  0.58293631  0.19041217  0.69469909  1
  O  O82  1  0.01464922  0.80601094  0.69841689  1
  O  O83  1  0.51290677  0.81894095  0.69851946  1
  O  O84  1  0.38768824  0.82495164  0.19466222  1
  O  O85  1  0.90199430  0.81958433  0.19568346  1
  O  O86  1  0.01006161  0.18926675  0.19630255  1
  O  O87  1  0.51485981  0.21484807  0.19672727  1
  O  O88  1  0.08277596  0.97627733  0.19225265  1
  O  O89  1  0.59891506  0.97756511  0.19815523  1
  O  O90  1  0.43611332  0.36120521  0.63441176  1
  O  O91  1  0.93788249  0.36112573  0.63600982  1
  O  O92  1  0.24428914  0.12765616  0.63579355  1
  O  O93  1  0.75228942  0.13288452  0.63890295  1
  O  O94  1  0.31862234  0.49233926  0.63829241  1
  O  O95  1  0.82530554  0.50473665  0.63922692  1
  O  O96  1  0.42936256  0.50077958  0.13818542  1
  O  O97  1  0.93592247  0.50961551  0.13536361  1
  O  O98  1  0.31661362  0.11977819  0.13469070  1
  O  O99  1  0.81939859  0.14126662  0.13878376  1
  O  O100  1  0.24583256  0.36297798  0.13568387  1
  O  O101  1  0.74474916  0.35821444  0.13611866  1
  O  O102  1  0.22158679  0.29520415  0.03197043  1
  O  O103  1  0.72539763  0.30146162  0.03200363  1
  O  O104  1  0.41245230  0.54257787  0.02629861  1
  O  O105  1  0.92796890  0.56016357  0.03185392  1
  O  O106  1  0.34121114  0.13666039  0.02984884  1
  O  O107  1  0.85906730  0.17320537  0.02764778  1
  O  O108  1  0.22620979  0.14265880  0.53103611  1
  O  O109  1  0.72808229  0.16066053  0.52626064  1
  O  O110  1  0.35530041  0.54630793  0.52538286  1
  O  O111  1  0.86161430  0.56693321  0.52532617  1
  O  O112  1  0.42680840  0.29473018  0.53085807  1
  O  O113  1  0.92585349  0.30643558  0.53122184  1
  O  O114  1  0.26268993  0.68685034  0.97081777  1
  O  O115  1  0.76456987  0.69617821  0.97416885  1
  O  O116  1  0.08215469  0.47493426  0.97504722  1
  O  O117  1  0.58454476  0.48525183  0.97336694  1
  O  O118  1  0.15696288  0.83328395  0.97465876  1
  O  O119  1  0.65764276  0.84528600  0.96995846  1
  O  O120  1  0.26440862  0.84212867  0.47486936  1
  O  O121  1  0.75998518  0.83695545  0.46933974  1
  O  O122  1  0.16121450  0.47545344  0.47168470  1
  O  O123  1  0.65234847  0.47540915  0.47102637  1
  O  O124  1  0.08445364  0.68409786  0.47434064  1
  O  O125  1  0.57423745  0.69038251  0.46761977  1
  O  O126  1  0.07443188  0.65543329  0.35934432  1
  O  O127  1  0.56120258  0.64910681  0.36171406  1
  O  O128  1  0.24866983  0.85981063  0.35912948  1
  O  O129  1  0.76227735  0.88276534  0.36408697  1
  O  O130  1  0.17352363  0.48498340  0.36529660  1
  O  O131  1  0.68263206  0.48918541  0.35511573  1
  O  O132  1  0.07862308  0.50830139  0.86102167  1
  O  O133  1  0.57319022  0.48915191  0.85857281  1
  O  O134  1  0.18143105  0.86075983  0.85965028  1
  O  O135  1  0.67195711  0.85670459  0.86322950  1
  O  O136  1  0.25802668  0.65887083  0.86401592  1
  O  O137  1  0.74871360  0.64551713  0.85903336  1
  O  O138  1  0.01565956  0.84270955  0.41611675  1
  O  O139  1  0.51781122  0.83496845  0.40984847  1
  O  O140  1  0.40140731  0.96939297  0.40552833  1
  O  O141  1  0.89415762  0.95521941  0.41819218  1
  O  O142  1  0.08545787  0.21363737  0.41882045  1
  O  O143  1  0.57660746  0.18931151  0.40259115  1
  O  O144  1  0.01887135  0.19507003  0.90725675  1
  O  O145  1  0.51836885  0.18810518  0.92189784  1
  O  O146  1  0.07754503  0.95452132  0.90757275  1
  O  O147  1  0.58083319  0.94672886  0.91346844  1
  O  O148  1  0.39424406  0.82369601  0.91566372  1
  O  O149  1  0.90145725  0.83554710  0.90084318  1
  O  O150  1  0.49243549  0.18370438  0.59346072  1
  O  O151  1  0.99318440  0.18856995  0.58891489  1
  O  O152  1  0.10153848  0.01531551  0.59109668  1
  O  O153  1  0.59288128  0.01392188  0.60030056  1
  O  O154  1  0.41442718  0.81163134  0.59896183  1
  O  O155  1  0.91899092  0.83130194  0.59257664  1
  O  O156  1  0.49834775  0.82574749  0.08520872  1
  O  O157  1  0.99373451  0.80121025  0.09667864  1
  O  O158  1  0.40899800  0.02231644  0.08850277  1
  O  O159  1  0.91560803  0.01299078  0.09876384  1
  O  O160  1  0.10036540  0.18488515  0.09561413  1
  O  O161  1  0.60045266  0.18766907  0.09338537  1
  O  O162  1  0.34429060  0.17029882  0.73250990  1
  O  O163  1  0.84915104  0.16769925  0.74599717  1
  O  O164  1  0.23979351  0.30731945  0.74282749  1
  O  O165  1  0.74533322  0.31824357  0.73650591  1
  O  O166  1  0.42415202  0.52721307  0.73859108  1
  O  O167  1  0.92213078  0.52482468  0.74459945  1
  O  O168  1  0.34913300  0.51799231  0.24221623  1
  O  O169  1  0.84176133  0.52873096  0.23337852  1
  O  O170  1  0.41626515  0.29414224  0.24314262  1
  O  O171  1  0.91556010  0.31759357  0.23622432  1
  O  O172  1  0.24332954  0.16863750  0.23084867  1
  O  O173  1  0.73721497  0.16886343  0.24374543  1
  O  O174  1  0.30768460  0.50504806  0.92000646  1
  O  O175  1  0.81480274  0.48924433  0.92032814  1
  O  O176  1  0.43143023  0.36965508  0.91388186  1
  O  O177  1  0.92930418  0.36387246  0.91499019  1
  O  O178  1  0.24961954  0.14930711  0.92139687  1
  O  O179  1  0.73986888  0.11740041  0.91801080  1
  O  O180  1  0.32161736  0.15362757  0.41959492  1
  O  O181  1  0.82173430  0.12544790  0.42559060  1
  O  O182  1  0.24379042  0.36677503  0.42017849  1
  O  O183  1  0.74582977  0.34057496  0.41681285  1
  O  O184  1  0.43418937  0.51997821  0.41858616  1
  O  O185  1  0.93167012  0.48401562  0.41767611  1
  O  O186  1  0.18092979  0.49312765  0.07716764  1
  O  O187  1  0.68542793  0.49777330  0.07845451  1
  O  O188  1  0.06657378  0.63838860  0.07742667  1
  O  O189  1  0.57155570  0.63320006  0.07124916  1
  O  O190  1  0.25253828  0.85817004  0.07589888  1
  O  O191  1  0.74763706  0.85529318  0.07322220  1
  O  O192  1  0.18371206  0.86831909  0.57869344  1
  O  O193  1  0.67302020  0.84380124  0.56915895  1
  O  O194  1  0.24492167  0.63450963  0.57226910  1
  O  O195  1  0.74852773  0.63980311  0.57393543  1
  O  O196  1  0.06614304  0.49973386  0.57613293  1
  O  O197  1  0.56478412  0.49263946  0.57595041  1
  O  O198  1  0.15543597  0.83364139  0.25457910  1
  O  O199  1  0.66286449  0.85722463  0.25921146  1
  O  O200  1  0.26026388  0.67333752  0.26982081  1
  O  O201  1  0.76925807  0.69440121  0.24804112  1
  O  O202  1  0.08260633  0.47253470  0.26138796  1
  O  O203  1  0.57047969  0.46623442  0.25671383  1
  O  O204  1  0.15850386  0.47838902  0.76625394  1
  O  O205  1  0.65711481  0.48110824  0.75799073  1
  O  O206  1  0.07617381  0.68548832  0.76041073  1
  O  O207  1  0.57791557  0.69393513  0.75726572  1
  O  O208  1  0.25919492  0.83398184  0.75846085  1
  O  O209  1  0.76365536  0.85909415  0.76470832  1
