# generated using pymatgen
data_Na3HfScSi2SO12
_symmetry_space_group_name_H-M   'P 1'
_cell_length_a   9.14334346
_cell_length_b   9.14334313
_cell_length_c   22.71714379
_cell_angle_alpha   89.68675206
_cell_angle_beta   90.31324801
_cell_angle_gamma   120.08314214
_symmetry_Int_Tables_number   1
_chemical_formula_structural   Na3HfScSi2SO12
_chemical_formula_sum   'Na18 Hf6 Sc6 Si12 S6 O72'
_cell_volume   1643.31683135
_cell_formula_units_Z   6
loop_
 _symmetry_equiv_pos_site_id
 _symmetry_equiv_pos_as_xyz
  1  'x, y, z'
loop_
 _atom_site_type_symbol
 _atom_site_label
 _atom_site_symmetry_multiplicity
 _atom_site_fract_x
 _atom_site_fract_y
 _atom_site_fract_z
 _atom_site_occupancy
  Na  Na0  1  0.62919032  0.99887254  0.24245063  1
  Na  Na1  1  0.99578645  0.64547166  0.24418476  1
  Na  Na2  1  0.00112746  0.37080968  0.74245063  1
  Na  Na3  1  0.35452834  0.00421355  0.74418476  1
  Na  Na4  1  0.29585732  0.33220554  0.57578363  1
  Na  Na5  1  0.66245345  0.97880466  0.57751776  1
  Na  Na6  1  0.66779446  0.70414268  0.07578363  1
  Na  Na7  1  0.02119534  0.33754655  0.07751776  1
  Na  Na8  1  0.96252332  0.66553954  0.90911763  1
  Na  Na9  1  0.32911945  0.31213866  0.91085176  1
  Na  Na10  1  0.33446046  0.03747668  0.40911763  1
  Na  Na11  1  0.68786134  0.67088055  0.41085176  1
  Na  Na12  1  0.00420949  0.03029142  0.49462844  1
  Na  Na13  1  0.96970858  0.99579051  0.99462844  1
  Na  Na14  1  0.67087649  0.36362442  0.82796144  1
  Na  Na15  1  0.63637558  0.32912351  0.32796144  1
  Na  Na16  1  0.33754249  0.69695842  0.16129544  1
  Na  Na17  1  0.30304158  0.66245751  0.66129544  1
  Hf  Hf18  1  0.01636192  0.00378831  0.64717857  1
  Hf  Hf19  1  0.99621169  0.98363808  0.14717857  1
  Hf  Hf20  1  0.68302892  0.33712131  0.98051157  1
  Hf  Hf21  1  0.66287869  0.31697108  0.48051157  1
  Hf  Hf22  1  0.34969492  0.67045531  0.31384557  1
  Hf  Hf23  1  0.32954469  0.65030508  0.81384557  1
  Sc  Sc24  1  0.00580732  0.00611227  0.35222151  1
  Sc  Sc25  1  0.99388773  0.99419268  0.85222151  1
  Sc  Sc26  1  0.67247432  0.33944527  0.68555451  1
  Sc  Sc27  1  0.66055473  0.32752568  0.18555451  1
  Sc  Sc28  1  0.33914032  0.67277927  0.01888851  1
  Sc  Sc29  1  0.32722073  0.66085968  0.51888851  1
  Si  Si30  1  0.29551440  0.00031918  0.25373302  1
  Si  Si31  1  0.70795744  0.70207054  0.25216181  1
  Si  Si32  1  0.29792946  0.29204256  0.75216181  1
  Si  Si33  1  -0.00031918  0.70448560  0.75373302  1
  Si  Si34  1  0.96218140  0.33365218  0.58706602  1
  Si  Si35  1  0.37462444  0.03540354  0.58549481  1
  Si  Si36  1  0.96459646  0.62537556  0.08549481  1
  Si  Si37  1  0.66634782  0.03781860  0.08706602  1
  Si  Si38  1  0.62884740  0.66698618  0.92040002  1
  Si  Si39  1  0.04129044  0.36873754  0.91882881  1
  Si  Si40  1  0.63126246  0.95870956  0.41882881  1
  Si  Si41  1  0.33301382  0.37115260  0.42040002  1
  S  S42  1  0.00383615  0.29406822  0.24922828  1
  S  S43  1  0.70593178  0.99616385  0.74922828  1
  S  S44  1  0.67050315  0.62740122  0.58256128  1
  S  S45  1  0.37259878  0.32949685  0.08256128  1
  S  S46  1  0.33716915  0.96073522  0.91589528  1
  S  S47  1  0.03926478  0.66283085  0.41589528  1
  O  O48  1  0.21008706  0.01888378  0.31356488  1
  O  O49  1  0.82318811  0.79667763  0.30964259  1
  O  O50  1  0.98323640  0.18728111  0.30041858  1
  O  O51  1  0.20332237  0.17681189  0.80964259  1
  O  O52  1  0.98111622  0.78991294  0.81356488  1
  O  O53  1  0.81271889  0.01676360  0.80041858  1
  O  O54  1  0.77959914  0.97316084  0.69421082  1
  O  O55  1  0.17439917  0.20385509  0.69346599  1
  O  O56  1  0.02153932  0.82968426  0.69755446  1
  O  O57  1  0.79614491  0.82560083  0.19346599  1
  O  O58  1  0.02683916  0.22040086  0.19421082  1
  O  O59  1  0.17031574  0.97846068  0.19755446  1
  O  O60  1  0.87675406  0.35221678  0.64689788  1
  O  O61  1  0.48985511  0.13001063  0.64297559  1
  O  O62  1  0.64990340  0.52061411  0.63375158  1
  O  O63  1  0.86998937  0.51014489  0.14297559  1
  O  O64  1  0.64778322  0.12324594  0.14689788  1
  O  O65  1  0.47938589  0.35009660  0.13375158  1
  O  O66  1  0.44626614  0.30649384  0.02754382  1
  O  O67  1  0.84106617  0.53718809  0.02679899  1
  O  O68  1  0.68820632  0.16301726  0.03088746  1
  O  O69  1  0.46281191  0.15893383  0.52679899  1
  O  O70  1  0.69350616  0.55373386  0.52754382  1
  O  O71  1  0.83698274  0.31179368  0.53088746  1
  O  O72  1  0.54342006  0.68555078  0.98023188  1
  O  O73  1  0.15652111  0.46334463  0.97630959  1
  O  O74  1  0.31656940  0.85394811  0.96708558  1
  O  O75  1  0.53665537  0.84347889  0.47630959  1
  O  O76  1  0.31444922  0.45657994  0.48023188  1
  O  O77  1  0.14605189  0.68343060  0.46708558  1
  O  O78  1  0.11293214  0.63982784  0.36087782  1
  O  O79  1  0.50773217  0.87052209  0.36013299  1
  O  O80  1  0.35487232  0.49635126  0.36422146  1
  O  O81  1  0.12947791  0.49226783  0.86013299  1
  O  O82  1  0.36017216  0.88706786  0.86087782  1
  O  O83  1  0.50364874  0.64512768  0.86422146  1
  O  O84  1  0.02368965  0.81762799  0.41305412  1
  O  O85  1  0.81426621  0.97210995  0.41195270  1
  O  O86  1  0.17776317  0.17751196  0.41396405  1
  O  O87  1  0.02789005  0.18573379  0.91195270  1
  O  O88  1  0.18237201  0.97631035  0.91305412  1
  O  O89  1  0.82248804  0.82223683  0.91396405  1
  O  O90  1  0.96386224  0.15110085  0.58876428  1
  O  O91  1  0.18881707  0.02646873  0.58867512  1
  O  O92  1  0.81844584  0.80220053  0.58894539  1
  O  O93  1  0.97353127  0.81118293  0.08867512  1
  O  O94  1  0.84889915  0.03613776  0.08876428  1
  O  O95  1  0.19779947  0.18155416  0.08894539  1
  O  O96  1  0.69035665  0.15096099  0.74638712  1
  O  O97  1  0.48093321  0.30544295  0.74528570  1
  O  O98  1  0.84443017  0.51084496  0.74729705  1
  O  O99  1  0.69455705  0.51906679  0.24528570  1
  O  O100  1  0.84903901  0.30964335  0.24638712  1
  O  O101  1  0.48915504  0.15556983  0.24729705  1
  O  O102  1  0.63052924  0.48443385  0.92209728  1
  O  O103  1  0.85548407  0.35980173  0.92200812  1
  O  O104  1  0.48511284  0.13553353  0.92227839  1
  O  O105  1  0.64019827  0.14451593  0.42200812  1
  O  O106  1  0.51556615  0.36947076  0.42209728  1
  O  O107  1  0.86446647  0.51488716  0.42227839  1
  O  O108  1  0.35702265  0.48429499  0.07972112  1
  O  O109  1  0.14759921  0.63877695  0.07861970  1
  O  O110  1  0.51109617  0.84417896  0.08063105  1
  O  O111  1  0.36122305  0.85240079  0.57861970  1
  O  O112  1  0.51570501  0.64297735  0.57972112  1
  O  O113  1  0.15582104  0.48890383  0.58063105  1
  O  O114  1  0.29719524  0.81776785  0.25543128  1
  O  O115  1  0.52215007  0.69313573  0.25534212  1
  O  O116  1  0.15177884  0.46886753  0.25561239  1
  O  O117  1  0.30686427  0.47784993  0.75534212  1
  O  O118  1  0.18223215  0.70280476  0.75543128  1
  O  O119  1  0.53113247  0.84822116  0.75561239  1
