# generated using pymatgen
data_Na3LaSi2GeSO12
_symmetry_space_group_name_H-M   'P 1'
_cell_length_a   9.45002920
_cell_length_b   9.45002883
_cell_length_c   22.62976616
_cell_angle_alpha   85.15802640
_cell_angle_beta   94.84197368
_cell_angle_gamma   117.39837182
_symmetry_Int_Tables_number   1
_chemical_formula_structural   Na3LaSi2GeSO12
_chemical_formula_sum   'Na18 La6 Si12 Ge6 S6 O72'
_cell_volume   1785.44278638
_cell_formula_units_Z   6
loop_
 _symmetry_equiv_pos_site_id
 _symmetry_equiv_pos_as_xyz
  1  'x, y, z'
loop_
 _atom_site_type_symbol
 _atom_site_label
 _atom_site_symmetry_multiplicity
 _atom_site_fract_x
 _atom_site_fract_y
 _atom_site_fract_z
 _atom_site_occupancy
  Na  Na0  1  0.64086412  -0.00054359  0.24059092  1
  Na  Na1  1  -0.00027238  0.62942278  0.25244218  1
  Na  Na2  1  0.00054359  0.35913588  0.74059092  1
  Na  Na3  1  0.37057722  0.00027238  0.75244218  1
  Na  Na4  1  0.30753112  0.33278941  0.57392392  1
  Na  Na5  1  0.66639462  0.96275578  0.58577518  1
  Na  Na6  1  0.66721059  0.69246888  0.07392392  1
  Na  Na7  1  0.03724422  0.33360538  0.08577518  1
  Na  Na8  1  0.97419712  0.66612341  0.90725792  1
  Na  Na9  1  0.33306062  0.29608978  0.91910918  1
  Na  Na10  1  0.33387659  0.02580288  0.40725792  1
  Na  Na11  1  0.70391022  0.66693938  0.41910918  1
  Na  Na12  1  0.98687735  0.01052076  0.50435050  1
  Na  Na13  1  0.98947924  0.01312265  0.00435050  1
  Na  Na14  1  0.65354435  0.34385376  0.83768350  1
  Na  Na15  1  0.65614624  0.34645565  0.33768350  1
  Na  Na16  1  0.32021035  0.67718776  0.17101750  1
  Na  Na17  1  0.32281224  0.67978965  0.67101750  1
  La  La18  1  0.00726210  0.01761067  0.35081801  1
  La  La19  1  0.98238933  0.99273790  0.85081801  1
  La  La20  1  0.67392910  0.35094367  0.68415101  1
  La  La21  1  0.64905633  0.32607090  0.18415101  1
  La  La22  1  0.34059510  0.68427767  0.01748501  1
  La  La23  1  0.31572233  0.65940490  0.51748501  1
  Si  Si24  1  0.28174904  0.97015147  0.25433896  1
  Si  Si25  1  0.70002188  0.70262757  0.25327402  1
  Si  Si26  1  0.29737243  0.29997812  0.75327402  1
  Si  Si27  1  0.02984853  0.71825096  0.75433896  1
  Si  Si28  1  0.94841604  0.30348447  0.58767196  1
  Si  Si29  1  0.36668888  0.03596057  0.58660702  1
  Si  Si30  1  0.96403943  0.63331112  0.08660702  1
  Si  Si31  1  0.69651553  0.05158396  0.08767196  1
  Si  Si32  1  0.61508204  0.63681847  0.92100596  1
  Si  Si33  1  0.03335488  0.36929457  0.91994102  1
  Si  Si34  1  0.63070543  0.96664512  0.41994102  1
  Si  Si35  1  0.36318153  0.38491796  0.42100596  1
  Ge  Ge36  1  0.07301913  0.03885002  0.64814932  1
  Ge  Ge37  1  0.96114998  0.92698087  0.14814932  1
  Ge  Ge38  1  0.73968613  0.37218302  0.98148232  1
  Ge  Ge39  1  0.62781698  0.26031387  0.48148232  1
  Ge  Ge40  1  0.40635213  0.70551702  0.31481632  1
  Ge  Ge41  1  0.29448298  0.59364787  0.81481632  1
  S  S42  1  0.02416005  0.32827531  0.24358790  1
  S  S43  1  0.67172469  0.97583995  0.74358790  1
  S  S44  1  0.69082705  0.66160831  0.57692090  1
  S  S45  1  0.33839169  0.30917295  0.07692090  1
  S  S46  1  0.35749305  0.99494231  0.91025490  1
  S  S47  1  0.00505769  0.64250695  0.41025490  1
  O  O48  1  0.21574430  0.99454808  0.31338388  1
  O  O49  1  0.79892215  0.79305043  0.31079885  1
  O  O50  1  0.01591572  0.23512802  0.30011426  1
  O  O51  1  0.20694957  0.20107785  0.81079885  1
  O  O52  1  0.00545192  0.78425570  0.81338388  1
  O  O53  1  0.76487198  0.98408428  0.80011426  1
  O  O54  1  0.75835980  0.97718751  0.69262703  1
  O  O55  1  0.18425641  0.21489296  0.69063847  1
  O  O56  1  0.06380198  0.86857576  0.69682691  1
  O  O57  1  0.78510704  0.81574359  0.19063847  1
  O  O58  1  0.02281249  0.24164020  0.19262703  1
  O  O59  1  0.13142424  0.93619802  0.19682691  1
  O  O60  1  0.88241130  0.32788108  0.64671688  1
  O  O61  1  0.46558915  0.12638343  0.64413185  1
  O  O62  1  0.68258272  0.56846102  0.63344726  1
  O  O63  1  0.87361657  0.53441085  0.14413185  1
  O  O64  1  0.67211892  0.11758870  0.14671688  1
  O  O65  1  0.43153898  0.31741728  0.13344726  1
  O  O66  1  0.42502680  0.31052051  0.02596003  1
  O  O67  1  0.85092341  0.54822596  0.02397147  1
  O  O68  1  0.73046898  0.20190876  0.03015991  1
  O  O69  1  0.45177404  0.14907659  0.52397147  1
  O  O70  1  0.68947949  0.57497320  0.52596003  1
  O  O71  1  0.79809124  0.26953102  0.53015991  1
  O  O72  1  0.54907730  0.66121508  0.98005088  1
  O  O73  1  0.13225515  0.45971743  0.97746585  1
  O  O74  1  0.34924872  0.90179502  0.96678126  1
  O  O75  1  0.54028257  0.86774485  0.47746585  1
  O  O76  1  0.33878492  0.45092270  0.48005088  1
  O  O77  1  0.09820498  0.65075128  0.46678126  1
  O  O78  1  0.09169280  0.64385451  0.35929403  1
  O  O79  1  0.51758941  0.88155996  0.35730547  1
  O  O80  1  0.39713498  0.53524276  0.36349391  1
  O  O81  1  0.11844004  0.48241059  0.85730547  1
  O  O82  1  0.35614549  0.90830720  0.85929403  1
  O  O83  1  0.46475724  0.60286502  0.86349391  1
  O  O84  1  0.98450789  0.79101023  0.41150205  1
  O  O85  1  0.80882805  0.98697193  0.41805031  1
  O  O86  1  0.22719591  0.20673368  0.40819338  1
  O  O87  1  0.01302807  0.19117195  0.91805031  1
  O  O88  1  0.20898977  0.01549211  0.91150205  1
  O  O89  1  0.79326632  0.77280409  0.90819338  1
  O  O90  1  0.96014699  0.12378517  0.59576992  1
  O  O91  1  0.18972479  0.04543760  0.58613962  1
  O  O92  1  0.83237971  0.81922864  0.57840351  1
  O  O93  1  0.95456240  0.81027521  0.08613962  1
  O  O94  1  0.87621483  0.03985301  0.09576992  1
  O  O95  1  0.18077136  0.16762029  0.07840351  1
  O  O96  1  0.65117489  0.12434323  0.74483505  1
  O  O97  1  0.47549505  0.32030493  0.75138331  1
  O  O98  1  0.89386291  0.54006668  0.74152638  1
  O  O99  1  0.67969507  0.52450495  0.25138331  1
  O  O100  1  0.87565677  0.34882511  0.24483505  1
  O  O101  1  0.45993332  0.10613709  0.24152638  1
  O  O102  1  0.62681399  0.45711817  0.92910292  1
  O  O103  1  0.85639179  0.37877060  0.91947262  1
  O  O104  1  0.49904671  0.15256164  0.91173651  1
  O  O105  1  0.62122940  0.14360821  0.41947262  1
  O  O106  1  0.54288183  0.37318601  0.42910292  1
  O  O107  1  0.84743836  0.50095329  0.41173651  1
  O  O108  1  0.31784089  0.45767723  0.07816905  1
  O  O109  1  0.14216105  0.65363893  0.08471731  1
  O  O110  1  0.56052891  0.87340068  0.07486038  1
  O  O111  1  0.34636107  0.85783895  0.58471731  1
  O  O112  1  0.54232277  0.68215911  0.57816905  1
  O  O113  1  0.12659932  0.43947109  0.57486038  1
  O  O114  1  0.29347999  0.79045217  0.26243692  1
  O  O115  1  0.52305779  0.71210460  0.25280662  1
  O  O116  1  0.16571271  0.48589564  0.24507051  1
  O  O117  1  0.28789540  0.47694221  0.75280662  1
  O  O118  1  0.20954783  0.70652001  0.76243692  1
  O  O119  1  0.51410436  0.83428729  0.74507051  1
