# generated using pymatgen
data_Na3Ca3Y(SO4)6
_symmetry_space_group_name_H-M   'P 1'
_cell_length_a   9.19234525
_cell_length_b   9.19194561
_cell_length_c   24.12612577
_cell_angle_alpha   89.85723305
_cell_angle_beta   90.23071865
_cell_angle_gamma   120.08635732
_symmetry_Int_Tables_number   1
_chemical_formula_structural   Na3Ca3Y(SO4)6
_chemical_formula_sum   'Na9 Ca9 Y3 S18 O72'
_cell_volume   1763.88321618
_cell_formula_units_Z   3
loop_
 _symmetry_equiv_pos_site_id
 _symmetry_equiv_pos_as_xyz
  1  'x, y, z'
loop_
 _atom_site_type_symbol
 _atom_site_label
 _atom_site_symmetry_multiplicity
 _atom_site_fract_x
 _atom_site_fract_y
 _atom_site_fract_z
 _atom_site_occupancy
  Na  Na0  1  0.63917138  0.99850244  0.24723586  1
  Na  Na1  1  0.35873305  0.36007711  0.24674319  1
  Na  Na2  1  0.03329084  0.69791282  0.58993045  1
  Na  Na3  1  0.99982766  0.02275788  0.49915624  1
  Na  Na4  1  0.99983042  0.99885714  0.99624738  1
  Na  Na5  1  0.66576758  0.33210713  0.82656618  1
  Na  Na6  1  0.69282631  0.35897967  0.33850065  1
  Na  Na7  1  0.30956272  0.66594863  0.15042017  1
  Na  Na8  1  0.36146427  0.66592933  0.67308996  1
  Ca  Ca9  1  0.00037677  0.98946925  0.35211204  1
  Ca  Ca10  1  0.99993451  0.99861661  0.84846038  1
  Ca  Ca11  1  0.99925554  0.01126970  0.65472478  1
  Ca  Ca12  1  0.99950395  0.99136615  0.14538126  1
  Ca  Ca13  1  0.65847833  0.32466199  0.68555518  1
  Ca  Ca14  1  0.67725913  0.34418346  0.17758964  1
  Ca  Ca15  1  0.33647181  0.66659261  0.01473797  1
  Ca  Ca16  1  0.34367579  0.66656274  0.51393022  1
  Ca  Ca17  1  0.32247436  0.66674522  0.32369881  1
  Y  Y18  1  0.66530821  0.33215482  0.98325452  1
  Y  Y19  1  0.65605724  0.32321787  0.48402387  1
  Y  Y20  1  0.33057993  0.66616114  0.81909633  1
  S  S21  1  0.31073997  0.00626350  0.24985099  1
  S  S22  1  0.68858648  0.69537804  0.25126779  1
  S  S23  1  0.00007421  0.29392766  0.25055568  1
  S  S24  1  0.30728903  0.31189297  0.75200797  1
  S  S25  1  0.00481819  0.69450028  0.74714086  1
  S  S26  1  0.68877615  0.99526756  0.75165755  1
  S  S27  1  0.96588654  0.33721092  0.58210889  1
  S  S28  1  0.35510701  0.02412362  0.58271170  1
  S  S29  1  0.67419243  0.63407844  0.58329485  1
  S  S30  1  0.97364761  0.63868602  0.08102085  1
  S  S31  1  0.66436362  0.02886583  0.08636549  1
  S  S32  1  0.36382972  0.33565964  0.08585339  1
  S  S33  1  0.63549786  0.66392529  0.91772453  1
  S  S34  1  0.02776710  0.36349223  0.91783930  1
  S  S35  1  0.33533649  0.97046635  0.91770828  1
  S  S36  1  0.64333703  0.98022389  0.41365441  1
  S  S37  1  0.33626865  0.35760816  0.41363260  1
  S  S38  1  0.01944220  0.66257319  0.42266244  1
  O  O39  1  0.22343851  0.01684443  0.29969131  1
  O  O40  1  0.78609973  0.77525860  0.30185013  1
  O  O41  1  0.98225364  0.19215033  0.30042282  1
  O  O42  1  0.21577076  0.21380871  0.80107579  1
  O  O43  1  0.99823899  0.79488563  0.79352539  1
  O  O44  1  0.78770242  0.00300945  0.80073820  1
  O  O45  1  0.76749653  0.98253503  0.69965986  1
  O  O46  1  0.21517597  0.23298120  0.70000091  1
  O  O47  1  0.01693645  0.77896133  0.69279833  1
  O  O48  1  0.77637903  0.79451475  0.20141810  1
  O  O49  1  0.01700541  0.20982376  0.20055711  1
  O  O50  1  0.21369775  0.99164052  0.19923622  1
  O  O51  1  0.87814205  0.34775961  0.63161857  1
  O  O52  1  0.45019109  0.11080417  0.63268811  1
  O  O53  1  0.66328033  0.53865856  0.63375709  1
  O  O54  1  0.89332930  0.55364486  0.13368253  1
  O  O55  1  0.66187326  0.10471279  0.14097847  1
  O  O56  1  0.44262205  0.33867201  0.14052553  1
  O  O57  1  0.47411794  0.33738463  0.04007268  1
  O  O58  1  0.87159025  0.53556762  0.03302013  1
  O  O59  1  0.66434508  0.13840495  0.04040041  1
  O  O60  1  0.44623730  0.12061628  0.53201013  1
  O  O61  1  0.67794314  0.53805323  0.53350745  1
  O  O62  1  0.86455108  0.32478819  0.53148684  1
  O  O63  1  0.55191171  0.67475501  0.96810961  1
  O  O64  1  0.12389497  0.44870580  0.96796020  1
  O  O65  1  0.32640949  0.87601415  0.96802356  1
  O  O66  1  0.54237333  0.87500883  0.46053970  1
  O  O67  1  0.33133837  0.45754584  0.46059959  1
  O  O68  1  0.11054779  0.66728392  0.47382238  1
  O  O69  1  0.10630100  0.65088177  0.37253843  1
  O  O70  1  0.55910281  0.90597263  0.35974445  1
  O  O71  1  0.34679667  0.44233289  0.35970848  1
  O  O72  1  0.11562739  0.46538987  0.86756445  1
  O  O73  1  0.34720955  0.88190206  0.86750065  1
  O  O74  1  0.53378582  0.65191388  0.86763962  1
  O  O75  1  0.00024717  0.81300432  0.42025353  1
  O  O76  1  0.81407614  0.00152041  0.41589943  1
  O  O77  1  0.18649408  0.18707435  0.41548221  1
  O  O78  1  0.00618753  0.19328192  0.91402037  1
  O  O79  1  0.18644904  0.99153509  0.91399062  1
  O  O80  1  0.80655850  0.81192057  0.91417160  1
  O  O81  1  0.98979960  0.18969046  0.58294698  1
  O  O82  1  0.18403188  0.00543564  0.58219165  1
  O  O83  1  0.83660954  0.79821679  0.58295622  1
  O  O84  1  0.98581694  0.80548572  0.07789188  1
  O  O85  1  0.81855737  0.01658143  0.08176494  1
  O  O86  1  0.19737513  0.18081344  0.08087242  1
  O  O87  1  0.66711467  0.14483983  0.75062247  1
  O  O88  1  0.47857565  0.33336413  0.75122110  1
  O  O89  1  0.85480478  0.52334722  0.74819260  1
  O  O90  1  0.65678623  0.51799398  0.24798916  1
  O  O91  1  0.84542831  0.30945826  0.24679447  1
  O  O92  1  0.48066401  0.16417020  0.24787323  1
  O  O93  1  0.64726495  0.50668490  0.91941683  1
  O  O94  1  0.85769202  0.34957432  0.91935692  1
  O  O95  1  0.49183086  0.14055595  0.91907308  1
  O  O96  1  0.65948658  0.15097109  0.41759605  1
  O  O97  1  0.49092398  0.34186099  0.41786527  1
  O  O98  1  0.84691657  0.50873242  0.42259605  1
  O  O99  1  0.34668786  0.48738016  0.08233471  1
  O  O100  1  0.14333730  0.65791449  0.07899983  1
  O  O101  1  0.51190672  0.86047791  0.08270740  1
  O  O102  1  0.33297543  0.85148440  0.58019218  1
  O  O103  1  0.52945850  0.66210983  0.57970799  1
  O  O104  1  0.13155159  0.49713534  0.57876587  1
  O  O105  1  0.34135009  0.86055321  0.25330519  1
  O  O106  1  0.51968033  0.68388485  0.25360050  1
  O  O107  1  0.15444958  0.46373010  0.25453273  1
  O  O108  1  0.32596154  0.48445455  0.75484536  1
  O  O109  1  0.15964843  0.67870520  0.75268281  1
  O  O110  1  0.51674103  0.84058498  0.75463345  1
