# generated using pymatgen
data_Mg(CoO2)2
_symmetry_space_group_name_H-M   'P 1'
_cell_length_a   10.34379137
_cell_length_b   3.14772498
_cell_length_c   11.30689237
_cell_angle_alpha   65.04613339
_cell_angle_beta   28.76504530
_cell_angle_gamma   89.75648528
_symmetry_Int_Tables_number   1
_chemical_formula_structural   Mg(CoO2)2
_chemical_formula_sum   'Mg1 Co2 O4'
_cell_volume   87.66774800
_cell_formula_units_Z   1
loop_
 _symmetry_equiv_pos_site_id
 _symmetry_equiv_pos_as_xyz
  1  'x, y, z'
loop_
 _atom_site_type_symbol
 _atom_site_label
 _atom_site_symmetry_multiplicity
 _atom_site_fract_x
 _atom_site_fract_y
 _atom_site_fract_z
 _atom_site_occupancy
  Mg  Mg0  1  0.58451375  0.75717034  0.16450419  1
  Co  Co1  1  0.26418414  0.33696405  0.76487129  1
  Co  Co2  1  0.71667621  0.87119889  0.75180649  1
  O  O3  1  0.63438149  0.30211402  0.45557774  1
  O  O4  1  0.04205980  0.95301386  0.36536977  1
  O  O5  1  0.88056378  0.86238332  0.76209592  1
  O  O6  1  0.29189084  0.65753653  0.56285961  1
