# generated using pymatgen
data_Na2HfTiSi2SO12
_symmetry_space_group_name_H-M   'P 1'
_cell_length_a   8.95311219
_cell_length_b   8.93201616
_cell_length_c   22.58365453
_cell_angle_alpha   89.98517228
_cell_angle_beta   89.85675243
_cell_angle_gamma   119.88444474
_symmetry_Int_Tables_number   1
_chemical_formula_structural   Na2HfTiSi2SO12
_chemical_formula_sum   'Na12 Hf6 Ti6 Si12 S6 O72'
_cell_volume   1565.85264205
_cell_formula_units_Z   6
loop_
 _symmetry_equiv_pos_site_id
 _symmetry_equiv_pos_as_xyz
  1  'x, y, z'
loop_
 _atom_site_type_symbol
 _atom_site_label
 _atom_site_symmetry_multiplicity
 _atom_site_fract_x
 _atom_site_fract_y
 _atom_site_fract_z
 _atom_site_occupancy
  Na  Na0  1  0.99822548  0.62689363  0.25428368  1
  Na  Na1  1  0.37369658  0.00820193  0.75272680  1
  Na  Na2  1  0.66480318  0.95991554  0.58719444  1
  Na  Na3  1  0.03809645  0.33820657  0.08947888  1
  Na  Na4  1  0.32391820  0.29239497  0.92184798  1
  Na  Na5  1  0.70438363  0.67133566  0.41994259  1
  Na  Na6  1  0.02126540  0.99523235  0.50025629  1
  Na  Na7  1  0.01348583  0.98402968  0.00338021  1
  Na  Na8  1  0.68788447  0.32264643  0.83212459  1
  Na  Na9  1  0.67273422  0.31588725  0.33708618  1
  Na  Na10  1  0.34875613  0.65643475  0.17033578  1
  Na  Na11  1  0.34108549  0.64934623  0.66633197  1
  Hf  Hf12  1  0.00359007  0.01275481  0.85214524  1
  Hf  Hf13  1  0.66865235  0.34557757  0.19006310  1
  Hf  Hf14  1  0.66518068  0.33336822  0.98113357  1
  Hf  Hf15  1  0.31806193  0.66352448  0.02151007  1
  Hf  Hf16  1  0.33580076  0.67781804  0.52056347  1
  Hf  Hf17  1  0.33324859  0.66769798  0.81054771  1
  Ti  Ti18  1  0.97619994  0.99114633  0.35408490  1
  Ti  Ti19  1  0.99951364  0.00116984  0.64491733  1
  Ti  Ti20  1  0.00131066  0.00176175  0.14894660  1
  Ti  Ti21  1  0.64471436  0.32411452  0.68589012  1
  Ti  Ti22  1  0.66565392  0.33502975  0.47986318  1
  Ti  Ti23  1  0.33198178  0.66858511  0.31407063  1
  Si  Si24  1  0.70465243  0.71915900  0.25113317  1
  Si  Si25  1  0.00460705  0.28868224  0.25095386  1
  Si  Si26  1  0.28757809  0.29221438  0.74671137  1
  Si  Si27  1  0.71209347  0.00674340  0.74502102  1
  Si  Si28  1  0.37283900  0.05133949  0.58302443  1
  Si  Si29  1  0.67073387  0.62091901  0.58290317  1
  Si  Si30  1  0.95534491  0.63456124  0.08588049  1
  Si  Si31  1  0.36846658  0.32908766  0.08400237  1
  Si  Si32  1  0.03605112  0.37591207  0.91653946  1
  Si  Si33  1  0.33351658  0.96163824  0.91412386  1
  Si  Si34  1  0.61891517  0.96286631  0.41612938  1
  Si  Si35  1  0.04088510  0.66818304  0.41437955  1
  S  S36  1  0.28505134  0.99872999  0.25169027  1
  S  S37  1  0.99272893  0.70648775  0.74769049  1
  S  S38  1  0.95205420  0.33305010  0.58356721  1
  S  S39  1  0.66811443  0.04014143  0.08531984  1
  S  S40  1  0.62453752  0.66904068  0.91685650  1
  S  S41  1  0.32975752  0.37366278  0.41580975  1
  O  O42  1  0.20667217  0.02150770  0.30473337  1
  O  O43  1  0.82679488  0.80170623  0.31026585  1
  O  O44  1  0.98896380  0.16392463  0.30668644  1
  O  O45  1  0.21424386  0.17460173  0.80709155  1
  O  O46  1  0.97169865  0.78600551  0.80239308  1
  O  O47  1  0.82474323  0.02220317  0.80347308  1
  O  O48  1  0.80671106  0.98052885  0.68615977  1
  O  O49  1  0.16162551  0.17757620  0.69223189  1
  O  O50  1  0.02119264  0.81786679  0.69542128  1
  O  O51  1  0.81433738  0.84112319  0.19492372  1
  O  O52  1  0.02767870  0.20053481  0.19006660  1
  O  O53  1  0.18101129  0.97532778  0.19741708  1
  O  O54  1  0.87444021  0.35571855  0.63712277  1
  O  O55  1  0.49432493  0.13330829  0.64243068  1
  O  O56  1  0.65467582  0.49726856  0.63898817  1
  O  O57  1  0.87482948  0.50782537  0.14402996  1
  O  O58  1  0.64313527  0.12021446  0.13851399  1
  O  O59  1  0.49064040  0.34549585  0.13971984  1
  O  O60  1  0.44989603  0.30187273  0.02253032  1
  O  O61  1  0.83693575  0.53491543  0.02860534  1
  O  O62  1  0.69196605  0.14882006  0.03194438  1
  O  O63  1  0.48424235  0.17486968  0.52690467  1
  O  O64  1  0.69381309  0.53096117  0.52206170  1
  O  O65  1  0.84656069  0.30889317  0.52971247  1
  O  O66  1  0.54559686  0.69182201  0.97053876  1
  O  O67  1  0.15600372  0.45644587  0.97606766  1
  O  O68  1  0.32203556  0.84550845  0.97139241  1
  O  O69  1  0.54642805  0.83953848  0.47524205  1
  O  O70  1  0.30673794  0.45385000  0.47000463  1
  O  O71  1  0.16072244  0.68975314  0.47145736  1
  O  O72  1  0.13425836  0.64120536  0.35502262  1
  O  O73  1  0.49229821  0.85164325  0.36083429  1
  O  O74  1  0.35825676  0.48605588  0.36330860  1
  O  O75  1  0.14251547  0.49410213  0.85992038  1
  O  O76  1  0.35960626  0.87701940  0.85320067  1
  O  O77  1  0.51788527  0.64496410  0.86359336  1
  O  O78  1  0.01988516  0.84056267  0.40781539  1
  O  O79  1  0.81028265  0.97843261  0.40743740  1
  O  O80  1  0.18165816  0.20026472  0.40988646  1
  O  O81  1  0.02213999  0.18561616  0.91169382  1
  O  O82  1  0.15684515  0.97418348  0.91193806  1
  O  O83  1  0.79876867  0.81811263  0.91033667  1
  O  O84  1  0.96498478  0.17183666  0.58619645  1
  O  O85  1  0.18287829  0.03008983  0.58905750  1
  O  O86  1  0.83768959  0.81740766  0.58991833  1
  O  O87  1  0.97719567  0.82476648  0.09404182  1
  O  O88  1  0.82874955  0.03168408  0.08862280  1
  O  O89  1  0.17149700  0.16363419  0.09168599  1
  O  O90  1  0.69450020  0.18098408  0.73975244  1
  O  O91  1  0.47904013  0.30796685  0.73991823  1
  O  O92  1  0.84561997  0.53312407  0.74231303  1
  O  O93  1  0.69440322  0.52958152  0.24687908  1
  O  O94  1  0.83078589  0.30701454  0.24796371  1
  O  O95  1  0.46188454  0.14820307  0.24553145  1
  O  O96  1  0.63415276  0.50801179  0.92049410  1
  O  O97  1  0.84751324  0.35653414  0.92147804  1
  O  O98  1  0.49629083  0.15993834  0.91903400  1
  O  O99  1  0.64059122  0.15316105  0.42406797  1
  O  O100  1  0.49321429  0.36618484  0.42033344  1
  O  O101  1  0.84410883  0.50041970  0.42216272  1
  O  O102  1  0.35123711  0.50358506  0.08100643  1
  O  O103  1  0.14566199  0.64902883  0.08022987  1
  O  O104  1  0.51889515  0.86615832  0.07870475  1
  O  O105  1  0.36319445  0.86243263  0.57801481  1
  O  O106  1  0.49755280  0.63998302  0.57935015  1
  O  O107  1  0.12837854  0.48329463  0.57735578  1
  O  O108  1  0.29696914  0.83695372  0.25418877  1
  O  O109  1  0.51467775  0.69774235  0.25809484  1
  O  O110  1  0.17128475  0.48547143  0.25827098  1
  O  O111  1  0.30858676  0.48188206  0.75056405  1
  O  O112  1  0.15644460  0.69850529  0.75199219  1
  O  O113  1  0.51468797  0.84087732  0.74919621  1
