# generated using pymatgen
data_MgMn(CoO3)2
_symmetry_space_group_name_H-M   'P 1'
_cell_length_a   6.74646527
_cell_length_b   2.94367004
_cell_length_c   6.27772152
_cell_angle_alpha   91.41164247
_cell_angle_beta   109.48628028
_cell_angle_gamma   77.61197925
_symmetry_Int_Tables_number   1
_chemical_formula_structural   MgMn(CoO3)2
_chemical_formula_sum   'Mg1 Mn1 Co2 O6'
_cell_volume   114.64493084
_cell_formula_units_Z   1
loop_
 _symmetry_equiv_pos_site_id
 _symmetry_equiv_pos_as_xyz
  1  'x, y, z'
loop_
 _atom_site_type_symbol
 _atom_site_label
 _atom_site_symmetry_multiplicity
 _atom_site_fract_x
 _atom_site_fract_y
 _atom_site_fract_z
 _atom_site_occupancy
  Mg  Mg0  1  0.80127657  0.09845078  0.24101638  1
  Mn  Mn1  1  0.33127588  0.34608542  0.33326396  1
  Co  Co2  1  0.00780769  0.98824063  0.98024865  1
  Co  Co3  1  0.66629840  0.65918207  0.68105613  1
  O  O4  1  0.00994174  0.49622736  0.21374924  1
  O  O5  1  0.35599353  0.84336513  0.54212522  1
  O  O6  1  0.70168576  0.11876273  0.90135514  1
  O  O7  1  0.31422923  0.84471187  0.12312166  1
  O  O8  1  0.63980818  0.21404887  0.44287058  1
  O  O9  1  0.97168302  0.49509215  0.78077503  1
