# generated using pymatgen
data_CsSnCl3
_symmetry_space_group_name_H-M   'P 1'
_cell_length_a   5.79972294
_cell_length_b   7.49022164
_cell_length_c   16.31739822
_cell_angle_alpha   90.00000000
_cell_angle_beta   93.18164942
_cell_angle_gamma   90.00000000
_symmetry_Int_Tables_number   1
_chemical_formula_structural   CsSnCl3
_chemical_formula_sum   'Cs4 Sn4 Cl12'
_cell_volume   707.75490336
_cell_formula_units_Z   4
loop_
 _symmetry_equiv_pos_site_id
 _symmetry_equiv_pos_as_xyz
  1  'x, y, z'
loop_
 _atom_site_type_symbol
 _atom_site_label
 _atom_site_symmetry_multiplicity
 _atom_site_fract_x
 _atom_site_fract_y
 _atom_site_fract_z
 _atom_site_occupancy
  Cs  Cs0  1  0.74805779  0.00153097  0.34659919  1
  Cs  Cs1  1  0.75194221  0.50153097  0.15340081  1
  Cs  Cs2  1  0.25194221  0.99846903  0.65340081  1
  Cs  Cs3  1  0.24805779  0.49846903  0.84659919  1
  Sn  Sn4  1  0.24537847  0.96937426  0.10988818  1
  Sn  Sn5  1  0.25462153  0.46937426  0.39011182  1
  Sn  Sn6  1  0.75462153  0.03062674  0.89011182  1
  Sn  Sn7  1  0.74537847  0.53062574  0.60988818  1
  Cl  Cl8  1  0.69046574  0.97304285  0.12553150  1
  Cl  Cl9  1  0.80953426  0.47304285  0.37446850  1
  Cl  Cl10  1  0.30953426  0.02695715  0.87446850  1
  Cl  Cl11  1  0.19046574  0.52695715  0.62553150  1
  Cl  Cl12  1  0.23823477  0.66512370  0.04416480  1
  Cl  Cl13  1  0.26176523  0.16512370  0.45583520  1
  Cl  Cl14  1  0.76176523  0.33487630  0.95583420  1
  Cl  Cl15  1  0.73823477  0.83487630  0.54416580  1
  Cl  Cl16  1  0.73060415  0.68683995  0.74794387  1
  Cl  Cl17  1  0.76939585  0.18684095  0.75205613  1
  Cl  Cl18  1  0.26939585  0.31315905  0.25205613  1
  Cl  Cl19  1  0.23060415  0.81316005  0.24794387  1
