# generated using pymatgen
data_Na6Ta4In4Si7S5O48
_symmetry_space_group_name_H-M   'P 1'
_cell_length_a   18.00623158
_cell_length_b   8.96287402
_cell_length_c   22.92924594
_cell_angle_alpha   90.02372358
_cell_angle_beta   90.03456970
_cell_angle_gamma   119.85025389
_symmetry_Int_Tables_number   1
_chemical_formula_structural   Na6Ta4In4Si7S5O48
_chemical_formula_sum   'Na18 Ta12 In12 Si21 S15 O144'
_cell_volume   3209.54633962
_cell_formula_units_Z   3
loop_
 _symmetry_equiv_pos_site_id
 _symmetry_equiv_pos_as_xyz
  1  'x, y, z'
loop_
 _atom_site_type_symbol
 _atom_site_label
 _atom_site_symmetry_multiplicity
 _atom_site_fract_x
 _atom_site_fract_y
 _atom_site_fract_z
 _atom_site_occupancy
  Na  Na0  1  0.00065619  0.61694442  0.25285338  1
  Na  Na1  1  0.50021298  0.63824256  0.25957789  1
  Na  Na2  1  -0.00047287  0.36464488  0.75243677  1
  Na  Na3  1  0.50108564  0.38444050  0.74896353  1
  Na  Na4  1  0.33128964  0.97542834  0.57902164  1
  Na  Na5  1  0.83021982  0.68547116  0.08217088  1
  Na  Na6  1  0.00060516  0.97897789  0.50090974  1
  Na  Na7  1  0.50170638  0.00803980  0.49733687  1
  Na  Na8  1  0.99554029  0.99303668  -0.00031071  1
  Na  Na9  1  0.50239234  0.02402485  0.00313089  1
  Na  Na10  1  0.32972309  0.35484605  0.82584293  1
  Na  Na11  1  0.83070865  0.33458757  0.83377695  1
  Na  Na12  1  0.33237015  0.33016913  0.33567917  1
  Na  Na13  1  0.82585314  0.30392247  0.32827852  1
  Na  Na14  1  0.17009771  0.65823941  0.17506324  1
  Na  Na15  1  0.66862535  0.66579313  0.16877894  1
  Na  Na16  1  0.16792367  0.66998086  0.66366540  1
  Na  Na17  1  0.67010514  0.68224800  0.66840168  1
  Ta  Ta18  1  0.99323364  0.00603621  0.35674042  1
  Ta  Ta19  1  0.50175791  0.98461324  0.35815251  1
  Ta  Ta20  1  0.99621486  0.01681611  0.85341522  1
  Ta  Ta21  1  0.49445758  0.98151968  0.85634645  1
  Ta  Ta22  1  0.99904420  0.00223598  0.64337727  1
  Ta  Ta23  1  0.49963593  -0.00104999  0.14630226  1
  Ta  Ta24  1  0.34121647  0.33134881  0.97765052  1
  Ta  Ta25  1  0.83439868  0.35153045  0.98222171  1
  Ta  Ta26  1  0.33493054  0.31618221  0.48234813  1
  Ta  Ta27  1  0.83497142  0.35183896  0.47412777  1
  Ta  Ta28  1  0.16776097  0.66673915  0.02072110  1
  Ta  Ta29  1  0.66615726  0.65280556  0.51704477  1
  In  In30  1  0.50359502  0.99719441  0.64432672  1
  In  In31  1  0.00177075  0.00663273  0.14681791  1
  In  In32  1  0.33346994  0.34234296  0.68667916  1
  In  In33  1  0.82668720  0.32716456  0.68419769  1
  In  In34  1  0.32767186  0.32593790  0.18714370  1
  In  In35  1  0.83346569  0.32565661  0.18796536  1
  In  In36  1  0.66875792  0.64785637  0.01192906  1
  In  In37  1  0.16703312  0.68743224  0.51177341  1
  In  In38  1  0.17009332  0.66477272  0.31486026  1
  In  In39  1  0.66717701  0.68198748  0.32131839  1
  In  In40  1  0.16572960  0.64402938  0.81735522  1
  In  In41  1  0.66937891  0.67364627  0.81425105  1
  Si  Si42  1  0.64625559  -0.00049766  0.25009812  1
  Si  Si43  1  0.35452002  0.70925746  0.24928469  1
  Si  Si44  1  0.00248872  0.29681597  0.24782984  1
  Si  Si45  1  0.14605400  0.28751901  0.74893439  1
  Si  Si46  1  0.50220172  0.70776888  0.74766415  1
  Si  Si47  1  0.85190829  0.00050110  0.74677062  1
  Si  Si48  1  0.48302084  0.33653683  0.58828923  1
  Si  Si49  1  0.18806821  0.04143126  0.58657064  1
  Si  Si50  1  0.83108277  0.62174947  0.58578997  1
  Si  Si51  1  0.98210313  0.63089575  0.08729791  1
  Si  Si52  1  0.33263077  0.04164538  0.08586580  1
  Si  Si53  1  0.68747875  0.33287442  0.08640773  1
  Si  Si54  1  0.31095062  0.66111032  0.91828080  1
  Si  Si55  1  0.81601615  0.67230907  0.91575855  1
  Si  Si56  1  0.01820463  0.37824465  0.91689237  1
  Si  Si57  1  0.52248224  0.37218448  0.91199700  1
  Si  Si58  1  0.31405162  0.95594161  0.41567139  1
  Si  Si59  1  0.81012240  0.96121660  0.41899145  1
  Si  Si60  1  0.66479372  0.37566821  0.41235304  1
  Si  Si61  1  0.02175533  0.67060829  0.41182747  1
  Si  Si62  1  0.51780781  0.65634853  0.41763273  1
  S  S63  1  0.14397726  0.00304893  0.25154098  1
  S  S64  1  0.85333445  0.71379875  0.25114584  1
  S  S65  1  0.50110546  0.28424156  0.24951975  1
  S  S66  1  0.64369384  0.28349199  0.75208024  1
  S  S67  1  0.00214507  0.72056880  0.75022810  1
  S  S68  1  0.35299618  0.99264611  0.75239773  1
  S  S69  1  0.98097442  0.33529241  0.58353092  1
  S  S70  1  0.68925698  0.03950178  0.57986749  1
  S  S71  1  0.32968778  0.62296809  0.58064666  1
  S  S72  1  0.48008810  0.62637963  0.08272695  1
  S  S73  1  0.83009326  0.03737345  0.08033007  1
  S  S74  1  0.18881829  0.33541449  0.07990079  1
  S  S75  1  0.16757396  0.95933833  0.91762108  1
  S  S76  1  0.66723984  0.96709679  0.91780940  1
  S  S77  1  0.16720882  0.36656828  0.41786707  1
  O  O78  1  0.09575474  0.01423548  0.30243730  1
  O  O79  1  0.59274418  0.01087593  0.30696489  1
  O  O80  1  0.41811026  0.80735534  0.30539470  1
  O  O81  1  0.90997613  0.81480621  0.30229489  1
  O  O82  1  0.49228116  0.18096279  0.30101441  1
  O  O83  1  0.99552447  0.17319017  0.30583437  1
  O  O84  1  0.09307695  0.17021641  0.80741997  1
  O  O85  1  0.59550896  0.17604547  0.80348047  1
  O  O86  1  0.49515332  0.81624550  0.80668482  1
  O  O87  1  0.99303736  0.80726111  0.80261678  1
  O  O88  1  0.40926913  0.00391011  0.80386611  1
  O  O89  1  0.91552980  0.02973295  0.80578126  1
  O  O90  1  0.38972847  0.97201262  0.69781066  1
  O  O91  1  0.90720914  0.98682511  0.69168735  1
  O  O92  1  0.08147818  0.17994297  0.69362175  1
  O  O93  1  0.59592459  0.20977951  0.69753975  1
  O  O94  1  0.00767539  0.81787583  0.69619339  1
  O  O95  1  0.51326800  0.82124533  0.69066648  1
  O  O96  1  0.40647934  0.82794535  0.19079970  1
  O  O97  1  0.89201784  0.80554859  0.19584997  1
  O  O98  1  0.01484812  0.21064158  0.18934630  1
  O  O99  1  0.50608102  0.19489307  0.19461510  1
  O  O100  1  0.09741432  0.98334859  0.19624373  1
  O  O101  1  0.58185410  0.98075082  0.19310285  1
  O  O102  1  0.44667186  0.36520009  0.64864648  1
  O  O103  1  0.94515435  0.35794162  0.63887153  1
  O  O104  1  0.25138267  0.12523732  0.64111902  1
  O  O105  1  0.73422350  0.10336221  0.63627963  1
  O  O106  1  0.32188105  0.53471329  0.63572280  1
  O  O107  1  0.81309111  0.51052734  0.64448070  1
  O  O108  1  0.44232722  0.52655649  0.13614037  1
  O  O109  1  0.94830697  0.52700922  0.14700327  1
  O  O110  1  0.31174849  0.11878945  0.14236249  1
  O  O111  1  0.82278923  0.11152588  0.13498414  1
  O  O112  1  0.23519227  0.36560462  0.13486354  1
  O  O113  1  0.75327273  0.37879653  0.13954576  1
  O  O114  1  0.23720648  0.32208695  0.02985567  1
  O  O115  1  0.73534297  0.30822131  0.02702431  1
  O  O116  1  0.42361196  0.53444881  0.03066128  1
  O  O117  1  0.91482641  0.52415908  0.03165869  1
  O  O118  1  0.34421971  0.16798422  0.02887779  1
  O  O119  1  0.83944411  0.14727261  0.02899933  1
  O  O120  1  0.23478969  0.16201197  0.52785595  1
  O  O121  1  0.73879795  0.15485860  0.53144412  1
  O  O122  1  0.33889684  0.53091362  0.52975572  1
  O  O123  1  0.84566963  0.52232295  0.52999561  1
  O  O124  1  0.41463888  0.30608821  0.53296213  1
  O  O125  1  0.92538321  0.31160671  0.53297380  1
  O  O126  1  0.26426425  0.69789748  0.97306431  1
  O  O127  1  0.78873291  0.72064800  0.97728238  1
  O  O128  1  0.08604850  0.48419264  0.96986115  1
  O  O129  1  0.57177905  0.44106313  0.97251039  1
  O  O130  1  0.15596368  0.85108110  0.96979119  1
  O  O131  1  0.64847948  0.85921343  0.96979760  1
  O  O132  1  0.28633492  0.85504957  0.47761233  1
  O  O133  1  0.76432754  0.82992965  0.47324738  1
  O  O134  1  0.14841298  0.43705527  0.46988997  1
  O  O135  1  0.65210015  0.46594018  0.47154767  1
  O  O136  1  0.07270060  0.70767683  0.47213833  1
  O  O137  1  0.58436176  0.68778318  0.47100338  1
  O  O138  1  0.05463970  0.62532976  0.35345945  1
  O  O139  1  0.54500689  0.61295700  0.35555698  1
  O  O140  1  0.25133454  0.87982869  0.36135556  1
  O  O141  1  0.76084960  0.90559810  0.35842427  1
  O  O142  1  0.18246441  0.46628990  0.36482627  1
  O  O143  1  0.68877269  0.49427201  0.35622747  1
  O  O144  1  0.04712544  0.48169412  0.85570811  1
  O  O145  1  0.55388584  0.48352988  0.85384427  1
  O  O146  1  0.18591007  0.89247644  0.86502541  1
  O  O147  1  0.68234821  0.89730728  0.86475204  1
  O  O148  1  0.26000697  0.62410382  0.85863469  1
  O  O149  1  0.75435231  0.63001512  0.86117525  1
  O  O150  1  0.00696964  0.83769741  0.40129888  1
  O  O151  1  0.51044432  0.83364450  0.41302489  1
  O  O152  1  0.41107082  0.99052430  0.40282515  1
  O  O153  1  0.90884957  0.98522918  0.41019736  1
  O  O154  1  0.08971912  0.18698891  0.40948429  1
  O  O155  1  0.58075568  0.18483783  0.40676382  1
  O  O156  1  0.01297512  0.18679268  0.91112682  1
  O  O157  1  0.50619815  0.17531466  0.90256797  1
  O  O158  1  0.09041869  0.97706678  0.91261377  1
  O  O159  1  0.59010451  0.99256497  0.90956673  1
  O  O160  1  0.40938354  0.83043454  0.91053822  1
  O  O161  1  0.91572089  0.83102016  0.90342720  1
  O  O162  1  0.48414956  0.15308822  0.58629783  1
  O  O163  1  0.98497218  0.16906774  0.58734150  1
  O  O164  1  0.09226234  0.02536648  0.59283956  1
  O  O165  1  0.60416220  0.02822807  0.57996504  1
  O  O166  1  0.40691471  0.79995276  0.58062115  1
  O  O167  1  0.91909715  0.81297859  0.59234775  1
  O  O168  1  0.48208450  0.79617060  0.08532787  1
  O  O169  1  0.98480139  0.81757557  0.08557204  1
  O  O170  1  0.41891230  0.02411968  0.09074575  1
  O  O171  1  0.90728393  0.01449325  0.08010163  1
  O  O172  1  0.10323901  0.18145445  0.07967364  1
  O  O173  1  0.59220789  0.15744091  0.09187752  1
  O  O174  1  0.35319965  0.15723250  0.75470530  1
  O  O175  1  0.85391806  0.18659248  0.74505904  1
  O  O176  1  0.23776633  0.30168110  0.74888348  1
  O  O177  1  0.72863020  0.29328102  0.75248755  1
  O  O178  1  0.41573515  0.51971340  0.75092701  1
  O  O179  1  0.92629128  0.54429273  0.74795794  1
  O  O180  1  0.35502619  0.52452081  0.24500368  1
  O  O181  1  0.85325862  0.54897278  0.25343428  1
  O  O182  1  0.42410047  0.30547712  0.24611764  1
  O  O183  1  0.91603254  0.31227751  0.25089350  1
  O  O184  1  0.22897881  0.16343502  0.25211958  1
  O  O185  1  0.73723078  0.17123508  0.24789732  1
  O  O186  1  0.32462200  0.49685223  0.93350879  1
  O  O187  1  0.82632728  0.49705734  0.92569180  1
  O  O188  1  0.42209791  0.34183497  0.92555100  1
  O  O189  1  0.92102596  0.33698834  0.93235260  1
  O  O190  1  0.24338857  0.13728299  0.92870334  1
  O  O191  1  0.74312035  0.14178173  0.92591279  1
  O  O192  1  0.32570247  0.15341297  0.42643883  1
  O  O193  1  0.82899671  0.15457515  0.43556097  1
  O  O194  1  0.24281536  0.34313219  0.42621355  1
  O  O195  1  0.74685151  0.34562634  0.42862544  1
  O  O196  1  0.42023751  0.50083257  0.43312778  1
  O  O197  1  0.92297427  0.50429178  0.42475982  1
  O  O198  1  0.17868581  0.49257770  0.07252915  1
  O  O199  1  0.67911104  0.50622067  0.08088601  1
  O  O200  1  0.07612833  0.65310645  0.06909276  1
  O  O201  1  0.56626103  0.65416832  0.07469985  1
  O  O202  1  0.24919704  0.85147523  0.07085159  1
  O  O203  1  0.75228875  0.86450198  0.07538015  1
  O  O204  1  0.17902497  0.85105228  0.58136967  1
  O  O205  1  0.67854761  0.86512938  0.57281624  1
  O  O206  1  0.25209825  0.64073664  0.57577570  1
  O  O207  1  0.74950607  0.65044637  0.57348307  1
  O  O208  1  0.06844113  0.47891122  0.57693237  1
  O  O209  1  0.57616653  0.50427768  0.57358509  1
  O  O210  1  0.15249631  0.84854363  0.25435668  1
  O  O211  1  0.64452140  0.81443577  0.24978512  1
  O  O212  1  0.26230022  0.69288460  0.25100529  1
  O  O213  1  0.76835084  0.69492085  0.25533007  1
  O  O214  1  0.08566567  0.48796902  0.25220233  1
  O  O215  1  0.57844071  0.45543919  0.24921038  1
  O  O216  1  0.14355665  0.46902549  0.74858704  1
  O  O217  1  0.65227603  0.45522931  0.75563723  1
  O  O218  1  0.08092042  0.70702726  0.75287355  1
  O  O219  1  0.58548469  0.68330309  0.75212282  1
  O  O220  1  0.26622917  0.84399841  0.75887988  1
  O  O221  1  0.76148207  0.83086782  0.75104285  1
