# generated using pymatgen
data_NaCaGa(SO4)3
_symmetry_space_group_name_H-M   'P 1'
_cell_length_a   8.86878761
_cell_length_b   8.86878731
_cell_length_c   22.86010913
_cell_angle_alpha   90.00000000
_cell_angle_beta   90.00000000
_cell_angle_gamma   120.00000107
_symmetry_Int_Tables_number   1
_chemical_formula_structural   NaCaGa(SO4)3
_chemical_formula_sum   'Na6 Ca6 Ga6 S18 O72'
_cell_volume   1557.17499333
_cell_formula_units_Z   6
loop_
 _symmetry_equiv_pos_site_id
 _symmetry_equiv_pos_as_xyz
  1  'x, y, z'
loop_
 _atom_site_type_symbol
 _atom_site_label
 _atom_site_symmetry_multiplicity
 _atom_site_fract_x
 _atom_site_fract_y
 _atom_site_fract_z
 _atom_site_occupancy
  Na  Na0  1  -0.00000000  0.00000000  0.50189959  1
  Na  Na1  1  -0.00000000  0.00000000  0.00189959  1
  Na  Na2  1  0.66666700  0.33333300  0.83523259  1
  Na  Na3  1  0.66666700  0.33333300  0.33523259  1
  Na  Na4  1  0.33333300  0.66666700  0.16856659  1
  Na  Na5  1  0.33333300  0.66666700  0.66856659  1
  Ca  Ca6  1  -0.00000000  0.00000000  0.35434682  1
  Ca  Ca7  1  -0.00000000  0.00000000  0.85434682  1
  Ca  Ca8  1  0.66666700  0.33333300  0.68767982  1
  Ca  Ca9  1  0.66666700  0.33333300  0.18767982  1
  Ca  Ca10  1  0.33333300  0.66666700  0.02101382  1
  Ca  Ca11  1  0.33333300  0.66666700  0.52101382  1
  Ga  Ga12  1  -0.00000000  0.00000000  0.65093193  1
  Ga  Ga13  1  -0.00000000  0.00000000  0.15093193  1
  Ga  Ga14  1  0.66666700  0.33333300  0.98426493  1
  Ga  Ga15  1  0.66666700  0.33333300  0.48426493  1
  Ga  Ga16  1  0.33333300  0.66666700  0.31759893  1
  Ga  Ga17  1  0.33333300  0.66666700  0.81759893  1
  S  S18  1  0.28503991  0.97830077  0.25013909  1
  S  S19  1  0.69326086  0.71496009  0.25013909  1
  S  S20  1  0.02169923  0.30673914  0.25013909  1
  S  S21  1  0.28503991  0.30673914  0.75013909  1
  S  S22  1  0.02169923  0.71496009  0.75013909  1
  S  S23  1  0.69326086  0.97830077  0.75013909  1
  S  S24  1  0.95170691  0.31163377  0.58347209  1
  S  S25  1  0.35992786  0.04829309  0.58347209  1
  S  S26  1  0.68836623  0.64007214  0.58347209  1
  S  S27  1  0.95170691  0.64007214  0.08347209  1
  S  S28  1  0.68836623  0.04829309  0.08347209  1
  S  S29  1  0.35992786  0.31163377  0.08347209  1
  S  S30  1  0.61837291  0.64496777  0.91680609  1
  S  S31  1  0.02659386  0.38162709  0.91680609  1
  S  S32  1  0.35503223  0.97340614  0.91680609  1
  S  S33  1  0.61837291  0.97340614  0.41680609  1
  S  S34  1  0.35503223  0.38162709  0.41680609  1
  S  S35  1  0.02659386  0.64496777  0.41680609  1
  O  O36  1  0.20612257  0.00097736  0.30212807  1
  O  O37  1  0.79485479  0.79387743  0.30212807  1
  O  O38  1  0.99902264  0.20514521  0.30212807  1
  O  O39  1  0.20612257  0.20514521  0.80212807  1
  O  O40  1  0.99902264  0.79387743  0.80212807  1
  O  O41  1  0.79485479  0.00097736  0.80212807  1
  O  O42  1  0.77878940  0.95718694  0.69566612  1
  O  O43  1  0.17839754  0.22121060  0.69566612  1
  O  O44  1  0.04281306  0.82160246  0.69566612  1
  O  O45  1  0.77878940  0.82160246  0.19566612  1
  O  O46  1  0.04281306  0.22121060  0.19566612  1
  O  O47  1  0.17839754  0.95718694  0.19566612  1
  O  O48  1  0.87278957  0.33431036  0.63546107  1
  O  O49  1  0.46152179  0.12721043  0.63546107  1
  O  O50  1  0.66568964  0.53847821  0.63546107  1
  O  O51  1  0.87278957  0.53847821  0.13546107  1
  O  O52  1  0.66568964  0.12721043  0.13546107  1
  O  O53  1  0.46152179  0.33431036  0.13546107  1
  O  O54  1  0.44545640  0.29051994  0.02899912  1
  O  O55  1  0.84506454  0.55454360  0.02899912  1
  O  O56  1  0.70948006  0.15493546  0.02899912  1
  O  O57  1  0.44545640  0.15493546  0.52899912  1
  O  O58  1  0.70948006  0.55454360  0.52899912  1
  O  O59  1  0.84506454  0.29051994  0.52899912  1
  O  O60  1  0.53945557  0.66764436  0.96879507  1
  O  O61  1  0.12818779  0.46054443  0.96879507  1
  O  O62  1  0.33235564  0.87181221  0.96879507  1
  O  O63  1  0.53945557  0.87181221  0.46879507  1
  O  O64  1  0.33235564  0.46054443  0.46879507  1
  O  O65  1  0.12818779  0.66764436  0.46879507  1
  O  O66  1  0.11212240  0.62385394  0.36233312  1
  O  O67  1  0.51173054  0.88787760  0.36233312  1
  O  O68  1  0.37614606  0.48826946  0.36233312  1
  O  O69  1  0.11212240  0.48826946  0.86233312  1
  O  O70  1  0.37614606  0.88787760  0.86233312  1
  O  O71  1  0.51173054  0.62385394  0.86233312  1
  O  O72  1  0.99694753  0.79342533  0.41183894  1
  O  O73  1  0.79647780  0.00305247  0.41183894  1
  O  O74  1  0.20657467  0.20352220  0.41183894  1
  O  O75  1  0.99694753  0.20352220  0.91183894  1
  O  O76  1  0.20657467  0.00305247  0.91183894  1
  O  O77  1  0.79647780  0.79342533  0.91183894  1
  O  O78  1  0.96102589  0.14591623  0.58783500  1
  O  O79  1  0.18489034  0.03897411  0.58783500  1
  O  O80  1  0.85408377  0.81510966  0.58783500  1
  O  O81  1  0.96102589  0.81510966  0.08783500  1
  O  O82  1  0.85408377  0.03897411  0.08783500  1
  O  O83  1  0.18489034  0.14591623  0.08783500  1
  O  O84  1  0.66361453  0.12675833  0.74517194  1
  O  O85  1  0.46314480  0.33638547  0.74517194  1
  O  O86  1  0.87324167  0.53685520  0.74517194  1
  O  O87  1  0.66361453  0.53685520  0.24517194  1
  O  O88  1  0.87324167  0.33638547  0.24517194  1
  O  O89  1  0.46314480  0.12675833  0.24517194  1
  O  O90  1  0.62769289  0.47924923  0.92116800  1
  O  O91  1  0.85155734  0.37230711  0.92116800  1
  O  O92  1  0.52075077  0.14844266  0.92116800  1
  O  O93  1  0.62769289  0.14844266  0.42116800  1
  O  O94  1  0.52075077  0.37230711  0.42116800  1
  O  O95  1  0.85155734  0.47924923  0.42116800  1
  O  O96  1  0.33028053  0.46009233  0.07850594  1
  O  O97  1  0.12981080  0.66971947  0.07850594  1
  O  O98  1  0.53990767  0.87018920  0.07850594  1
  O  O99  1  0.33028053  0.87018920  0.57850594  1
  O  O100  1  0.53990767  0.66971947  0.57850594  1
  O  O101  1  0.12981080  0.46009233  0.57850594  1
  O  O102  1  0.29435889  0.81258323  0.25450200  1
  O  O103  1  0.51822334  0.70564111  0.25450200  1
  O  O104  1  0.18741677  0.48177666  0.25450200  1
  O  O105  1  0.29435889  0.48177666  0.75450200  1
  O  O106  1  0.18741677  0.70564111  0.75450200  1
  O  O107  1  0.51822334  0.81258323  0.75450200  1
