# generated using pymatgen
data_MgV4(PbO6)2
_symmetry_space_group_name_H-M   'P 1'
_cell_length_a   3.56582500
_cell_length_b   8.83295756
_cell_length_c   9.89691097
_cell_angle_alpha   105.00857342
_cell_angle_beta   90.00000000
_cell_angle_gamma   101.64503385
_symmetry_Int_Tables_number   1
_chemical_formula_structural   MgV4(PbO6)2
_chemical_formula_sum   'Mg1 V4 Pb2 O12'
_cell_volume   294.43932022
_cell_formula_units_Z   1
loop_
 _symmetry_equiv_pos_site_id
 _symmetry_equiv_pos_as_xyz
  1  'x, y, z'
loop_
 _atom_site_type_symbol
 _atom_site_label
 _atom_site_symmetry_multiplicity
 _atom_site_fract_x
 _atom_site_fract_y
 _atom_site_fract_z
 _atom_site_occupancy
  Mg  Mg0  1  0.00000000  0.00000000  0.00000000  1
  V  V1  1  0.59671300  0.19342600  0.84625700  1
  V  V2  1  0.40328700  0.80657400  0.15374300  1
  V  V3  1  0.83616300  0.67232500  0.35296700  1
  V  V4  1  0.16383700  0.32767500  0.64703200  1
  Pb  Pb5  1  0.85563700  0.71127300  0.74342400  1
  Pb  Pb6  1  0.14436300  0.28872700  0.25657600  1
  O  O7  1  0.67103900  0.34207700  0.71360600  1
  O  O8  1  0.32896100  0.65792300  0.28639600  1
  O  O9  1  0.91181400  0.82362900  0.23369400  1
  O  O10  1  0.08818600  0.17637100  0.76630600  1
  O  O11  1  0.64780400  0.29560700  0.01741300  1
  O  O12  1  0.35219600  0.70439300  0.98258700  1
  O  O13  1  0.11107400  0.22214800  0.47964500  1
  O  O14  1  0.88892600  0.77785200  0.52035600  1
  O  O15  1  0.48902200  0.97804300  0.86198700  1
  O  O16  1  0.73340700  0.46681300  0.35172500  1
  O  O17  1  0.26659300  0.53318600  0.64827500  1
  O  O18  1  0.51097800  0.02195700  0.13801200  1
