# generated using pymatgen
data_MgV2P2(HO5)2
_symmetry_space_group_name_H-M   'P 1'
_cell_length_a   5.45880131
_cell_length_b   7.55489554
_cell_length_c   5.20415007
_cell_angle_alpha   110.92485657
_cell_angle_beta   92.68384151
_cell_angle_gamma   110.18625932
_symmetry_Int_Tables_number   1
_chemical_formula_structural   MgV2P2(HO5)2
_chemical_formula_sum   'Mg1 V2 P2 H2 O10'
_cell_volume   184.58038369
_cell_formula_units_Z   1
loop_
 _symmetry_equiv_pos_site_id
 _symmetry_equiv_pos_as_xyz
  1  'x, y, z'
loop_
 _atom_site_type_symbol
 _atom_site_label
 _atom_site_symmetry_multiplicity
 _atom_site_fract_x
 _atom_site_fract_y
 _atom_site_fract_z
 _atom_site_occupancy
  Mg  Mg0  1  0.50525400  0.00235500  0.99644300  1
  V  V1  1  0.00542900  0.50215000  0.99614100  1
  V  V2  1  0.00492900  0.00175100  0.99639700  1
  P  P3  1  0.35975100  0.25540400  0.63783800  1
  P  P4  1  0.65039400  0.74878000  0.35520700  1
  H  H5  1  0.94668200  0.31055100  0.32256600  1
  H  H6  1  0.06452000  0.69381500  0.66900400  1
  O  O7  1  0.12521800  0.75650200  0.87483100  1
  O  O8  1  0.16187700  0.36349300  0.67478400  1
  O  O9  1  0.35741900  0.60540700  0.25714400  1
  O  O10  1  0.31399500  0.12035300  0.31734100  1
  O  O11  1  0.29294100  0.10680800  0.79451400  1
  O  O12  1  0.71622500  0.89713000  0.19811800  1
  O  O13  1  0.69612500  0.88389500  0.67565400  1
  O  O14  1  0.65269200  0.39864500  0.73671900  1
  O  O15  1  0.84893800  0.64126900  0.31785300  1
  O  O16  1  0.88511100  0.24740900  0.11694600  1
