# generated using pymatgen
data_MgAl4Cr2O10
_symmetry_space_group_name_H-M   'P 1'
_cell_length_a   4.97156526
_cell_length_b   5.50500606
_cell_length_c   7.32755798
_cell_angle_alpha   69.47798215
_cell_angle_beta   89.23616797
_cell_angle_gamma   62.49827231
_symmetry_Int_Tables_number   1
_chemical_formula_structural   MgAl4Cr2O10
_chemical_formula_sum   'Mg1 Al4 Cr2 O10'
_cell_volume   163.90790625
_cell_formula_units_Z   1
loop_
 _symmetry_equiv_pos_site_id
 _symmetry_equiv_pos_as_xyz
  1  'x, y, z'
loop_
 _atom_site_type_symbol
 _atom_site_label
 _atom_site_symmetry_multiplicity
 _atom_site_fract_x
 _atom_site_fract_y
 _atom_site_fract_z
 _atom_site_occupancy
  Mg  Mg0  1  0.78183700  0.40678900  0.07390300  1
  Al  Al1  1  0.61455200  0.75849500  0.68558900  1
  Al  Al2  1  0.35997100  0.26397400  0.77656200  1
  Al  Al3  1  0.57992000  0.80479400  0.21666700  1
  Al  Al4  1  0.34996000  0.28307600  0.31628100  1
  Cr  Cr5  1  0.98385600  0.00931400  0.49779700  1
  Cr  Cr6  1  0.00944400  0.96690400  0.97003200  1
  O  O7  1  0.01479500  0.62010000  0.65032100  1
  O  O8  1  0.71720600  0.82668800  0.93891100  1
  O  O9  1  0.40658600  0.87151400  0.43071100  1
  O  O10  1  0.63506000  0.39000200  0.82741100  1
  O  O11  1  0.36802600  0.61105900  0.16261600  1
  O  O12  1  0.20335200  0.99479300  0.73438500  1
  O  O13  1  0.55601200  0.17407100  0.55984000  1
  O  O14  1  0.22930200  0.17013800  0.03271400  1
  O  O15  1  0.94010100  0.42063500  0.31955900  1
  O  O16  1  0.76341100  0.03331300  0.23768800  1
