# generated using pymatgen
data_Na5In2Ga2P5SO24
_symmetry_space_group_name_H-M   'P 1'
_cell_length_a   8.88212134
_cell_length_b   8.86568126
_cell_length_c   22.41090749
_cell_angle_alpha   90.40560806
_cell_angle_beta   89.76731856
_cell_angle_gamma   119.95380563
_symmetry_Int_Tables_number   1
_chemical_formula_structural   Na5In2Ga2P5SO24
_chemical_formula_sum   'Na15 In6 Ga6 P15 S3 O72'
_cell_volume   1529.00848824
_cell_formula_units_Z   3
loop_
 _symmetry_equiv_pos_site_id
 _symmetry_equiv_pos_as_xyz
  1  'x, y, z'
loop_
 _atom_site_type_symbol
 _atom_site_label
 _atom_site_symmetry_multiplicity
 _atom_site_fract_x
 _atom_site_fract_y
 _atom_site_fract_z
 _atom_site_occupancy
  Na  Na0  1  0.63762722  0.00063040  0.25030508  1
  Na  Na1  1  0.99824119  0.36114445  0.74967238  1
  Na  Na2  1  0.36295850  -0.00046361  0.75057522  1
  Na  Na3  1  0.03322606  0.70007570  0.58125598  1
  Na  Na4  1  0.66485323  0.96643399  0.58277821  1
  Na  Na5  1  0.30304540  0.97354074  0.08353804  1
  Na  Na6  1  0.02949523  0.33280261  0.08471684  1
  Na  Na7  1  0.97244226  0.66527511  0.91736095  1
  Na  Na8  1  0.70074845  0.66956435  0.41699993  1
  Na  Na9  1  0.01774172  0.01665827  0.49649139  1
  Na  Na10  1  0.99661709  0.00653861  0.00188431  1
  Na  Na11  1  0.65555021  0.32559796  0.83447974  1
  Na  Na12  1  0.67911379  0.33844616  0.33273051  1
  Na  Na13  1  0.33644548  0.65102269  0.16886026  1
  Na  Na14  1  0.34445277  0.65342754  0.66576424  1
  In  In15  1  0.00507952  0.01054260  0.85337390  1
  In  In16  1  0.00408525  0.00390971  0.64743904  1
  In  In17  1  0.66590898  0.34053886  0.68193162  1
  In  In18  1  0.66274628  0.32544872  0.98724385  1
  In  In19  1  0.32998644  0.66616041  0.51150777  1
  In  In20  1  0.33795891  0.66806509  0.81779937  1
  Ga  Ga21  1  0.98612944  0.99188730  0.34735377  1
  Ga  Ga22  1  0.98860377  0.99759069  0.15201564  1
  Ga  Ga23  1  0.67733780  0.35227320  0.18278110  1
  Ga  Ga24  1  0.67474842  0.32636801  0.48114742  1
  Ga  Ga25  1  0.33248902  0.66607054  0.02071848  1
  Ga  Ga26  1  0.32298585  0.65839181  0.31601786  1
  P  P27  1  0.70378326  0.70269805  0.25078473  1
  P  P28  1  0.00220866  0.29361586  0.24979667  1
  P  P29  1  0.29959187  0.29905982  0.75039735  1
  P  P30  1  0.99776678  0.70176416  0.75144562  1
  P  P31  1  0.70191537  0.99859764  0.74833559  1
  P  P32  1  0.96216684  0.33426033  0.58147127  1
  P  P33  1  0.37653399  0.04485772  0.58000387  1
  P  P34  1  0.66329087  0.62325206  0.57778675  1
  P  P35  1  0.96343169  0.63524786  0.08441491  1
  P  P36  1  0.66662904  0.03404192  0.08776046  1
  P  P37  1  0.37065530  0.33400042  0.08721411  1
  P  P38  1  0.04059414  0.37388494  0.92067996  1
  P  P39  1  0.33512651  0.96146602  0.91976865  1
  P  P40  1  0.63106963  0.96696142  0.41267355  1
  P  P41  1  0.03472544  0.66905643  0.41387080  1
  S  S42  1  0.28961547  0.00014528  0.25012827  1
  S  S43  1  0.62610260  0.66617384  0.92040357  1
  S  S44  1  0.32941055  0.36348285  0.41287835  1
  O  O45  1  0.20369617  0.02348779  0.30281449  1
  O  O46  1  0.81227971  0.77985656  0.30851841  1
  O  O47  1  0.96552106  0.16836822  0.30284004  1
  O  O48  1  0.22088409  0.18557940  0.80588321  1
  O  O49  1  0.97687280  0.78493190  0.80902365  1
  O  O50  1  0.81830096  0.02954840  0.80263712  1
  O  O51  1  0.77736854  0.97512614  0.68918141  1
  O  O52  1  0.18532460  0.22062151  0.69468219  1
  O  O53  1  0.02619430  0.81012254  0.69445928  1
  O  O54  1  0.79132659  0.82883429  0.19786239  1
  O  O55  1  0.03245133  0.21475858  0.19177358  1
  O  O56  1  0.18829577  0.97504814  0.19469696  1
  O  O57  1  0.89225769  0.36510379  0.64102391  1
  O  O58  1  0.47441901  0.11202779  0.63986777  1
  O  O59  1  0.63943881  0.52571742  0.63587660  1
  O  O60  1  0.87580145  0.50399947  0.13579379  1
  O  O61  1  0.62821470  0.11960954  0.14263286  1
  O  O62  1  0.49077354  0.36423891  0.14075883  1
  O  O63  1  0.43798018  0.28794435  0.03049488  1
  O  O64  1  0.86161880  0.56829168  0.02564837  1
  O  O65  1  0.71483557  0.15178419  0.03261694  1
  O  O66  1  0.47311903  0.16065440  0.52672805  1
  O  O67  1  0.68838787  0.53360408  0.52181954  1
  O  O68  1  0.84099860  0.30712203  0.52849298  1
  O  O69  1  0.53638731  0.68461666  0.97301951  1
  O  O70  1  0.15368342  0.46842359  0.97620312  1
  O  O71  1  0.31479994  0.84507558  0.97456220  1
  O  O72  1  0.56193989  0.85311307  0.46963616  1
  O  O73  1  0.29536620  0.43157468  0.46871846  1
  O  O74  1  0.13250726  0.70084454  0.47369084  1
  O  O75  1  0.12982552  0.63734516  0.36190698  1
  O  O76  1  0.51295301  0.87298434  0.35794125  1
  O  O77  1  0.36459191  0.48594954  0.36251810  1
  O  O78  1  0.11689857  0.47472089  0.86192748  1
  O  O79  1  0.35579375  0.88553414  0.86014216  1
  O  O80  1  0.53345141  0.64424239  0.86411051  1
  O  O81  1  0.01288189  0.83237987  0.40536268  1
  O  O82  1  0.81436302  0.98344889  0.40576031  1
  O  O83  1  0.17661133  0.18924262  0.40378932  1
  O  O84  1  0.01897355  0.19079461  0.91970130  1
  O  O85  1  0.16014507  0.96313497  0.91916486  1
  O  O86  1  0.80209840  0.82383633  0.91873525  1
  O  O87  1  0.97092964  0.16491017  0.58275559  1
  O  O88  1  0.19067159  0.01792838  0.58168658  1
  O  O89  1  0.83329145  0.80550399  0.58051649  1
  O  O90  1  0.99325265  0.82099852  0.09558061  1
  O  O91  1  0.83046265  0.01583420  0.09521997  1
  O  O92  1  0.18488422  0.16950405  0.09494606  1
  O  O93  1  0.68399585  0.16448646  0.74668681  1
  O  O94  1  0.47802260  0.31165511  0.74627193  1
  O  O95  1  0.84047994  0.51642157  0.74869807  1
  O  O96  1  0.68581517  0.52072166  0.24223547  1
  O  O97  1  0.83142940  0.30490665  0.24338646  1
  O  O98  1  0.46738595  0.15495070  0.24623646  1
  O  O99  1  0.65008928  0.51239549  0.92373166  1
  O  O100  1  0.86226347  0.36663984  0.92379980  1
  O  O101  1  0.49340989  0.14496737  0.92277807  1
  O  O102  1  0.64599483  0.14760907  0.42017087  1
  O  O103  1  0.49166809  0.35449256  0.41843246  1
  O  O104  1  0.84718372  0.50607099  0.41910964  1
  O  O105  1  0.34600316  0.49552682  0.07960080  1
  O  O106  1  0.14794964  0.65127075  0.07922239  1
  O  O107  1  0.49791194  0.85521869  0.07865604  1
  O  O108  1  0.35784911  0.86035812  0.57583672  1
  O  O109  1  0.50768276  0.65484035  0.57411059  1
  O  O110  1  0.14153535  0.49967788  0.57571311  1
  O  O111  1  0.31152023  0.84310825  0.25506615  1
  O  O112  1  0.52196593  0.69194508  0.25745856  1
  O  O113  1  0.16542037  0.47658516  0.25820327  1
  O  O114  1  0.31288720  0.47865038  0.75502475  1
  O  O115  1  0.16448298  0.68544687  0.75320061  1
  O  O116  1  0.51732601  0.83988935  0.75275487  1
