# generated using pymatgen
data_La4Mg(MoO6)2
_symmetry_space_group_name_H-M   'P 1'
_cell_length_a   5.64825642
_cell_length_b   5.93212612
_cell_length_c   8.02016812
_cell_angle_alpha   88.89142471
_cell_angle_beta   92.23505318
_cell_angle_gamma   89.13409609
_symmetry_Int_Tables_number   1
_chemical_formula_structural   La4Mg(MoO6)2
_chemical_formula_sum   'La4 Mg1 Mo2 O12'
_cell_volume   268.43655751
_cell_formula_units_Z   1
loop_
 _symmetry_equiv_pos_site_id
 _symmetry_equiv_pos_as_xyz
  1  'x, y, z'
loop_
 _atom_site_type_symbol
 _atom_site_label
 _atom_site_symmetry_multiplicity
 _atom_site_fract_x
 _atom_site_fract_y
 _atom_site_fract_z
 _atom_site_occupancy
  La  La0  1  0.50875100  0.07052000  0.73491400  1
  La  La1  1  0.95998200  0.56467000  0.74222000  1
  La  La2  1  0.49125700  0.92947900  0.26509100  1
  La  La3  1  0.04001500  0.43532300  0.25778000  1
  Mg  Mg4  1  0.99999900  0.00000500  0.99999700  1
  Mo  Mo5  1  0.49999600  0.50000100  0.99999500  1
  Mo  Mo6  1  0.99999700  0.00000300  0.50000000  1
  O  O7  1  0.89986900  0.03723500  0.24980700  1
  O  O8  1  0.83886000  0.27838400  0.54866500  1
  O  O9  1  0.78485100  0.29770800  0.93819100  1
  O  O10  1  0.70305300  0.83090100  0.54880800  1
  O  O11  1  0.69488700  0.78387600  0.93298300  1
  O  O12  1  0.62318600  0.53189200  0.22283500  1
  O  O13  1  0.10012700  0.96276600  0.75019100  1
  O  O14  1  0.16113800  0.72161300  0.45133700  1
  O  O15  1  0.21515100  0.70229600  0.06180800  1
  O  O16  1  0.37681700  0.46810200  0.77717200  1
  O  O17  1  0.30511200  0.21612400  0.06701800  1
  O  O18  1  0.29694700  0.16909800  0.45119000  1
