# generated using pymatgen
data_Na6Zr7ZnSi6(SO8)6
_symmetry_space_group_name_H-M   'P 1'
_cell_length_a   18.11155124
_cell_length_b   9.03761787
_cell_length_c   23.41786900
_cell_angle_alpha   89.96577541
_cell_angle_beta   90.08134652
_cell_angle_gamma   119.90526918
_symmetry_Int_Tables_number   1
_chemical_formula_structural   Na6Zr7ZnSi6(SO8)6
_chemical_formula_sum   'Na18 Zr21 Zn3 Si18 S18 O144'
_cell_volume   3322.77519452
_cell_formula_units_Z   3
loop_
 _symmetry_equiv_pos_site_id
 _symmetry_equiv_pos_as_xyz
  1  'x, y, z'
loop_
 _atom_site_type_symbol
 _atom_site_label
 _atom_site_symmetry_multiplicity
 _atom_site_fract_x
 _atom_site_fract_y
 _atom_site_fract_z
 _atom_site_occupancy
  Na  Na0  1  0.68610124  0.37645685  0.25093372  1
  Na  Na1  1  0.99605487  0.64340837  0.25134419  1
  Na  Na2  1  0.99710798  0.35744418  0.75124987  1
  Na  Na3  1  0.49369517  0.35957203  0.74754141  1
  Na  Na4  1  0.19166191  0.01584147  0.75126588  1
  Na  Na5  1  0.68442445  0.00805565  0.74903424  1
  Na  Na6  1  0.99835133  0.99860201  0.49228362  1
  Na  Na7  1  0.50533910  0.00134878  0.49858704  1
  Na  Na8  1  0.00891372  0.01317542  0.99851178  1
  Na  Na9  1  0.50238117  0.99075608  0.99765772  1
  Na  Na10  1  0.33095998  0.33284929  0.82644299  1
  Na  Na11  1  0.82951151  0.32821852  0.82852566  1
  Na  Na12  1  0.33352024  0.33129195  0.33019357  1
  Na  Na13  1  0.83350330  0.33317097  0.33518329  1
  Na  Na14  1  0.17062978  0.66651795  0.16552835  1
  Na  Na15  1  0.66400731  0.66442878  0.17161917  1
  Na  Na16  1  0.17561051  0.66738208  0.66931722  1
  Na  Na17  1  0.66944256  0.66413771  0.66696782  1
  Zr  Zr18  1  0.99993204  0.98748914  0.35599922  1
  Zr  Zr19  1  0.50344275  0.01031942  0.35594548  1
  Zr  Zr20  1  0.00708788  0.01958867  0.85465383  1
  Zr  Zr21  1  0.50383953  0.99901362  0.84789314  1
  Zr  Zr22  1  0.99741487  0.00486811  0.64892168  1
  Zr  Zr23  1  0.49950514  0.00119282  0.65243183  1
  Zr  Zr24  1  0.00459395  0.99731980  0.15004680  1
  Zr  Zr25  1  0.50027313  0.00133305  0.14680776  1
  Zr  Zr26  1  0.33382341  0.33707502  0.18660026  1
  Zr  Zr27  1  0.32613534  0.33181830  0.98321488  1
  Zr  Zr28  1  0.83319534  0.32453941  0.97604907  1
  Zr  Zr29  1  0.33479674  0.34474922  0.47755557  1
  Zr  Zr30  1  0.83181207  0.33145936  0.47422616  1
  Zr  Zr31  1  0.16087227  0.65659221  0.01769165  1
  Zr  Zr32  1  0.66050216  0.67356448  0.02035418  1
  Zr  Zr33  1  0.16168883  0.65673670  0.51694171  1
  Zr  Zr34  1  0.66650350  0.66910324  0.51333082  1
  Zr  Zr35  1  0.16360558  0.66188042  0.31637639  1
  Zr  Zr36  1  0.66747210  0.66391256  0.31678481  1
  Zr  Zr37  1  0.17012406  0.66985814  0.81598218  1
  Zr  Zr38  1  0.67030516  0.67795637  0.81043272  1
  Zn  Zn39  1  0.33322011  0.33876702  0.69245011  1
  Zn  Zn40  1  0.82472853  0.32434740  0.68666985  1
  Zn  Zn41  1  0.83484923  0.34369274  0.18495637  1
  Si  Si42  1  0.14872994  0.00223038  0.25162553  1
  Si  Si43  1  0.85271913  0.70596873  0.24812231  1
  Si  Si44  1  0.49898664  0.29359124  0.24999342  1
  Si  Si45  1  0.14798541  0.29647956  0.74858967  1
  Si  Si46  1  0.64944208  0.29622017  0.74935890  1
  Si  Si47  1  0.49681677  0.70333742  0.74932181  1
  Si  Si48  1  0.35271407  0.99801469  0.75033548  1
  Si  Si49  1  0.85589600  0.00503065  0.74999726  1
  Si  Si50  1  0.47689612  0.62368841  0.08325925  1
  Si  Si51  1  0.18478734  0.33462995  0.08522958  1
  Si  Si52  1  0.02087894  0.37654869  0.91512179  1
  Si  Si53  1  0.16768072  0.96059485  0.91686243  1
  Si  Si54  1  0.66259866  0.95801381  0.91580240  1
  Si  Si55  1  0.81296138  0.95609223  0.41571585  1
  Si  Si56  1  0.16547950  0.37197460  0.41575577  1
  Si  Si57  1  0.66582597  0.37638599  0.41689944  1
  Si  Si58  1  0.02080456  0.66595398  0.41716731  1
  Si  Si59  1  0.52161533  0.66853265  0.41546318  1
  S  S60  1  0.64597768  0.00085996  0.24880419  1
  S  S61  1  0.35527350  0.71221068  0.25047309  1
  S  S62  1  0.99851812  0.28981658  0.24955449  1
  S  S63  1  0.99840173  0.70838659  0.74988221  1
  S  S64  1  0.47862229  0.33330199  0.58437767  1
  S  S65  1  0.97807295  0.33458388  0.58496697  1
  S  S66  1  0.18829128  0.04144646  0.58453867  1
  S  S67  1  0.68754719  0.04122819  0.58427247  1
  S  S68  1  0.33343184  0.62465335  0.58439620  1
  S  S69  1  0.83334403  0.62150744  0.58500583  1
  S  S70  1  0.97703857  0.62158804  0.08415177  1
  S  S71  1  0.33329208  0.04202608  0.08341546  1
  S  S72  1  0.83338566  0.04563387  0.08485250  1
  S  S73  1  0.68917557  0.33455843  0.08396463  1
  S  S74  1  0.31352175  0.66880579  0.91783155  1
  S  S75  1  0.81133768  0.66626686  0.91796755  1
  S  S76  1  0.52084127  0.37529842  0.91701599  1
  S  S77  1  0.31115847  0.95632282  0.41759150  1
  O  O78  1  0.10124760  0.02769877  0.30585107  1
  O  O79  1  0.60499281  0.02720429  0.30003020  1
  O  O80  1  0.40698556  0.79137721  0.30165450  1
  O  O81  1  0.91613310  0.79453093  0.30268108  1
  O  O82  1  0.48774608  0.16852871  0.30436154  1
  O  O83  1  0.98709215  0.18920943  0.30087005  1
  O  O84  1  0.10184912  0.17104843  0.80414174  1
  O  O85  1  0.60426623  0.17047310  0.80467814  1
  O  O86  1  0.48510823  0.79574693  0.80577034  1
  O  O87  1  0.98652341  0.78760227  0.80115325  1
  O  O88  1  0.41417020  0.03004982  0.80587567  1
  O  O89  1  0.91618960  0.02978371  0.80485928  1
  O  O90  1  0.39790256  0.96556641  0.69418516  1
  O  O91  1  0.89918882  0.96969968  0.69307933  1
  O  O92  1  0.08257589  0.19866113  0.69382952  1
  O  O93  1  0.58565036  0.20791731  0.69394808  1
  O  O94  1  0.01407237  0.81848848  0.69846415  1
  O  O95  1  0.52014245  0.83331883  0.69445377  1
  O  O96  1  0.39665222  0.81664202  0.19844175  1
  O  O97  1  0.89985450  0.82566620  0.19162434  1
  O  O98  1  0.01325395  0.21296492  0.19779461  1
  O  O99  1  0.51350804  0.19325975  0.19476167  1
  O  O100  1  0.08555962  0.96222739  0.19513706  1
  O  O101  1  0.59153749  0.97613938  0.19737718  1
  O  O102  1  0.43998837  0.35537142  0.63631901  1
  O  O103  1  0.94166635  0.35971620  0.63744884  1
  O  O104  1  0.23811581  0.11700889  0.63646243  1
  O  O105  1  0.73738560  0.11654773  0.63692718  1
  O  O106  1  0.31977831  0.52018969  0.63481034  1
  O  O107  1  0.82286110  0.51943729  0.63642912  1
  O  O108  1  0.43468171  0.50706398  0.13940474  1
  O  O109  1  0.94080243  0.52103348  0.13653782  1
  O  O110  1  0.32053848  0.12014349  0.13478631  1
  O  O111  1  0.81902603  0.12354769  0.13549007  1
  O  O112  1  0.24586581  0.35890859  0.13956542  1
  O  O113  1  0.73817463  0.35741575  0.13660894  1
  O  O114  1  0.22987163  0.30450291  0.02817660  1
  O  O115  1  0.72994673  0.30857790  0.03314890  1
  O  O116  1  0.42080091  0.53322999  0.02619998  1
  O  O117  1  0.92426636  0.53731719  0.03317509  1
  O  O118  1  0.34812972  0.14777179  0.03181691  1
  O  O119  1  0.84384117  0.15070593  0.03249225  1
  O  O120  1  0.22891125  0.14684226  0.53284384  1
  O  O121  1  0.73017079  0.14784689  0.53359054  1
  O  O122  1  0.34405481  0.54180891  0.53175296  1
  O  O123  1  0.84514981  0.54197359  0.53301473  1
  O  O124  1  0.42530518  0.31158083  0.53282231  1
  O  O125  1  0.92675120  0.31232521  0.53372899  1
  O  O126  1  0.27170381  0.68966925  0.96886378  1
  O  O127  1  0.77022419  0.68871148  0.96919831  1
  O  O128  1  0.08014628  0.46523019  0.97136257  1
  O  O129  1  0.57619758  0.46035978  0.96808292  1
  O  O130  1  0.15741668  0.84102968  0.97239951  1
  O  O131  1  0.65442021  0.83958312  0.97171829  1
  O  O132  1  0.27148476  0.85077821  0.46886239  1
  O  O133  1  0.76793372  0.83927864  0.47285111  1
  O  O134  1  0.15697604  0.47255423  0.47218773  1
  O  O135  1  0.65027461  0.46251167  0.47303361  1
  O  O136  1  0.08244363  0.69350356  0.47233535  1
  O  O137  1  0.57892618  0.69901035  0.47290212  1
  O  O138  1  0.06472683  0.63784736  0.35951175  1
  O  O139  1  0.56373723  0.63547730  0.35955920  1
  O  O140  1  0.25916323  0.87995409  0.36565362  1
  O  O141  1  0.75228925  0.87165580  0.36006710  1
  O  O142  1  0.18486758  0.49867897  0.36077036  1
  O  O143  1  0.68181482  0.48444644  0.35820280  1
  O  O144  1  0.06273685  0.48771742  0.85746747  1
  O  O145  1  0.56134238  0.47814522  0.86507843  1
  O  O146  1  0.18077419  0.87173092  0.85888738  1
  O  O147  1  0.68039630  0.87340379  0.85983816  1
  O  O148  1  0.26057603  0.64093850  0.86580444  1
  O  O149  1  0.75835629  0.63545325  0.86638371  1
  O  O150  1  0.01284651  0.83506546  0.41340528  1
  O  O151  1  0.50599172  0.83064534  0.40770116  1
  O  O152  1  0.39615448  0.97246805  0.41120012  1
  O  O153  1  0.90701277  0.97987502  0.40917289  1
  O  O154  1  0.08108490  0.18960478  0.41019921  1
  O  O155  1  0.58122694  0.18500766  0.41074897  1
  O  O156  1  0.00812799  0.18529129  0.91213890  1
  O  O157  1  0.51237307  0.20425331  0.91304570  1
  O  O158  1  0.08045305  0.97085471  0.91065135  1
  O  O159  1  0.57883482  0.97825762  0.91320861  1
  O  O160  1  0.39767037  0.82276653  0.91234570  1
  O  O161  1  0.89673587  0.81608876  0.91121534  1
  O  O162  1  0.48747704  0.17662859  0.58693669  1
  O  O163  1  0.98881424  0.17967900  0.58862176  1
  O  O164  1  0.10045993  0.01893320  0.58907921  1
  O  O165  1  0.60115629  0.02443010  0.58765343  1
  O  O166  1  0.41127207  0.79714675  0.58714367  1
  O  O167  1  0.91182816  0.79579660  0.58975541  1
  O  O168  1  0.49035640  0.81718518  0.09131898  1
  O  O169  1  0.98560253  0.79429411  0.08771157  1
  O  O170  1  0.41073166  0.02346823  0.09000237  1
  O  O171  1  0.91006782  0.02844160  0.08875043  1
  O  O172  1  0.08938918  0.16530656  0.09048337  1
  O  O173  1  0.60200363  0.17912724  0.08867075  1
  O  O174  1  0.34408668  0.16652876  0.74343997  1
  O  O175  1  0.84921567  0.17712724  0.74271634  1
  O  O176  1  0.23705184  0.30228700  0.74249223  1
  O  O177  1  0.74050884  0.30611590  0.74399134  1
  O  O178  1  0.41934397  0.51300379  0.74391849  1
  O  O179  1  0.92564811  0.53544460  0.74231370  1
  O  O180  1  0.34617309  0.54073079  0.24467784  1
  O  O181  1  0.84392650  0.51352261  0.24213841  1
  O  O182  1  0.41456811  0.30994005  0.24345050  1
  O  O183  1  0.92435203  0.31603027  0.24205250  1
  O  O184  1  0.24171410  0.16783101  0.24250233  1
  O  O185  1  0.72969310  0.15796073  0.24220172  1
  O  O186  1  0.32215661  0.51425871  0.92272523  1
  O  O187  1  0.82014007  0.51114222  0.92576379  1
  O  O188  1  0.43651456  0.36053492  0.92411135  1
  O  O189  1  0.92722105  0.36154769  0.92535150  1
  O  O190  1  0.25361606  0.14932596  0.92365028  1
  O  O191  1  0.74853192  0.14659413  0.92593689  1
  O  O192  1  0.32084711  0.12797613  0.42494630  1
  O  O193  1  0.82144628  0.14411850  0.42616102  1
  O  O194  1  0.25070030  0.35337656  0.42628645  1
  O  O195  1  0.74890120  0.35308317  0.42507558  1
  O  O196  1  0.42719220  0.49549928  0.42629961  1
  O  O197  1  0.92852288  0.49642853  0.42530144  1
  O  O198  1  0.17853620  0.50912980  0.07770692  1
  O  O199  1  0.67908873  0.48663586  0.07547756  1
  O  O200  1  0.06427735  0.64412319  0.07748911  1
  O  O201  1  0.57356180  0.64443139  0.07634688  1
  O  O202  1  0.25810350  0.87007518  0.07690988  1
  O  O203  1  0.75716577  0.87116892  0.07607485  1
  O  O204  1  0.17895716  0.86760896  0.57668266  1
  O  O205  1  0.67775620  0.86766162  0.57837903  1
  O  O206  1  0.25749152  0.64766478  0.57612554  1
  O  O207  1  0.75740451  0.64418329  0.57909577  1
  O  O208  1  0.06631244  0.48765251  0.57827566  1
  O  O209  1  0.56527260  0.48649354  0.57770283  1
  O  O210  1  0.15308067  0.82282713  0.25677886  1
  O  O211  1  0.65336655  0.84723561  0.25357754  1
  O  O212  1  0.26990577  0.69637496  0.25491764  1
  O  O213  1  0.75715196  0.68051134  0.25313274  1
  O  O214  1  0.07682305  0.46632202  0.25437993  1
  O  O215  1  0.58720330  0.47578836  0.25412860  1
  O  O216  1  0.14827916  0.47706330  0.75511177  1
  O  O217  1  0.65078009  0.47646294  0.75872259  1
  O  O218  1  0.07854059  0.69644925  0.75451142  1
  O  O219  1  0.58508001  0.69114062  0.75773171  1
  O  O220  1  0.25589511  0.83063111  0.75535146  1
  O  O221  1  0.75996693  0.83797941  0.75493632  1
