# generated using pymatgen
data_Na8Hf2Al2Si5SO24
_symmetry_space_group_name_H-M   'P 1'
_cell_length_a   9.03712123
_cell_length_b   9.01376522
_cell_length_c   22.10308798
_cell_angle_alpha   89.77501215
_cell_angle_beta   89.78615718
_cell_angle_gamma   119.71132923
_symmetry_Int_Tables_number   1
_chemical_formula_structural   Na8Hf2Al2Si5SO24
_chemical_formula_sum   'Na24 Hf6 Al6 Si15 S3 O72'
_cell_volume   1563.73537382
_cell_formula_units_Z   3
loop_
 _symmetry_equiv_pos_site_id
 _symmetry_equiv_pos_as_xyz
  1  'x, y, z'
loop_
 _atom_site_type_symbol
 _atom_site_label
 _atom_site_symmetry_multiplicity
 _atom_site_fract_x
 _atom_site_fract_y
 _atom_site_fract_z
 _atom_site_occupancy
  Na  Na0  1  0.63888556  0.00156550  0.25271565  1
  Na  Na1  1  0.36097767  0.36255751  0.24688310  1
  Na  Na2  1  0.00006662  0.63593049  0.24986232  1
  Na  Na3  1  0.63469401  0.63599309  0.74750632  1
  Na  Na4  1  0.99944579  0.36332747  0.75047254  1
  Na  Na5  1  0.36620265  0.00284154  0.75038472  1
  Na  Na6  1  0.30343206  0.33805834  0.58458673  1
  Na  Na7  1  0.03531459  0.69876037  0.58191375  1
  Na  Na8  1  0.66419025  0.96480987  0.58224316  1
  Na  Na9  1  0.28785196  0.96487659  0.08168313  1
  Na  Na10  1  0.66828970  0.69349120  0.08627035  1
  Na  Na11  1  0.04152568  0.33560368  0.08660487  1
  Na  Na12  1  0.97417426  0.66807585  0.91669864  1
  Na  Na13  1  0.70213661  0.04158854  0.91158155  1
  Na  Na14  1  0.32243106  0.28692117  0.91858159  1
  Na  Na15  1  0.96181251  0.29440533  0.41140406  1
  Na  Na16  1  0.32834430  0.02170183  0.41516927  1
  Na  Na17  1  0.71381595  0.68080395  0.41685690  1
  Na  Na18  1  0.99363740  0.99194888  0.49893099  1
  Na  Na19  1  0.01416384  0.00545470  0.00013063  1
  Na  Na20  1  0.66679553  0.32611505  0.83441383  1
  Na  Na21  1  0.67440304  0.33138261  0.33201657  1
  Na  Na22  1  0.32631770  0.65733397  0.16442804  1
  Na  Na23  1  0.33493245  0.66689401  0.66335667  1
  Hf  Hf24  1  0.99962982  0.00059682  0.64790091  1
  Hf  Hf25  1  0.66933799  0.33486753  0.68601545  1
  Hf  Hf26  1  0.66884670  0.34359472  0.18664395  1
  Hf  Hf27  1  0.67435865  0.33262706  0.48256709  1
  Hf  Hf28  1  0.32987502  0.67211602  0.31098755  1
  Hf  Hf29  1  0.32377069  0.67016857  0.81569032  1
  Al  Al30  1  0.98675375  0.98380479  0.34819536  1
  Al  Al31  1  0.01553431  0.01346348  0.85011385  1
  Al  Al32  1  0.01389178  0.99871397  0.15113362  1
  Al  Al33  1  0.66339689  0.33315472  0.98292579  1
  Al  Al34  1  0.29368979  0.64232005  0.01707474  1
  Al  Al35  1  0.33833692  0.68730984  0.52207722  1
  Si  Si36  1  0.28092461  0.00291198  0.25108728  1
  Si  Si37  1  0.71992724  0.72151076  0.24824135  1
  Si  Si38  1  0.99937283  0.27441608  0.24961477  1
  Si  Si39  1  0.29208802  0.29157903  0.75261536  1
  Si  Si40  1  0.99669886  0.71428144  0.75465902  1
  Si  Si41  1  0.71366419  0.99892043  0.75484418  1
  Si  Si42  1  0.97490943  0.34242096  0.58182420  1
  Si  Si43  1  0.37130076  0.03536640  0.58207451  1
  Si  Si44  1  0.65790343  0.62958615  0.58096944  1
  Si  Si45  1  0.95780463  0.62956079  0.07956313  1
  Si  Si46  1  0.37126384  0.33735486  0.07898028  1
  Si  Si47  1  0.02796476  0.36188999  0.91964416  1
  Si  Si48  1  0.33592831  0.96416744  0.92193135  1
  Si  Si49  1  0.62935472  0.95540962  0.41763712  1
  Si  Si50  1  0.04439979  0.67458486  0.41834988  1
  S  S51  1  0.66595976  0.04084124  0.08101109  1
  S  S52  1  0.62438804  0.66560122  0.91972713  1
  S  S53  1  0.33070949  0.37427870  0.41758817  1
  O  O54  1  0.19550694  0.03478150  0.31094481  1
  O  O55  1  0.83186260  0.79625386  0.30924929  1
  O  O56  1  0.97076012  0.16127623  0.31092430  1
  O  O57  1  0.20415758  0.16913808  0.81095099  1
  O  O58  1  0.96845643  0.80782492  0.81257216  1
  O  O59  1  0.83712230  0.02829528  0.81215956  1
  O  O60  1  0.78975794  0.96443034  0.69234403  1
  O  O61  1  0.17559683  0.21440552  0.69180648  1
  O  O62  1  0.03556677  0.82632187  0.69238590  1
  O  O63  1  0.80589749  0.83992429  0.18846330  1
  O  O64  1  0.02875791  0.18967220  0.18885810  1
  O  O65  1  0.16802641  0.96500935  0.19022605  1
  O  O66  1  0.88645888  0.37766819  0.64115565  1
  O  O67  1  0.49421862  0.12373646  0.64110642  1
  O  O68  1  0.62599149  0.50795314  0.64106089  1
  O  O69  1  0.87832785  0.50514069  0.14011236  1
  O  O70  1  0.63527878  0.11711091  0.13662112  1
  O  O71  1  0.49174482  0.37145436  0.13998634  1
  O  O72  1  0.47002068  0.30246588  0.02343581  1
  O  O73  1  0.82920791  0.52998798  0.02328124  1
  O  O74  1  0.69267062  0.15311442  0.02809351  1
  O  O75  1  0.45622785  0.16011232  0.52306145  1
  O  O76  1  0.69672567  0.54156941  0.52285283  1
  O  O77  1  0.84492947  0.29863890  0.52437296  1
  O  O78  1  0.53969210  0.69246571  0.97247786  1
  O  O79  1  0.15958802  0.45340450  0.97568207  1
  O  O80  1  0.30779345  0.83010538  0.97763410  1
  O  O81  1  0.53326415  0.83150301  0.47569760  1
  O  O82  1  0.30823803  0.45866276  0.47153258  1
  O  O83  1  0.16793025  0.69939720  0.47577625  1
  O  O84  1  0.12384198  0.62957851  0.35843004  1
  O  O85  1  0.50886096  0.86898188  0.35779117  1
  O  O86  1  0.35934208  0.48036717  0.36213824  1
  O  O87  1  0.11552289  0.48859372  0.86024805  1
  O  O88  1  0.37713501  0.88406505  0.86094757  1
  O  O89  1  0.51911073  0.63723479  0.86415180  1
  O  O90  1  0.02913372  0.84842988  0.41075750  1
  O  O91  1  0.82204755  0.98019677  0.41097968  1
  O  O92  1  0.17884690  0.20428337  0.41315659  1
  O  O93  1  0.01151511  0.17225185  0.91135126  1
  O  O94  1  0.15888219  0.97406131  0.91340183  1
  O  O95  1  0.79557591  0.81884647  0.91404657  1
  O  O96  1  0.98658027  0.16845882  0.58584380  1
  O  O97  1  0.18326837  0.01748019  0.58604698  1
  O  O98  1  0.83085316  0.81571245  0.58610914  1
  O  O99  1  0.97386421  0.81940323  0.08810609  1
  O  O100  1  0.82181511  0.02630845  0.08572191  1
  O  O101  1  0.18095055  0.16573569  0.08780190  1
  O  O102  1  0.69403754  0.17040006  0.74896393  1
  O  O103  1  0.48096008  0.30871023  0.74744152  1
  O  O104  1  0.82882477  0.52342197  0.74929697  1
  O  O105  1  0.69630697  0.52629447  0.24501905  1
  O  O106  1  0.82903699  0.29920593  0.24473580  1
  O  O107  1  0.47627620  0.16768340  0.24525630  1
  O  O108  1  0.64115886  0.50891972  0.92360204  1
  O  O109  1  0.84083039  0.35039006  0.92861359  1
  O  O110  1  0.50692566  0.15572442  0.92826485  1
  O  O111  1  0.64239373  0.14595682  0.41971785  1
  O  O112  1  0.48725412  0.35766660  0.42039377  1
  O  O113  1  0.85021490  0.50442650  0.42038394  1
  O  O114  1  0.35954350  0.51598327  0.07151963  1
  O  O115  1  0.15015914  0.64892133  0.07508973  1
  O  O116  1  0.51387937  0.86860537  0.07582793  1
  O  O117  1  0.35669383  0.84898971  0.57719152  1
  O  O118  1  0.48616732  0.64301427  0.57353703  1
  O  O119  1  0.15990722  0.51033835  0.57178934  1
  O  O120  1  0.30497049  0.83160984  0.25392952  1
  O  O121  1  0.52397960  0.69002975  0.25344624  1
  O  O122  1  0.16953065  0.46868662  0.25409049  1
  O  O123  1  0.31700483  0.48393195  0.75831047  1
  O  O124  1  0.16791874  0.69262002  0.75680131  1
  O  O125  1  0.52327423  0.82879401  0.75853742  1
