# generated using pymatgen
data_K4Au6S5
_symmetry_space_group_name_H-M   'P 1'
_cell_length_a   9.67568110
_cell_length_b   9.67544165
_cell_length_c   9.94537804
_cell_angle_alpha   89.99997211
_cell_angle_beta   90.00018236
_cell_angle_gamma   119.99952052
_symmetry_Int_Tables_number   1
_chemical_formula_structural   K4Au6S5
_chemical_formula_sum   'K8 Au12 S10'
_cell_volume   806.31802862
_cell_formula_units_Z   2
loop_
 _symmetry_equiv_pos_site_id
 _symmetry_equiv_pos_as_xyz
  1  'x, y, z'
loop_
 _atom_site_type_symbol
 _atom_site_label
 _atom_site_symmetry_multiplicity
 _atom_site_fract_x
 _atom_site_fract_y
 _atom_site_fract_z
 _atom_site_occupancy
  K  K0  1  0.58197526  0.93196076  0.74999530  1
  K  K1  1  0.06803507  0.65000680  0.75000333  1
  K  K2  1  0.34998667  0.41802604  0.74999982  1
  K  K3  1  0.41802705  0.34999375  0.25000173  1
  K  K4  1  0.65003733  0.06804507  0.25000172  1
  K  K5  1  0.00000975  0.00000786  0.00000259  1
  K  K6  1  0.00000299  0.00000231  0.50000289  1
  K  K7  1  0.93196294  0.58197227  0.25000536  1
  Au  Au8  1  0.16578171  0.44890835  0.41345400  1
  Au  Au9  1  0.28313879  0.83419399  0.41348092  1
  Au  Au10  1  0.55105919  0.71685968  0.41347558  1
  Au  Au11  1  0.71685495  0.55106556  0.58652198  1
  Au  Au12  1  0.28313511  0.83420243  0.08652922  1
  Au  Au13  1  0.16578191  0.44890970  0.08654623  1
  Au  Au14  1  0.83420933  0.28312689  0.91346061  1
  Au  Au15  1  0.44890717  0.16577812  0.91345423  1
  Au  Au16  1  0.44890895  0.16578015  0.58654635  1
  Au  Au17  1  0.83420246  0.28313033  0.58652721  1
  Au  Au18  1  0.71685962  0.55106311  0.91348074  1
  Au  Au19  1  0.55108698  0.71690691  0.08649695  1
  S  S20  1  0.25827278  0.03125781  0.75000438  1
  S  S21  1  0.33334321  0.66668070  0.54839810  1
  S  S22  1  0.33333616  0.66668369  0.95159381  1
  S  S23  1  0.66666708  0.33333233  0.04841096  1
  S  S24  1  0.66667614  0.33333285  0.45160364  1
  S  S25  1  0.03126616  0.25828594  0.25000028  1
  S  S26  1  0.22700638  0.96875566  0.24999835  1
  S  S27  1  0.74173454  0.77298922  0.24998931  1
  S  S28  1  0.96875182  0.22701236  0.75001328  1
  S  S29  1  0.77297950  0.74173037  0.75000112  1
