# generated using pymatgen
data_Na10In4Si7Sn4S5O48
_symmetry_space_group_name_H-M   'P 1'
_cell_length_a   18.18548523
_cell_length_b   9.09470184
_cell_length_c   22.75068961
_cell_angle_alpha   89.91322544
_cell_angle_beta   89.39551898
_cell_angle_gamma   119.82563170
_symmetry_Int_Tables_number   1
_chemical_formula_structural   Na10In4Si7Sn4S5O48
_chemical_formula_sum   'Na30 In12 Si21 Sn12 S15 O144'
_cell_volume   3264.08599662
_cell_formula_units_Z   3
loop_
 _symmetry_equiv_pos_site_id
 _symmetry_equiv_pos_as_xyz
  1  'x, y, z'
loop_
 _atom_site_type_symbol
 _atom_site_label
 _atom_site_symmetry_multiplicity
 _atom_site_fract_x
 _atom_site_fract_y
 _atom_site_fract_z
 _atom_site_occupancy
  Na  Na0  1  0.18350512  0.37405591  0.23951710  1
  Na  Na1  1  0.68345185  0.37537040  0.23984141  1
  Na  Na2  1  0.99138727  0.62534931  0.25657334  1
  Na  Na3  1  0.49190091  0.62517461  0.25578389  1
  Na  Na4  1  0.49098571  0.35225374  0.76224323  1
  Na  Na5  1  0.18417850  0.99470586  0.74435905  1
  Na  Na6  1  0.68231303  0.99463392  0.74345226  1
  Na  Na7  1  0.66124534  0.34526448  0.57881925  1
  Na  Na8  1  0.01714046  0.70602959  0.57768303  1
  Na  Na9  1  0.82588243  0.95628772  0.59463502  1
  Na  Na10  1  0.49242934  0.67411529  0.91037342  1
  Na  Na11  1  0.99475861  0.67640095  0.90842014  1
  Na  Na12  1  0.84861579  0.03421373  0.90278998  1
  Na  Na13  1  0.15692999  0.28935192  0.92589625  1
  Na  Na14  1  0.49235491  0.31247614  0.40929682  1
  Na  Na15  1  0.99053647  0.30941578  0.40987545  1
  Na  Na16  1  0.34800389  0.66179412  0.40278443  1
  Na  Na17  1  0.84928091  0.66466434  0.40818584  1
  Na  Na18  1  0.02600218  0.00690024  0.49693285  1
  Na  Na19  1  0.52062986  0.98978998  0.49503943  1
  Na  Na20  1  0.01428555  0.02284937  0.99982235  1
  Na  Na21  1  0.52187198  0.05356664  0.99414925  1
  Na  Na22  1  0.33950762  0.31708317  0.83311360  1
  Na  Na23  1  0.84465145  0.33635984  0.82541884  1
  Na  Na24  1  0.33350387  0.33079762  0.32867445  1
  Na  Na25  1  0.83351233  0.33122043  0.33055755  1
  Na  Na26  1  0.17659293  0.65514537  0.16166818  1
  Na  Na27  1  0.67619552  0.65552162  0.16209260  1
  Na  Na28  1  0.17643577  0.68664963  0.66910477  1
  Na  Na29  1  0.67341751  0.68895813  0.66650126  1
  In  In30  1  0.00208422  0.00458299  0.35113857  1
  In  In31  1  0.50197657  0.00371165  0.35026200  1
  In  In32  1  0.99871018  0.99630639  0.84821965  1
  In  In33  1  0.49791457  0.99744586  0.85304669  1
  In  In34  1  0.33246174  0.32748044  0.68584105  1
  In  In35  1  0.83503563  0.33628584  0.68626129  1
  In  In36  1  0.33359089  0.33971586  0.18293506  1
  In  In37  1  0.83290792  0.34022166  0.18322708  1
  In  In38  1  0.16000031  0.65162889  0.01782522  1
  In  In39  1  0.65861036  0.64720232  0.01888905  1
  In  In40  1  0.16394968  0.67310805  0.51687933  1
  In  In41  1  0.66138268  0.66724506  0.51894537  1
  Si  Si42  1  0.35252518  0.71402599  0.25077098  1
  Si  Si43  1  0.85294811  0.71522232  0.25102794  1
  Si  Si44  1  0.99855825  0.29820349  0.25248089  1
  Si  Si45  1  0.49841402  0.29799559  0.25258942  1
  Si  Si46  1  0.99972834  0.69550153  0.75240932  1
  Si  Si47  1  0.49869627  0.69776452  0.75317681  1
  Si  Si48  1  0.35270349  0.99095527  0.74958741  1
  Si  Si49  1  0.84954334  0.99486439  0.75157382  1
  Si  Si50  1  0.18467145  0.03661902  0.58740131  1
  Si  Si51  1  0.68328062  0.04007324  0.58729870  1
  Si  Si52  1  0.83375792  0.63263474  0.58235773  1
  Si  Si53  1  0.18297750  0.33096333  0.08552385  1
  Si  Si54  1  0.68190580  0.33038362  0.08745553  1
  Si  Si55  1  0.01790301  0.36939660  0.91833998  1
  Si  Si56  1  0.51581575  0.36470369  0.91745267  1
  Si  Si57  1  0.16754293  0.96324331  0.91721426  1
  Si  Si58  1  0.66749518  0.96162313  0.91930077  1
  Si  Si59  1  0.16764748  0.37215220  0.41824246  1
  Si  Si60  1  0.66632062  0.36675664  0.41913602  1
  Si  Si61  1  0.01626393  0.66543933  0.41893082  1
  Si  Si62  1  0.51688583  0.66567537  0.41808879  1
  Sn  Sn63  1  0.99790813  0.98535423  0.65073728  1
  Sn  Sn64  1  0.49700587  0.98151671  0.65100183  1
  Sn  Sn65  1  0.00044147  0.01469631  0.14830090  1
  Sn  Sn66  1  0.49994839  0.01328996  0.14831856  1
  Sn  Sn67  1  0.32938028  0.31860104  0.98124181  1
  Sn  Sn68  1  0.82567288  0.32257287  0.98178193  1
  Sn  Sn69  1  0.32731994  0.33097457  0.48188714  1
  Sn  Sn70  1  0.82853476  0.34398775  0.48205151  1
  Sn  Sn71  1  0.16506281  0.65337186  0.31500218  1
  Sn  Sn72  1  0.66395171  0.65376823  0.31539461  1
  Sn  Sn73  1  0.16307454  0.67683751  0.81506603  1
  Sn  Sn74  1  0.66482291  0.67586375  0.81578571  1
  S  S75  1  0.14782150  0.99328866  0.24943582  1
  S  S76  1  0.64805970  0.99285180  0.24948362  1
  S  S77  1  0.14656478  0.30323505  0.75010090  1
  S  S78  1  0.64555288  0.29820528  0.74906447  1
  S  S79  1  0.47896203  0.32094978  0.58320347  1
  S  S80  1  0.98146149  0.32708135  0.58121327  1
  S  S81  1  0.33591265  0.63424733  0.58196612  1
  S  S82  1  0.48153011  0.64041910  0.08400262  1
  S  S83  1  0.98150051  0.63984195  0.08324616  1
  S  S84  1  0.33458809  0.03596292  0.08393947  1
  S  S85  1  0.83524457  0.03743785  0.08251240  1
  S  S86  1  0.31053898  0.66039322  0.91783522  1
  S  S87  1  0.81147068  0.65895451  0.91790716  1
  S  S88  1  0.31171165  0.96474275  0.41652311  1
  S  S89  1  0.81093434  0.96527462  0.41780123  1
  O  O90  1  0.11201801  0.02749106  0.30298650  1
  O  O91  1  0.61238646  0.02722496  0.30314092  1
  O  O92  1  0.40879131  0.78531615  0.30982329  1
  O  O93  1  0.90986050  0.78698740  0.30970107  1
  O  O94  1  0.48704721  0.20230055  0.31509945  1
  O  O95  1  0.98797676  0.20283230  0.31490016  1
  O  O96  1  0.11127301  0.20612305  0.80569835  1
  O  O97  1  0.60463226  0.18942387  0.80033617  1
  O  O98  1  0.48879946  0.77714609  0.81407938  1
  O  O99  1  0.99358017  0.78129292  0.81363032  1
  O  O100  1  0.42055967  0.04614812  0.80132678  1
  O  O101  1  0.90157564  0.01799988  0.81113813  1
  O  O102  1  0.39519093  0.97052313  0.68663702  1
  O  O103  1  0.89841778  0.98634704  0.69012266  1
  O  O104  1  0.09205676  0.21656341  0.69866362  1
  O  O105  1  0.59408981  0.22480138  0.69374623  1
  O  O106  1  0.02020540  0.82254380  0.69424282  1
  O  O107  1  0.52506754  0.83152347  0.69666497  1
  O  O108  1  0.40351502  0.82855057  0.19244897  1
  O  O109  1  0.90338266  0.82923641  0.19203781  1
  O  O110  1  0.02575291  0.21326919  0.19832047  1
  O  O111  1  0.52470850  0.21109329  0.19879947  1
  O  O112  1  0.09268727  0.96258405  0.19723746  1
  O  O113  1  0.59273692  0.96195294  0.19748252  1
  O  O114  1  0.43801246  0.33933784  0.63647306  1
  O  O115  1  0.93906446  0.35111424  0.63259728  1
  O  O116  1  0.23460542  0.11846778  0.64741994  1
  O  O117  1  0.73704170  0.11609285  0.64665609  1
  O  O118  1  0.32907811  0.53223656  0.63375076  1
  O  O119  1  0.81486993  0.50039915  0.63481533  1
  O  O120  1  0.44228068  0.54142857  0.13872364  1
  O  O121  1  0.94163445  0.54120979  0.13767924  1
  O  O122  1  0.32831102  0.12127861  0.13704345  1
  O  O123  1  0.82982139  0.12673470  0.13466999  1
  O  O124  1  0.23031114  0.33786768  0.14662502  1
  O  O125  1  0.72846382  0.33937795  0.14924019  1
  O  O126  1  0.23192253  0.31122723  0.02580707  1
  O  O127  1  0.73280055  0.30858582  0.03018600  1
  O  O128  1  0.43112994  0.54981752  0.03076201  1
  O  O129  1  0.93168392  0.55082143  0.02960193  1
  O  O130  1  0.34858036  0.14241581  0.02951716  1
  O  O131  1  0.84815451  0.13955656  0.02694886  1
  O  O132  1  0.23305661  0.15288686  0.52798187  1
  O  O133  1  0.72955137  0.17159632  0.52996343  1
  O  O134  1  0.34752121  0.55761659  0.52587205  1
  O  O135  1  0.85857349  0.56521543  0.52079921  1
  O  O136  1  0.43071927  0.31070441  0.52843758  1
  O  O137  1  0.93079390  0.30321617  0.52615248  1
  O  O138  1  0.27360484  0.68363648  0.97211518  1
  O  O139  1  0.77265277  0.68072238  0.97167736  1
  O  O140  1  0.08156273  0.43370501  0.97323326  1
  O  O141  1  0.57102616  0.44530193  0.97475842  1
  O  O142  1  0.15162791  0.83797394  0.97206744  1
  O  O143  1  0.65807628  0.84251030  0.97447524  1
  O  O144  1  0.27384808  0.86796550  0.47102775  1
  O  O145  1  0.77423439  0.86958171  0.47251353  1
  O  O146  1  0.15576133  0.46990409  0.47324015  1
  O  O147  1  0.65410777  0.45130492  0.47850603  1
  O  O148  1  0.06566591  0.69263400  0.48008401  1
  O  O149  1  0.57444401  0.69805012  0.47420316  1
  O  O150  1  0.06437605  0.63942985  0.35978727  1
  O  O151  1  0.55831889  0.63340984  0.35643239  1
  O  O152  1  0.25943947  0.88476425  0.36388594  1
  O  O153  1  0.75787647  0.88301610  0.36531775  1
  O  O154  1  0.19053185  0.48995558  0.35697340  1
  O  O155  1  0.68663608  0.49181901  0.36026311  1
  O  O156  1  0.06137270  0.49810945  0.86080278  1
  O  O157  1  0.55874582  0.48566366  0.85660766  1
  O  O158  1  0.18381856  0.89137817  0.85458409  1
  O  O159  1  0.69045882  0.88942604  0.85787442  1
  O  O160  1  0.25685759  0.63499175  0.86504956  1
  O  O161  1  0.76039733  0.63416254  0.86447553  1
  O  O162  1  0.99441006  0.81749126  0.41286882  1
  O  O163  1  0.49212919  0.81385922  0.41301136  1
  O  O164  1  0.39628494  0.97931603  0.41197838  1
  O  O165  1  0.89574258  0.97992198  0.41225702  1
  O  O166  1  0.08148330  0.18904186  0.41429950  1
  O  O167  1  0.57980798  0.18432506  0.41369776  1
  O  O168  1  0.99683671  0.17400969  0.91051807  1
  O  O169  1  0.49569750  0.17191652  0.91224273  1
  O  O170  1  0.08265954  0.98594019  0.91461866  1
  O  O171  1  0.58077131  0.97092757  0.91469476  1
  O  O172  1  0.39718954  0.80263829  0.91246357  1
  O  O173  1  0.89682601  0.81249874  0.91353456  1
  O  O174  1  0.48585859  0.16419236  0.58468809  1
  O  O175  1  0.98686970  0.16923129  0.58613438  1
  O  O176  1  0.08927255  0.02247718  0.58873638  1
  O  O177  1  0.59011631  0.03941158  0.58962457  1
  O  O178  1  0.41509983  0.80529561  0.58351490  1
  O  O179  1  0.91834960  0.82353490  0.58823096  1
  O  O180  1  0.48394498  0.80695519  0.08593963  1
  O  O181  1  0.98470815  0.80756373  0.08501204  1
  O  O182  1  0.41242475  0.01852577  0.08558588  1
  O  O183  1  0.91397597  0.02155822  0.08424948  1
  O  O184  1  0.08827248  0.15058380  0.08608985  1
  O  O185  1  0.58726249  0.15190059  0.08705937  1
  O  O186  1  0.33416719  0.15131413  0.74692072  1
  O  O187  1  0.82772027  0.14858997  0.74811108  1
  O  O188  1  0.23119558  0.31768307  0.74382597  1
  O  O189  1  0.72984550  0.31696220  0.74456782  1
  O  O190  1  0.41783032  0.50758478  0.74433968  1
  O  O191  1  0.91612173  0.51231914  0.74696976  1
  O  O192  1  0.33522492  0.51771592  0.24678373  1
  O  O193  1  0.83625795  0.51930035  0.24686009  1
  O  O194  1  0.41750687  0.32709509  0.24353885  1
  O  O195  1  0.91753764  0.32658617  0.24311086  1
  O  O196  1  0.23350766  0.14043390  0.24259757  1
  O  O197  1  0.73389109  0.13924017  0.24267235  1
  O  O198  1  0.31535594  0.49926785  0.92070827  1
  O  O199  1  0.82513634  0.50922582  0.92143856  1
  O  O200  1  0.42552340  0.37835097  0.92301227  1
  O  O201  1  0.92684376  0.37365086  0.92727180  1
  O  O202  1  0.24932619  0.15915567  0.92088615  1
  O  O203  1  0.75617380  0.14980354  0.92153511  1
  O  O204  1  0.32440603  0.14046367  0.41960663  1
  O  O205  1  0.82338321  0.14049903  0.42081979  1
  O  O206  1  0.25617129  0.36151196  0.42119368  1
  O  O207  1  0.75482805  0.35675509  0.41841365  1
  O  O208  1  0.42496837  0.47601320  0.42416159  1
  O  O209  1  0.92571812  0.47538893  0.42022344  1
  O  O210  1  0.17439505  0.50086413  0.08220726  1
  O  O211  1  0.67408439  0.50089886  0.08326612  1
  O  O212  1  0.06770974  0.66485279  0.08102508  1
  O  O213  1  0.56809702  0.66710831  0.08202903  1
  O  O214  1  0.25837219  0.86939810  0.07963484  1
  O  O215  1  0.75974888  0.86962600  0.07971367  1
  O  O216  1  0.16784022  0.84106890  0.58270997  1
  O  O217  1  0.67522680  0.85538166  0.58034520  1
  O  O218  1  0.26033607  0.65303940  0.57895694  1
  O  O219  1  0.74998380  0.65492032  0.57827622  1
  O  O220  1  0.06636309  0.47810503  0.57833405  1
  O  O221  1  0.56573252  0.46860905  0.58172499  1
  O  O222  1  0.15182409  0.83457659  0.25556001  1
  O  O223  1  0.65196806  0.83400012  0.25565462  1
  O  O224  1  0.25815646  0.70172369  0.25380707  1
  O  O225  1  0.75811927  0.70097886  0.25476653  1
  O  O226  1  0.08498094  0.49262650  0.25279178  1
  O  O227  1  0.58529110  0.49170508  0.25262937  1
  O  O228  1  0.15603316  0.47413359  0.75353862  1
  O  O229  1  0.65018360  0.46627130  0.75451512  1
  O  O230  1  0.08980664  0.68917155  0.75094822  1
  O  O231  1  0.58523563  0.67723578  0.75288960  1
  O  O232  1  0.26015011  0.81452644  0.75591374  1
  O  O233  1  0.75658029  0.81203424  0.75329371  1
