# generated using pymatgen
data_Na6Y3NbSi2(PO6)4
_symmetry_space_group_name_H-M   'P 1'
_cell_length_a   16.18329182
_cell_length_b   9.24472422
_cell_length_c   9.30780416
_cell_angle_alpha   89.99372070
_cell_angle_beta   125.45038914
_cell_angle_gamma   89.98841289
_symmetry_Int_Tables_number   1
_chemical_formula_structural   Na6Y3NbSi2(PO6)4
_chemical_formula_sum   'Na12 Y6 Nb2 Si4 P8 O48'
_cell_volume   1134.38912366
_cell_formula_units_Z   2
loop_
 _symmetry_equiv_pos_site_id
 _symmetry_equiv_pos_as_xyz
  1  'x, y, z'
loop_
 _atom_site_type_symbol
 _atom_site_label
 _atom_site_symmetry_multiplicity
 _atom_site_fract_x
 _atom_site_fract_y
 _atom_site_fract_z
 _atom_site_occupancy
  Na  Na0  1  0.25150510  0.75214263  0.99928736  1
  Na  Na1  1  0.74722990  0.75928413  0.49467410  1
  Na  Na2  1  0.75150510  0.25214263  0.99928736  1
  Na  Na3  1  0.24722990  0.25928413  0.49467410  1
  Na  Na4  1  0.50060262  0.08185876  0.74003039  1
  Na  Na5  1  0.50531288  0.88609208  0.24615926  1
  Na  Na6  1  0.00060262  0.58185876  0.74003039  1
  Na  Na7  1  0.00531288  0.38609208  0.24615926  1
  Na  Na8  1  0.18979775  0.93032714  0.29808759  1
  Na  Na9  1  0.80762239  0.08195708  0.71219779  1
  Na  Na10  1  0.68979775  0.43032714  0.29808759  1
  Na  Na11  1  0.30762239  0.58195708  0.71219779  1
  Y  Y12  1  0.10267136  0.76202619  0.56249327  1
  Y  Y13  1  0.89789367  0.24103018  0.44033813  1
  Y  Y14  1  0.10695781  0.25205709  0.05433108  1
  Y  Y15  1  0.60267136  0.26202619  0.56249327  1
  Y  Y16  1  0.39789367  0.74103018  0.44033813  1
  Y  Y17  1  0.60695781  0.75205709  0.05433108  1
  Nb  Nb18  1  0.89592929  0.74566748  0.94770207  1
  Nb  Nb19  1  0.39592929  0.24566748  0.94770207  1
  Si  Si20  1  0.35214799  0.90728188  0.75563289  1
  Si  Si21  1  0.65201639  0.10699654  0.25535230  1
  Si  Si22  1  0.85214799  0.40728188  0.75563289  1
  Si  Si23  1  0.15201639  0.60699654  0.25535230  1
  P  P24  1  0.99656303  0.94084298  0.76656927  1
  P  P25  1  0.99329960  0.04710223  0.23501394  1
  P  P26  1  0.49656303  0.44084298  0.76656927  1
  P  P27  1  0.49329960  0.54710223  0.23501394  1
  P  P28  1  0.65209265  0.89443108  0.73780797  1
  P  P29  1  0.35685442  0.09658419  0.25617804  1
  P  P30  1  0.15209265  0.39443108  0.73780797  1
  P  P31  1  0.85685442  0.59658419  0.25617804  1
  O  O32  1  0.16154510  0.56201388  0.74371286  1
  O  O33  1  0.84467183  0.58829504  0.77319475  1
  O  O34  1  0.85355262  0.43119048  0.22948325  1
  O  O35  1  0.15571499  0.43083731  0.25260115  1
  O  O36  1  0.66154510  0.06201388  0.74371286  1
  O  O37  1  0.34467183  0.08829504  0.77319475  1
  O  O38  1  0.35355262  0.93119048  0.22948325  1
  O  O39  1  0.65571499  0.93083731  0.25260115  1
  O  O40  1  0.43400933  0.54370423  0.60570650  1
  O  O41  1  0.56410484  0.52650699  0.93666398  1
  O  O42  1  0.54709829  0.45403957  0.40132268  1
  O  O43  1  0.43508324  0.44368332  0.06941272  1
  O  O44  1  0.93400933  0.04370423  0.60570650  1
  O  O45  1  0.06410484  0.02650699  0.93666398  1
  O  O46  1  0.04709829  0.95403957  0.40132268  1
  O  O47  1  0.93508324  0.94368332  0.06941272  1
  O  O48  1  0.26116231  0.83058713  0.75360978  1
  O  O49  1  0.75034774  0.83245194  0.76422449  1
  O  O50  1  0.73213312  0.19456193  0.23381002  1
  O  O51  1  0.26426114  0.14818783  0.24857047  1
  O  O52  1  0.76116231  0.33058713  0.75360978  1
  O  O53  1  0.25034774  0.33245194  0.76422449  1
  O  O54  1  0.23213312  0.69456193  0.23381002  1
  O  O55  1  0.76426114  0.64818783  0.24857047  1
  O  O56  1  0.35081479  0.88543228  0.57715185  1
  O  O57  1  0.64497095  0.85042060  0.88869589  1
  O  O58  1  0.66271976  0.15942900  0.43177205  1
  O  O59  1  0.35826223  0.16741741  0.09972363  1
  O  O60  1  0.85081479  0.38543228  0.57715185  1
  O  O61  1  0.14497095  0.35042060  0.88869589  1
  O  O62  1  0.16271976  0.65942900  0.43177205  1
  O  O63  1  0.85826223  0.66741741  0.09972363  1
  O  O64  1  0.46115758  0.85495442  0.92714625  1
  O  O65  1  0.55839713  0.83898895  0.55971494  1
  O  O66  1  0.53139199  0.16679094  0.08535892  1
  O  O67  1  0.45441553  0.14018190  0.43059896  1
  O  O68  1  0.96115758  0.35495442  0.92714625  1
  O  O69  1  0.05839713  0.33898895  0.55971494  1
  O  O70  1  0.03139199  0.66679094  0.08535892  1
  O  O71  1  0.95441553  0.64018190  0.43059896  1
  O  O72  1  0.05892150  0.82473931  0.74971554  1
  O  O73  1  0.91274260  0.85373105  0.76897890  1
  O  O74  1  0.91693498  0.15242339  0.22694027  1
  O  O75  1  0.07708957  0.13374945  0.24003469  1
  O  O76  1  0.55892150  0.32473931  0.74971554  1
  O  O77  1  0.41274260  0.35373105  0.76897890  1
  O  O78  1  0.41693498  0.65242339  0.22694027  1
  O  O79  1  0.57708957  0.63374945  0.24003469  1
