# generated using pymatgen
data_Na10Zn4Si5Sn4S7O48
_symmetry_space_group_name_H-M   'P 1'
_cell_length_a   17.93677087
_cell_length_b   9.02645364
_cell_length_c   22.48347770
_cell_angle_alpha   89.82554788
_cell_angle_beta   88.84088897
_cell_angle_gamma   120.12161062
_symmetry_Int_Tables_number   1
_chemical_formula_structural   Na10Zn4Si5Sn4S7O48
_chemical_formula_sum   'Na30 Zn12 Si15 Sn12 S21 O144'
_cell_volume   3147.62209712
_cell_formula_units_Z   3
loop_
 _symmetry_equiv_pos_site_id
 _symmetry_equiv_pos_as_xyz
  1  'x, y, z'
loop_
 _atom_site_type_symbol
 _atom_site_label
 _atom_site_symmetry_multiplicity
 _atom_site_fract_x
 _atom_site_fract_y
 _atom_site_fract_z
 _atom_site_occupancy
  Na  Na0  1  0.32326210  0.02421753  0.25371270  1
  Na  Na1  1  0.67773106  0.34501883  0.25307639  1
  Na  Na2  1  0.99867280  0.63771319  0.23832594  1
  Na  Na3  1  0.50006004  0.63378157  0.23701663  1
  Na  Na4  1  0.32049978  0.61770598  0.75592790  1
  Na  Na5  1  0.82017943  0.61755409  0.75467787  1
  Na  Na6  1  0.99879317  0.36579147  0.73851957  1
  Na  Na7  1  0.49906321  0.36627113  0.73762357  1
  Na  Na8  1  0.17753882  0.01235139  0.75119466  1
  Na  Na9  1  0.67842599  0.01285924  0.75010267  1
  Na  Na10  1  0.33434814  0.97133523  0.57031888  1
  Na  Na11  1  0.83376389  0.97164203  0.57016460  1
  Na  Na12  1  0.33422128  0.69781845  0.07035140  1
  Na  Na13  1  0.83275724  0.69550591  0.06932973  1
  Na  Na14  1  0.48135999  0.68076358  0.91055184  1
  Na  Na15  1  0.98152460  0.68119371  0.90967845  1
  Na  Na16  1  0.48357335  0.28468495  0.40873122  1
  Na  Na17  1  0.16606097  0.02711228  0.40543357  1
  Na  Na18  1  0.98782453  0.00688986  0.49381077  1
  Na  Na19  1  0.50125166  0.99584633  0.49334826  1
  Na  Na20  1  0.99817799  0.00380295  0.99251214  1
  Na  Na21  1  0.49737366  0.00256416  0.99388031  1
  Na  Na22  1  0.32455665  0.34253323  0.83006023  1
  Na  Na23  1  0.82450824  0.34296692  0.82928060  1
  Na  Na24  1  0.32756615  0.32667189  0.32419768  1
  Na  Na25  1  0.81825520  0.27761444  0.33062748  1
  Na  Na26  1  0.15414998  0.66551671  0.15811055  1
  Na  Na27  1  0.65321166  0.67944040  0.16032094  1
  Na  Na28  1  0.14850389  0.63094604  0.65938087  1
  Na  Na29  1  0.65042655  0.63326813  0.65787859  1
  Zn  Zn30  1  0.99543336  0.00167079  0.35214998  1
  Zn  Zn31  1  0.50192774  0.00954925  0.34810317  1
  Zn  Zn32  1  0.99820360  0.99003973  0.84903321  1
  Zn  Zn33  1  0.49823285  0.98985779  0.84935153  1
  Zn  Zn34  1  0.34382349  0.35615598  0.68475106  1
  Zn  Zn35  1  0.84359590  0.35601139  0.68409376  1
  Zn  Zn36  1  0.33992510  0.33159429  0.18596855  1
  Zn  Zn37  1  0.83525132  0.32408033  0.18269008  1
  Zn  Zn38  1  0.16327241  0.66532879  0.01780282  1
  Zn  Zn39  1  0.66271662  0.66431123  0.01775119  1
  Zn  Zn40  1  0.16255766  0.65527497  0.51824513  1
  Zn  Zn41  1  0.66703191  0.66395118  0.51666143  1
  Si  Si42  1  0.14645733  0.00205407  0.25622511  1
  Si  Si43  1  0.65113671  0.00608570  0.25156988  1
  Si  Si44  1  0.50193629  0.29725175  0.25438408  1
  Si  Si45  1  0.14709253  0.29219243  0.75249288  1
  Si  Si46  1  0.64728367  0.29304774  0.75289547  1
  Si  Si47  1  0.00159393  0.70754384  0.75440436  1
  Si  Si48  1  0.50170411  0.70774578  0.75452604  1
  Si  Si49  1  0.48637000  0.33438021  0.58520735  1
  Si  Si50  1  0.98444817  0.33279591  0.58659012  1
  Si  Si51  1  0.48463631  0.63634066  0.08579855  1
  Si  Si52  1  0.98337978  0.62791584  0.08639859  1
  Si  Si53  1  0.31436432  0.67313771  0.92160203  1
  Si  Si54  1  0.81457882  0.67324348  0.92147436  1
  Si  Si55  1  0.31530238  0.95732067  0.42277148  1
  Si  Si56  1  0.81578448  0.95838542  0.42047500  1
  Sn  Sn57  1  0.00802083  0.01328583  0.65006490  1
  Sn  Sn58  1  0.50957467  0.01608908  0.65030060  1
  Sn  Sn59  1  0.00473044  0.99380064  0.14908158  1
  Sn  Sn60  1  0.50800036  0.00255643  0.15071992  1
  Sn  Sn61  1  0.33352166  0.34663227  0.98410512  1
  Sn  Sn62  1  0.83406950  0.34411471  0.98300348  1
  Sn  Sn63  1  0.33819867  0.33105957  0.48434821  1
  Sn  Sn64  1  0.83670082  0.31886868  0.48202583  1
  Sn  Sn65  1  0.16765544  0.67271830  0.31924757  1
  Sn  Sn66  1  0.66985275  0.68161407  0.31547441  1
  Sn  Sn67  1  0.16655425  0.65783957  0.81763022  1
  Sn  Sn68  1  0.66642046  0.65797568  0.81785259  1
  S  S69  1  0.34888550  0.70545711  0.25135249  1
  S  S70  1  0.85274229  0.71013273  0.24991772  1
  S  S71  1  0.00371421  0.29540767  0.25144256  1
  S  S72  1  0.35149275  0.99491352  0.75030247  1
  S  S73  1  0.85136139  0.99493224  0.75075726  1
  S  S74  1  0.18433035  0.04154282  0.58462089  1
  S  S75  1  0.68477134  0.04146124  0.58557123  1
  S  S76  1  0.33558498  0.63084209  0.58496115  1
  S  S77  1  0.83574027  0.62790110  0.58417699  1
  S  S78  1  0.33520268  0.04243776  0.08497367  1
  S  S79  1  0.83720267  0.04351084  0.08491514  1
  S  S80  1  0.18466865  0.32661420  0.08672019  1
  S  S81  1  0.68334560  0.32792547  0.08493565  1
  S  S82  1  0.01597333  0.36619445  0.91894541  1
  S  S83  1  0.51543368  0.36582848  0.91896324  1
  S  S84  1  0.17214447  0.96864067  0.91868940  1
  S  S85  1  0.67225972  0.96870350  0.91859088  1
  S  S86  1  0.17036034  0.37619300  0.41900194  1
  S  S87  1  0.67294207  0.37631557  0.41823042  1
  S  S88  1  0.01562670  0.65895571  0.41809578  1
  S  S89  1  0.51721322  0.66700863  0.41799406  1
  O  O90  1  0.10039684  0.01476428  0.31659629  1
  O  O91  1  0.60476906  0.03822332  0.30774417  1
  O  O92  1  0.40093694  0.78865686  0.30281429  1
  O  O93  1  0.90708388  0.79918252  0.29957918  1
  O  O94  1  0.47948440  0.18127235  0.31353323  1
  O  O95  1  0.99420378  0.19465143  0.30403947  1
  O  O96  1  0.10104610  0.16944379  0.80882070  1
  O  O97  1  0.60069035  0.16883815  0.80879329  1
  O  O98  1  0.48026303  0.77739953  0.81395005  1
  O  O99  1  0.98103037  0.77834257  0.81387533  1
  O  O100  1  0.40492655  0.02191741  0.80150391  1
  O  O101  1  0.90497192  0.02184698  0.80185229  1
  O  O102  1  0.38762935  0.96117403  0.69404653  1
  O  O103  1  0.88734434  0.96081879  0.69450420  1
  O  O104  1  0.08407836  0.22530761  0.69361967  1
  O  O105  1  0.58398574  0.22802056  0.69396694  1
  O  O106  1  0.02233771  0.83711977  0.69522979  1
  O  O107  1  0.52147703  0.83660538  0.69533216  1
  O  O108  1  0.38484175  0.81345314  0.19501227  1
  O  O109  1  0.88665432  0.81235312  0.19194194  1
  O  O110  1  0.01420213  0.21766494  0.19470163  1
  O  O111  1  0.52070313  0.20612117  0.19541141  1
  O  O112  1  0.07970759  0.94798919  0.19908157  1
  O  O113  1  0.58750004  0.94993612  0.19256670  1
  O  O114  1  0.43801808  0.34364249  0.64502281  1
  O  O115  1  0.93967492  0.34383981  0.64786285  1
  O  O116  1  0.23364746  0.13166544  0.63655378  1
  O  O117  1  0.73110150  0.12610785  0.63934223  1
  O  O118  1  0.32491775  0.53155708  0.63927222  1
  O  O119  1  0.82603608  0.53358380  0.63977263  1
  O  O120  1  0.43643593  0.53084243  0.14557024  1
  O  O121  1  0.93625662  0.52280792  0.14707518  1
  O  O122  1  0.32539334  0.11956198  0.13954625  1
  O  O123  1  0.82594497  0.12261994  0.13778560  1
  O  O124  1  0.23497414  0.33492386  0.13765683  1
  O  O125  1  0.73144163  0.33964396  0.13819994  1
  O  O126  1  0.21887151  0.29199783  0.02935053  1
  O  O127  1  0.72345516  0.29759986  0.02986573  1
  O  O128  1  0.42102898  0.55241825  0.02624774  1
  O  O129  1  0.92010115  0.54514652  0.02735625  1
  O  O130  1  0.34331102  0.14599168  0.02980585  1
  O  O131  1  0.84711596  0.14422817  0.02864222  1
  O  O132  1  0.22333569  0.14583614  0.52721087  1
  O  O133  1  0.72456633  0.15008422  0.53044777  1
  O  O134  1  0.34409508  0.54429697  0.52958822  1
  O  O135  1  0.84403097  0.53962731  0.53017516  1
  O  O136  1  0.42217256  0.28975624  0.52585557  1
  O  O137  1  0.91705299  0.28613836  0.53054450  1
  O  O138  1  0.26434864  0.67617287  0.98123136  1
  O  O139  1  0.76451688  0.67715600  0.98088412  1
  O  O140  1  0.06666602  0.45539175  0.96988758  1
  O  O141  1  0.56673845  0.45498508  0.96964065  1
  O  O142  1  0.15926409  0.85386154  0.96846802  1
  O  O143  1  0.66013044  0.85498866  0.96841500  1
  O  O144  1  0.26320312  0.85079945  0.48138643  1
  O  O145  1  0.77032154  0.85707163  0.48193921  1
  O  O146  1  0.16031471  0.45953378  0.47041741  1
  O  O147  1  0.65902905  0.46445485  0.46776736  1
  O  O148  1  0.06991684  0.67324280  0.46728164  1
  O  O149  1  0.56640882  0.67844575  0.46992873  1
  O  O150  1  0.04992886  0.62391055  0.35971048  1
  O  O151  1  0.55242214  0.62633985  0.36205400  1
  O  O152  1  0.25476466  0.87984316  0.36146423  1
  O  O153  1  0.75558930  0.86855755  0.36171068  1
  O  O154  1  0.18104265  0.47493009  0.36132597  1
  O  O155  1  0.68305778  0.46964905  0.35965024  1
  O  O156  1  0.05133870  0.47777752  0.86223124  1
  O  O157  1  0.55063304  0.47745962  0.86212144  1
  O  O158  1  0.18325122  0.89575802  0.86015867  1
  O  O159  1  0.68345172  0.89634387  0.86006290  1
  O  O160  1  0.26039988  0.64759726  0.85873424  1
  O  O161  1  0.76041979  0.64779269  0.85880687  1
  O  O162  1  0.01181986  0.81633252  0.41311473  1
  O  O163  1  0.50601937  0.81399791  0.41066546  1
  O  O164  1  0.41230391  0.98979417  0.41696557  1
  O  O165  1  0.91156617  0.98405948  0.41121696  1
  O  O166  1  0.09784335  0.20002040  0.41502594  1
  O  O167  1  0.59788637  0.20245714  0.41602914  1
  O  O168  1  0.00687977  0.19880399  0.91170991  1
  O  O169  1  0.50625986  0.19827033  0.91148976  1
  O  O170  1  0.09712764  0.99172971  0.91590502  1
  O  O171  1  0.59740621  0.99222592  0.91596628  1
  O  O172  1  0.41177170  0.83718110  0.91657631  1
  O  O173  1  0.91202915  0.83750043  0.91646254  1
  O  O174  1  0.48465541  0.14367609  0.58640562  1
  O  O175  1  0.98411984  0.14331810  0.58688513  1
  O  O176  1  0.09585730  0.01893820  0.58399408  1
  O  O177  1  0.59540338  0.01718447  0.58450223  1
  O  O178  1  0.41692097  0.80290837  0.58539755  1
  O  O179  1  0.91719446  0.80239406  0.58469501  1
  O  O180  1  0.48369717  0.82501808  0.08685147  1
  O  O181  1  0.98362013  0.81775178  0.08656890  1
  O  O182  1  0.41671975  0.03195087  0.08520885  1
  O  O183  1  0.92028176  0.03544213  0.08708124  1
  O  O184  1  0.09375899  0.17503477  0.08857950  1
  O  O185  1  0.59473134  0.17417299  0.08444986  1
  O  O186  1  0.33710156  0.14060139  0.74411955  1
  O  O187  1  0.83703072  0.14063235  0.74476390  1
  O  O188  1  0.24262298  0.31345168  0.74229443  1
  O  O189  1  0.74253770  0.31392748  0.74250582  1
  O  O190  1  0.42221955  0.51365887  0.74735758  1
  O  O191  1  0.92177564  0.51420993  0.74751775  1
  O  O192  1  0.33774013  0.53492523  0.24515054  1
  O  O193  1  0.84529617  0.54061952  0.24528838  1
  O  O194  1  0.42284983  0.33372776  0.24694405  1
  O  O195  1  0.93075927  0.32651293  0.24759857  1
  O  O196  1  0.24348863  0.15970941  0.24528109  1
  O  O197  1  0.74466092  0.18025047  0.24153582  1
  O  O198  1  0.32524041  0.49481021  0.91993999  1
  O  O199  1  0.82633459  0.49587253  0.91997119  1
  O  O200  1  0.42716380  0.35131599  0.92235064  1
  O  O201  1  0.92765019  0.35165591  0.92169114  1
  O  O202  1  0.25439623  0.13909616  0.92288732  1
  O  O203  1  0.75476261  0.13962103  0.92257346  1
  O  O204  1  0.32013164  0.15389788  0.42126080  1
  O  O205  1  0.82222183  0.15206284  0.41942930  1
  O  O206  1  0.25272904  0.36572141  0.42089951  1
  O  O207  1  0.75524234  0.37080020  0.42314079  1
  O  O208  1  0.42799352  0.50275996  0.42094578  1
  O  O209  1  0.92642781  0.50816229  0.42187147  1
  O  O210  1  0.18027157  0.48395047  0.08189511  1
  O  O211  1  0.67894620  0.48499967  0.07951567  1
  O  O212  1  0.07848059  0.65406670  0.07636345  1
  O  O213  1  0.57944553  0.66044552  0.07559434  1
  O  O214  1  0.26185483  0.86667866  0.08110276  1
  O  O215  1  0.76544767  0.86683551  0.08103906  1
  O  O216  1  0.17979235  0.87527217  0.58083654  1
  O  O217  1  0.68001456  0.87485092  0.58091895  1
  O  O218  1  0.26216005  0.65920334  0.58077638  1
  O  O219  1  0.76221769  0.65686518  0.58054671  1
  O  O220  1  0.07853587  0.49853512  0.57577269  1
  O  O221  1  0.58013163  0.50042746  0.57425926  1
  O  O222  1  0.15256058  0.81738272  0.25651386  1
  O  O223  1  0.65578117  0.82670178  0.25440480  1
  O  O224  1  0.26105491  0.69312160  0.25542834  1
  O  O225  1  0.76326999  0.68162945  0.25400482  1
  O  O226  1  0.08565716  0.47215322  0.25358836  1
  O  O227  1  0.59472961  0.48526320  0.25853015  1
  O  O228  1  0.15977034  0.48924230  0.75578553  1
  O  O229  1  0.65997788  0.48991890  0.75616622  1
  O  O230  1  0.09440570  0.70306065  0.75815662  1
  O  O231  1  0.59445120  0.70360995  0.75824095  1
  O  O232  1  0.26428208  0.83451862  0.75500095  1
  O  O233  1  0.76417817  0.83459376  0.75536996  1
