# generated using pymatgen
data_Na4TaIn3Si3(SO8)3
_symmetry_space_group_name_H-M   'P 1'
_cell_length_a   9.08365859
_cell_length_b   9.08930800
_cell_length_c   23.00798407
_cell_angle_alpha   89.96702668
_cell_angle_beta   90.11032171
_cell_angle_gamma   119.85792091
_symmetry_Int_Tables_number   1
_chemical_formula_structural   Na4TaIn3Si3(SO8)3
_chemical_formula_sum   'Na12 Ta3 In9 Si9 S9 O72'
_cell_volume   1647.47930804
_cell_formula_units_Z   3
loop_
 _symmetry_equiv_pos_site_id
 _symmetry_equiv_pos_as_xyz
  1  'x, y, z'
loop_
 _atom_site_type_symbol
 _atom_site_label
 _atom_site_symmetry_multiplicity
 _atom_site_fract_x
 _atom_site_fract_y
 _atom_site_fract_z
 _atom_site_occupancy
  Na  Na0  1  0.63945912  0.00113179  0.25150462  1
  Na  Na1  1  0.36160269  0.36035563  0.25120414  1
  Na  Na2  1  0.99829134  0.63611055  0.25219279  1
  Na  Na3  1  0.30400942  0.34267092  0.58631338  1
  Na  Na4  1  0.66327165  0.96230601  0.58630624  1
  Na  Na5  1  0.29146084  0.95836329  0.08384112  1
  Na  Na6  1  0.00071834  0.98932355  0.50391583  1
  Na  Na7  1  0.98743439  0.00082016  0.98845932  1
  Na  Na8  1  0.66681670  0.33330846  0.82795670  1
  Na  Na9  1  0.66738910  0.33355793  0.32636936  1
  Na  Na10  1  0.33395273  0.65440267  0.17486654  1
  Na  Na11  1  0.31807550  0.66739745  0.65894034  1
  Ta  Ta12  1  0.66882048  0.33483396  0.97121467  1
  Ta  Ta13  1  0.66925577  0.33521930  0.48663817  1
  Ta  Ta14  1  0.33377931  0.66707189  0.82174471  1
  In  In15  1  0.99994322  0.00016919  0.34407131  1
  In  In16  1  0.00127413  0.99975994  0.85444950  1
  In  In17  1  0.00218857  0.99281065  0.64372016  1
  In  In18  1  0.99412835  0.00057084  0.15717165  1
  In  In19  1  0.66929507  0.33677825  0.67951484  1
  In  In20  1  0.66955685  0.33656627  0.18496701  1
  In  In21  1  0.33354399  0.66214571  0.01001543  1
  In  In22  1  0.32530047  0.66627193  0.51879362  1
  In  In23  1  0.33290377  0.66809157  0.31640569  1
  Si  Si24  1  0.29538979  -0.00003970  0.24709388  1
  Si  Si25  1  0.70391331  0.70454171  0.25052120  1
  Si  Si26  1  0.00118007  0.29574200  0.25031727  1
  Si  Si27  1  0.96126618  0.33458765  0.58603973  1
  Si  Si28  1  0.37677159  0.04177916  0.58488273  1
  Si  Si29  1  0.66568858  0.62611331  0.58407676  1
  Si  Si30  1  0.62818964  0.67015030  0.91889989  1
  Si  Si31  1  0.04193931  0.37217274  0.91842015  1
  Si  Si32  1  0.33116022  0.95807540  0.92121420  1
  S  S33  1  0.29738619  0.30296867  0.75073792  1
  S  S34  1  0.00579761  0.70376386  0.75152342  1
  S  S35  1  0.69667083  0.99433525  0.75087336  1
  S  S36  1  0.95772868  0.62398200  0.08067813  1
  S  S37  1  0.66719384  0.04409632  0.08073492  1
  S  S38  1  0.37811653  0.33512065  0.08076205  1
  S  S39  1  0.63454082  0.97154254  0.41832381  1
  S  S40  1  0.33716420  0.36504839  0.41806233  1
  S  S41  1  0.02793853  0.66310681  0.41713076  1
  O  O42  1  0.21876685  0.04995156  0.30250828  1
  O  O43  1  0.82816301  0.77533865  0.30681058  1
  O  O44  1  0.94755031  0.17247551  0.30682356  1
  O  O45  1  0.20884943  0.19429926  0.80085285  1
  O  O46  1  0.98526656  0.78855626  0.80280897  1
  O  O47  1  0.80562017  0.01317407  0.80089246  1
  O  O48  1  0.76700249  0.96903351  0.69563197  1
  O  O49  1  0.20144437  0.23133095  0.69546871  1
  O  O50  1  0.03171421  0.80335350  0.69753650  1
  O  O51  1  0.77021285  0.82432500  0.19232127  1
  O  O52  1  0.05626094  0.22953199  0.19237089  1
  O  O53  1  0.18540849  0.95487436  0.18556718  1
  O  O54  1  0.88931405  0.37164103  0.64426868  1
  O  O55  1  0.49270746  0.11255862  0.64235849  1
  O  O56  1  0.61464511  0.50695969  0.64086598  1
  O  O57  1  0.88262689  0.53411805  0.13574082  1
  O  O58  1  0.64651125  0.12030370  0.13524608  1
  O  O59  1  0.46891781  0.35006397  0.13610542  1
  O  O60  1  0.48045689  0.32334181  0.03103335  1
  O  O61  1  0.84915941  0.52300604  0.03033318  1
  O  O62  1  0.67738064  0.15448724  0.03025245  1
  O  O63  1  0.48175498  0.17099564  0.52768441  1
  O  O64  1  0.68929100  0.52175585  0.52708901  1
  O  O65  1  0.83353230  0.31246309  0.52849193  1
  O  O66  1  0.55720054  0.70295097  0.97773131  1
  O  O67  1  0.14296922  0.44400904  0.97768308  1
  O  O68  1  0.30466990  0.86330895  0.98264278  1
  O  O69  1  0.54780499  0.86699744  0.47009513  1
  O  O70  1  0.31963026  0.45127169  0.47014072  1
  O  O71  1  0.13580136  0.68211670  0.46782242  1
  O  O72  1  0.10113938  0.63763170  0.36274259  1
  O  O73  1  0.53319133  0.89558871  0.36446487  1
  O  O74  1  0.36082181  0.46625505  0.36449598  1
  O  O75  1  0.14073486  0.50464415  0.86222788  1
  O  O76  1  0.36348018  0.85526201  0.86576789  1
  O  O77  1  0.49484189  0.63437981  0.86249973  1
  O  O78  1  0.00839231  0.81505796  0.41491355  1
  O  O79  1  0.80563042  0.99054824  0.41547193  1
  O  O80  1  0.18591705  0.19357418  0.41503425  1
  O  O81  1  0.00216509  0.18405644  0.90650801  1
  O  O82  1  0.18110949  0.99501505  0.90822443  1
  O  O83  1  0.81580880  0.81798456  0.90661288  1
  O  O84  1  0.96002719  0.15360293  0.58563424  1
  O  O85  1  0.20121779  0.04862110  0.58459121  1
  O  O86  1  0.83400197  0.81209960  0.58473843  1
  O  O87  1  0.97135022  0.79469455  0.07947775  1
  O  O88  1  0.82310965  0.03131527  0.08103260  1
  O  O89  1  0.21254525  0.17185247  0.07980857  1
  O  O90  1  0.67447223  0.14582267  0.74914060  1
  O  O91  1  0.47108904  0.32475557  0.74883188  1
  O  O92  1  0.85424442  0.53086867  0.74847909  1
  O  O93  1  0.68028725  0.51522344  0.24345740  1
  O  O94  1  0.83522716  0.31915353  0.24293191  1
  O  O95  1  0.48550319  0.16485038  0.24194241  1
  O  O96  1  0.63283534  0.48738145  0.92637418  1
  O  O97  1  0.85428540  0.36743568  0.92545530  1
  O  O98  1  0.51341841  0.14591614  0.92695039  1
  O  O99  1  0.64867709  0.14425702  0.42405748  1
  O  O100  1  0.49606785  0.35110996  0.42366999  1
  O  O101  1  0.85656030  0.50483580  0.42389743  1
  O  O102  1  0.35649175  0.48476911  0.07710504  1
  O  O103  1  0.13197104  0.64609100  0.07808893  1
  O  O104  1  0.50903382  0.87530734  0.07749348  1
  O  O105  1  0.36479710  0.86084268  0.57427150  1
  O  O106  1  0.50027149  0.64626535  0.57246113  1
  O  O107  1  0.15295936  0.48742853  0.57585671  1
  O  O108  1  0.31289538  0.83071168  0.25640235  1
  O  O109  1  0.51530449  0.68337131  0.25862600  1
  O  O110  1  0.16760113  0.48429295  0.25858284  1
  O  O111  1  0.31171832  0.47602353  0.75826690  1
  O  O112  1  0.16442015  0.68839574  0.75856052  1
  O  O113  1  0.52264315  0.83638656  0.75880069  1
