# generated using pymatgen
data_Na7Sc2Ta2Si5PO24
_symmetry_space_group_name_H-M   'P 1'
_cell_length_a   9.12562759
_cell_length_b   9.12617130
_cell_length_c   22.65002990
_cell_angle_alpha   89.92901640
_cell_angle_beta   90.00436548
_cell_angle_gamma   119.95092614
_symmetry_Int_Tables_number   1
_chemical_formula_structural   Na7Sc2Ta2Si5PO24
_chemical_formula_sum   'Na21 Sc6 Ta6 Si15 P3 O72'
_cell_volume   1634.42462650
_cell_formula_units_Z   3
loop_
 _symmetry_equiv_pos_site_id
 _symmetry_equiv_pos_as_xyz
  1  'x, y, z'
loop_
 _atom_site_type_symbol
 _atom_site_label
 _atom_site_symmetry_multiplicity
 _atom_site_fract_x
 _atom_site_fract_y
 _atom_site_fract_z
 _atom_site_occupancy
  Na  Na0  1  0.64172909  0.01068297  0.24999436  1
  Na  Na1  1  0.37074285  0.36109539  0.24794187  1
  Na  Na2  1  0.98883172  0.62763634  0.24866647  1
  Na  Na3  1  0.63849622  0.62819361  0.74853345  1
  Na  Na4  1  0.98872151  0.35940708  0.74884910  1
  Na  Na5  1  0.37223868  0.01191518  0.74862957  1
  Na  Na6  1  0.30625635  0.34237096  0.58274923  1
  Na  Na7  1  0.03777730  0.69524992  0.58172380  1
  Na  Na8  1  0.65695999  0.96155319  0.58198778  1
  Na  Na9  1  0.30104649  0.96305879  0.08060237  1
  Na  Na10  1  0.04016669  0.34508286  0.08246117  1
  Na  Na11  1  0.97495210  0.67738328  0.91553581  1
  Na  Na12  1  0.32199481  0.29340349  0.91559478  1
  Na  Na13  1  0.32310868  0.02621897  0.41545498  1
  Na  Na14  1  0.70598005  0.67677696  0.41558033  1
  Na  Na15  1  0.99667540  0.00283856  0.49530529  1
  Na  Na16  1  0.99152425  0.99774327  0.99610641  1
  Na  Na17  1  0.66728481  0.32632848  0.82990116  1
  Na  Na18  1  0.67341780  0.33259770  0.33028313  1
  Na  Na19  1  0.33737615  0.66218692  0.16187210  1
  Na  Na20  1  0.33434230  0.66670169  0.66252653  1
  Sc  Sc21  1  0.99608738  0.00182068  0.35151860  1
  Sc  Sc22  1  0.99859925  0.00373825  0.85184529  1
  Sc  Sc23  1  0.66623974  0.33315718  0.68431585  1
  Sc  Sc24  1  0.66769165  0.33890509  0.18442684  1
  Sc  Sc25  1  0.33200362  0.66293744  0.01817971  1
  Sc  Sc26  1  0.33430644  0.67014388  0.51762412  1
  Ta  Ta27  1  0.99957266  0.99929546  0.64737402  1
  Ta  Ta28  1  0.00040741  0.99661944  0.14721229  1
  Ta  Ta29  1  0.66630031  0.33040895  0.98063671  1
  Ta  Ta30  1  0.67386550  0.33226574  0.48068098  1
  Ta  Ta31  1  0.33010569  0.66871833  0.31376665  1
  Ta  Ta32  1  0.33047969  0.66929033  0.81399764  1
  Si  Si33  1  0.29227037  0.00113502  0.25184045  1
  Si  Si34  1  0.70822760  0.70840430  0.25151184  1
  Si  Si35  1  -0.00027884  0.29071182  0.25005586  1
  Si  Si36  1  0.29254155  0.29244526  0.75152447  1
  Si  Si37  1  0.99889540  0.70805391  0.75196240  1
  Si  Si38  1  0.70776436  0.99968512  0.75097722  1
  Si  Si39  1  0.96112594  0.33348355  0.58522761  1
  Si  Si40  1  0.37474874  0.04197509  0.58382766  1
  Si  Si41  1  0.66624308  0.62476119  0.58393879  1
  Si  Si42  1  0.95742040  0.62696278  0.08388045  1
  Si  Si43  1  0.37516852  0.33699689  0.08453486  1
  Si  Si44  1  0.03833595  0.37117206  0.91816606  1
  Si  Si45  1  0.33559807  0.96008502  0.91870701  1
  Si  Si46  1  0.62853349  0.96141237  0.41787314  1
  Si  Si47  1  0.03889486  0.66508779  0.41802846  1
  P  P48  1  0.66734263  0.04201515  0.08433973  1
  P  P49  1  0.62319178  0.66680551  0.91760791  1
  P  P50  1  0.33275801  0.37531579  0.41758011  1
  O  O51  1  0.21027289  0.03385609  0.30913895  1
  O  O52  1  0.82427255  0.78920164  0.30885513  1
  O  O53  1  0.96611724  0.16953376  0.30531405  1
  O  O54  1  0.20918781  0.17513756  0.80843543  1
  O  O55  1  0.96786394  0.79135310  0.80924949  1
  O  O56  1  0.83074352  0.03357297  0.80549614  1
  O  O57  1  0.79849974  0.96385270  0.69134916  1
  O  O58  1  0.16439712  0.20054359  0.69243633  1
  O  O59  1  0.03599024  0.83533889  0.69270552  1
  O  O60  1  0.80370359  0.84038317  0.19413198  1
  O  O61  1  0.03516880  0.20063635  0.19065374  1
  O  O62  1  0.16383044  0.96390225  0.19290365  1
  O  O63  1  0.87881339  0.36803898  0.64235074  1
  O  O64  1  0.48988263  0.12339135  0.64156266  1
  O  O65  1  0.63381482  0.51052184  0.64192105  1
  O  O66  1  0.87739843  0.50861644  0.14129527  1
  O  O67  1  0.63829493  0.12101658  0.13960770  1
  O  O68  1  0.48257374  0.35416253  0.14283527  1
  O  O69  1  0.46903279  0.29997128  0.02629009  1
  O  O70  1  0.83319222  0.52779561  0.02534361  1
  O  O71  1  0.69862884  0.16608240  0.02951911  1
  O  O72  1  0.46691579  0.16982698  0.52529604  1
  O  O73  1  0.70074572  0.53156247  0.52551592  1
  O  O74  1  0.82812645  0.29792016  0.52772888  1
  O  O75  1  0.53778018  0.69003754  0.97100708  1
  O  O76  1  0.15625083  0.45967113  0.97489068  1
  O  O77  1  0.30466133  0.84342733  0.97566214  1
  O  O78  1  0.54174141  0.84447376  0.47513651  1
  O  O79  1  0.31048684  0.45737014  0.47286447  1
  O  O80  1  0.15561775  0.69648379  0.47515153  1
  O  O81  1  0.13519873  0.63602798  0.35893520  1
  O  O82  1  0.49793995  0.86353427  0.35940029  1
  O  O83  1  0.36362557  0.49460430  0.36168416  1
  O  O84  1  0.13540993  0.50181701  0.85949351  1
  O  O85  1  0.36442823  0.86443040  0.85913536  1
  O  O86  1  0.50648321  0.63374271  0.86073362  1
  O  O87  1  0.01997676  0.83176978  0.41157116  1
  O  O88  1  0.81046319  0.97509129  0.41163839  1
  O  O89  1  0.18400266  0.19556400  0.41094987  1
  O  O90  1  0.02509574  0.18948931  0.91177857  1
  O  O91  1  0.16948780  0.98011605  0.91172341  1
  O  O92  1  0.80434693  0.81408003  0.91082570  1
  O  O93  1  0.97039375  0.15570219  0.58934285  1
  O  O94  1  0.18568858  0.02953365  0.58946038  1
  O  O95  1  0.84327914  0.81350119  0.58943636  1
  O  O96  1  0.97582483  0.81826076  0.08970550  1
  O  O97  1  0.83678009  0.03655769  0.08858922  1
  O  O98  1  0.18424156  0.15735214  0.08938903  1
  O  O99  1  0.68140768  0.16158033  0.74461661  1
  O  O100  1  0.48021013  0.31733402  0.74482260  1
  O  O101  1  0.83827766  0.51979022  0.74499466  1
  O  O102  1  0.68300728  0.52026146  0.24460179  1
  O  O103  1  0.83694521  0.31611993  0.24365862  1
  O  O104  1  0.48159835  0.15925574  0.24365786  1
  O  O105  1  0.63394188  0.49690964  0.92292357  1
  O  O106  1  0.85381377  0.36805811  0.92385652  1
  O  O107  1  0.50678608  0.15312987  0.92399960  1
  O  O108  1  0.62880114  0.14475643  0.42292149  1
  O  O109  1  0.50237758  0.36590160  0.42161168  1
  O  O110  1  0.84601792  0.49400171  0.42298836  1
  O  O111  1  0.34232031  0.49413309  0.07854499  1
  O  O112  1  0.14736106  0.65427908  0.07773065  1
  O  O113  1  0.51040539  0.86914947  0.07560434  1
  O  O114  1  0.34937107  0.85350603  0.57787285  1
  O  O115  1  0.50274291  0.64882221  0.57742839  1
  O  O116  1  0.14841896  0.49457698  0.57701108  1
  O  O117  1  0.30321526  0.82235154  0.25657199  1
  O  O118  1  0.51810392  0.69334969  0.25762274  1
  O  O119  1  0.17723680  0.47944049  0.25705257  1
  O  O120  1  0.30617825  0.48190333  0.75755352  1
  O  O121  1  0.17748720  0.69650385  0.75673976  1
  O  O122  1  0.51990415  0.82182607  0.75704343  1
