# generated using pymatgen
data_MgFe2W2(ClO4)2
_symmetry_space_group_name_H-M   'P 1'
_cell_length_a   5.45826042
_cell_length_b   7.19323047
_cell_length_c   7.19323047
_cell_angle_alpha   87.18922699
_cell_angle_beta   88.91313579
_cell_angle_gamma   91.08686421
_symmetry_Int_Tables_number   1
_chemical_formula_structural   MgFe2W2(ClO4)2
_chemical_formula_sum   'Mg1 Fe2 W2 Cl2 O8'
_cell_volume   281.97787156
_cell_formula_units_Z   1
loop_
 _symmetry_equiv_pos_site_id
 _symmetry_equiv_pos_as_xyz
  1  'x, y, z'
loop_
 _atom_site_type_symbol
 _atom_site_label
 _atom_site_symmetry_multiplicity
 _atom_site_fract_x
 _atom_site_fract_y
 _atom_site_fract_z
 _atom_site_occupancy
  Mg  Mg0  1  0.89426900  0.03463100  0.46536900  1
  Fe  Fe1  1  0.25636700  0.26419600  0.23580400  1
  Fe  Fe2  1  0.72590700  0.73593700  0.76406300  1
  W  W3  1  0.00771900  0.25852000  0.76331200  1
  W  W4  1  0.00771900  0.73668800  0.24148000  1
  Cl  Cl5  1  0.30192500  0.76801400  0.73198600  1
  Cl  Cl6  1  0.69905100  0.24637000  0.25363000  1
  O  O7  1  0.15793200  0.24308700  0.53301400  1
  O  O8  1  0.15793200  0.96698600  0.25691300  1
  O  O9  1  0.81047800  0.04847100  0.74263700  1
  O  O10  1  0.81876200  0.45918700  0.76460600  1
  O  O11  1  0.81047800  0.75736300  0.45152900  1
  O  O12  1  0.21277700  0.54324300  0.25178900  1
  O  O13  1  0.21277700  0.24821100  0.95675700  1
  O  O14  1  0.81876200  0.73539400  0.04081300  1
