# generated using pymatgen
data_Na4MgZnSi(SO6)2
_symmetry_space_group_name_H-M   'P 1'
_cell_length_a   9.12382000
_cell_length_b   9.14317881
_cell_length_c   22.02433057
_cell_angle_alpha   90.36865276
_cell_angle_beta   90.26988260
_cell_angle_gamma   119.98825353
_symmetry_Int_Tables_number   1
_chemical_formula_structural   Na4MgZnSi(SO6)2
_chemical_formula_sum   'Na24 Mg6 Zn6 Si6 S12 O72'
_cell_volume   1591.22461031
_cell_formula_units_Z   6
loop_
 _symmetry_equiv_pos_site_id
 _symmetry_equiv_pos_as_xyz
  1  'x, y, z'
loop_
 _atom_site_type_symbol
 _atom_site_label
 _atom_site_symmetry_multiplicity
 _atom_site_fract_x
 _atom_site_fract_y
 _atom_site_fract_z
 _atom_site_occupancy
  Na  Na0  1  0.61681405  0.99781805  0.25740056  1
  Na  Na1  1  0.35983500  0.34314383  0.25247582  1
  Na  Na2  1  0.01182253  0.65027434  0.23816742  1
  Na  Na3  1  0.63662903  0.64701104  0.73876538  1
  Na  Na4  1  0.98868494  0.34917560  0.75347217  1
  Na  Na5  1  0.37965828  0.99761232  0.75619381  1
  Na  Na6  1  0.31733388  0.34518748  0.58619428  1
  Na  Na7  1  0.01848372  0.69291047  0.57882552  1
  Na  Na8  1  0.66683279  0.94899109  0.58426110  1
  Na  Na9  1  0.28164196  0.94968542  0.08510169  1
  Na  Na10  1  0.67399142  0.69255818  0.07883425  1
  Na  Na11  1  0.02831007  0.34549236  0.08584509  1
  Na  Na12  1  0.97747105  0.67732016  0.92624745  1
  Na  Na13  1  0.68862115  0.03302953  0.90742257  1
  Na  Na14  1  0.33310030  0.29266450  0.91669671  1
  Na  Na15  1  0.95601372  0.29168512  0.41799768  1
  Na  Na16  1  0.34706430  0.03063500  0.40608981  1
  Na  Na17  1  0.69801521  0.67783039  0.42695820  1
  Na  Na18  1  0.97413031  0.98510370  0.49969938  1
  Na  Na19  1  0.00882601  0.98545953  0.99891124  1
  Na  Na20  1  0.65857671  0.31172382  0.83444184  1
  Na  Na21  1  0.65183388  0.31036382  0.33437202  1
  Na  Na22  1  0.32043921  0.67844695  0.16621782  1
  Na  Na23  1  0.35531290  0.67540523  0.66646167  1
  Mg  Mg24  1  0.00527168  0.00196394  0.34869542  1
  Mg  Mg25  1  0.98189400  0.98534383  0.65015707  1
  Mg  Mg26  1  0.00339948  0.98516753  0.15018452  1
  Mg  Mg27  1  0.66507215  0.33069949  0.68292307  1
  Mg  Mg28  1  0.66628598  0.33055991  0.18309417  1
  Mg  Mg29  1  0.34219208  0.69068974  0.31767229  1
  Zn  Zn30  1  0.99910856  0.00186594  0.84603285  1
  Zn  Zn31  1  0.66235826  0.32988074  0.98722616  1
  Zn  Zn32  1  0.66667543  0.32942243  0.48687979  1
  Zn  Zn33  1  0.30607570  0.67909184  0.01335032  1
  Zn  Zn34  1  0.37171171  0.67819872  0.51274365  1
  Zn  Zn35  1  0.36029010  0.70397305  0.82045494  1
  Si  Si36  1  0.30142158  0.00181135  0.24988778  1
  Si  Si37  1  0.70339595  0.00279355  0.75009551  1
  Si  Si38  1  0.66791386  0.62472869  0.58275739  1
  Si  Si39  1  0.95673451  0.62510539  0.08330700  1
  Si  Si40  1  0.33241224  0.97810834  0.91714937  1
  Si  Si41  1  0.64271644  0.97626343  0.41729171  1
  S  S42  1  0.70155671  0.70238890  0.25017359  1
  S  S43  1  0.00098755  0.29414893  0.25001794  1
  S  S44  1  0.29647381  0.29472800  0.74902700  1
  S  S45  1  0.99883418  0.69928205  0.74923426  1
  S  S46  1  0.96832080  0.33384763  0.58432634  1
  S  S47  1  0.36306115  0.03507003  0.58458432  1
  S  S48  1  0.67198250  0.03520109  0.08469362  1
  S  S49  1  0.36558405  0.33411097  0.08433109  1
  S  S50  1  0.62376624  0.66296873  0.91771628  1
  S  S51  1  0.04287099  0.37262502  0.91527176  1
  S  S52  1  0.32686265  0.37137259  0.41461898  1
  S  S53  1  0.04104512  0.66666270  0.41624267  1
  O  O54  1  0.21564924  0.03389401  0.31031904  1
  O  O55  1  0.80703408  0.78726413  0.30505228  1
  O  O56  1  0.97725974  0.18940704  0.30457822  1
  O  O57  1  0.22227510  0.19454632  0.80504997  1
  O  O58  1  0.97740137  0.77746997  0.80545857  1
  O  O59  1  0.81990465  0.03454848  0.81196449  1
  O  O60  1  0.79195236  0.97603874  0.69056707  1
  O  O61  1  0.19186598  0.20490731  0.69468883  1
  O  O62  1  0.02657582  0.80880236  0.69577232  1
  O  O63  1  0.77733106  0.80880179  0.19568954  1
  O  O64  1  0.01786671  0.21023373  0.19467422  1
  O  O65  1  0.18557681  0.97587363  0.18976837  1
  O  O66  1  0.88064667  0.35115345  0.63848617  1
  O  O67  1  0.47584089  0.11832947  0.63809650  1
  O  O68  1  0.64133855  0.50885162  0.64218306  1
  O  O69  1  0.86840791  0.50972485  0.14292964  1
  O  O70  1  0.64313358  0.11844636  0.13779772  1
  O  O71  1  0.47121379  0.35177078  0.13853583  1
  O  O72  1  0.43639707  0.30025949  0.02868257  1
  O  O73  1  0.84297861  0.53618453  0.02135801  1
  O  O74  1  0.69428782  0.13156508  0.02808791  1
  O  O75  1  0.43709977  0.13181727  0.52828644  1
  O  O76  1  0.69341818  0.53650892  0.52082251  1
  O  O77  1  0.86331716  0.30038507  0.52854134  1
  O  O78  1  0.53798039  0.67793117  0.97289786  1
  O  O79  1  0.14557667  0.45208868  0.97162308  1
  O  O80  1  0.29516739  0.86192055  0.97736676  1
  O  O81  1  0.56569454  0.86290961  0.47855507  1
  O  O82  1  0.30124178  0.44660820  0.47133270  1
  O  O83  1  0.13888518  0.68388312  0.47283444  1
  O  O84  1  0.12649126  0.64572299  0.36221067  1
  O  O85  1  0.52120228  0.88909090  0.35821994  1
  O  O86  1  0.34168878  0.47615850  0.36101327  1
  O  O87  1  0.12956015  0.47279126  0.86049159  1
  O  O88  1  0.37106804  0.89878105  0.85680728  1
  O  O89  1  0.52040401  0.63871772  0.86171453  1
  O  O90  1  0.02550183  0.82237946  0.41214916  1
  O  O91  1  0.83191404  0.99471152  0.41055551  1
  O  O92  1  0.17548071  0.19878510  0.41098159  1
  O  O93  1  0.02171766  0.19990339  0.91415631  1
  O  O94  1  0.15904871  0.99341659  0.90953699  1
  O  O95  1  0.79364534  0.81992932  0.91537560  1
  O  O96  1  -0.00025164  0.18882134  0.58981823  1
  O  O97  1  0.19532275  0.02601708  0.59200460  1
  O  O98  1  0.83934933  0.81517230  0.58449974  1
  O  O99  1  0.97466907  0.81497024  0.08463546  1
  O  O100  1  0.83079357  0.02620900  0.09238468  1
  O  O101  1  0.18870986  0.18905708  0.08953573  1
  O  O102  1  0.68007878  0.17164487  0.74599545  1
  O  O103  1  0.47057190  0.31802562  0.74521555  1
  O  O104  1  0.84196141  0.53024292  0.74319896  1
  O  O105  1  0.69052427  0.53411952  0.24488382  1
  O  O106  1  0.84973445  0.31646528  0.24676267  1
  O  O107  1  0.49424903  0.17228817  0.24524708  1
  O  O108  1  0.64606319  0.51250006  0.91884477  1
  O  O109  1  0.87302007  0.35900855  0.91739439  1
  O  O110  1  0.50704754  0.16651101  0.92410661  1
  O  O111  1  0.65646929  0.16587851  0.42367997  1
  O  O112  1  0.48315809  0.35854105  0.41691396  1
  O  O113  1  0.86854355  0.51521306  0.41679632  1
  O  O114  1  0.36037031  0.49443342  0.07966734  1
  O  O115  1  0.14878991  0.64299958  0.08212077  1
  O  O116  1  0.52437480  0.85975454  0.08090388  1
  O  O117  1  0.33512400  0.85979384  0.58115070  1
  O  O118  1  0.49318936  0.64162477  0.58164868  1
  O  O119  1  0.13394279  0.49423606  0.57979732  1
  O  O120  1  0.31516614  0.82698185  0.25215954  1
  O  O121  1  0.52623571  0.67400911  0.25570472  1
  O  O122  1  0.15803093  0.46332922  0.25538500  1
  O  O123  1  0.30646434  0.46251686  0.75256071  1
  O  O124  1  0.14749797  0.67295213  0.75283398  1
  O  O125  1  0.51403969  0.82656694  0.75174199  1
