# generated using pymatgen
data_Na6Ta4Al4Si7S5O48
_symmetry_space_group_name_H-M   'P 1'
_cell_length_a   17.48080553
_cell_length_b   8.70992921
_cell_length_c   22.33614507
_cell_angle_alpha   89.85772329
_cell_angle_beta   90.34410400
_cell_angle_gamma   119.87788859
_symmetry_Int_Tables_number   1
_chemical_formula_structural   Na6Ta4Al4Si7S5O48
_chemical_formula_sum   'Na18 Ta12 Al12 Si21 S15 O144'
_cell_volume   2948.76448935
_cell_formula_units_Z   3
loop_
 _symmetry_equiv_pos_site_id
 _symmetry_equiv_pos_as_xyz
  1  'x, y, z'
loop_
 _atom_site_type_symbol
 _atom_site_label
 _atom_site_symmetry_multiplicity
 _atom_site_fract_x
 _atom_site_fract_y
 _atom_site_fract_z
 _atom_site_occupancy
  Na  Na0  1  0.99975698  0.61876464  0.25231332  1
  Na  Na1  1  0.50086989  0.64632896  0.25679358  1
  Na  Na2  1  0.99977304  0.35627574  0.75087550  1
  Na  Na3  1  0.49981301  0.37990330  0.74894851  1
  Na  Na4  1  0.33386455  0.97156212  0.58079891  1
  Na  Na5  1  0.83236331  0.69433395  0.08329637  1
  Na  Na6  1  0.99985750  0.98251186  0.50064024  1
  Na  Na7  1  0.50254033  0.00701058  0.49889234  1
  Na  Na8  1  0.99700238  0.99713796  0.00217066  1
  Na  Na9  1  0.50161942  0.01921917  0.00213688  1
  Na  Na10  1  0.33210921  0.35175069  0.82365955  1
  Na  Na11  1  0.82921503  0.33302679  0.83242627  1
  Na  Na12  1  0.33104469  0.32889643  0.33398707  1
  Na  Na13  1  0.82810133  0.31117750  0.32646503  1
  Na  Na14  1  0.17016620  0.66151591  0.17493162  1
  Na  Na15  1  0.66967762  0.66992485  0.16876414  1
  Na  Na16  1  0.16918091  0.66915229  0.66457210  1
  Na  Na17  1  0.66980594  0.67785069  0.66979965  1
  Ta  Ta18  1  0.99603499  0.00738825  0.35691317  1
  Ta  Ta19  1  0.50011266  0.98464163  0.35695622  1
  Ta  Ta20  1  0.99563360  0.01438214  0.85306461  1
  Ta  Ta21  1  0.49685464  0.98542487  0.85609879  1
  Ta  Ta22  1  0.99816419  0.00391146  0.64461593  1
  Ta  Ta23  1  0.49895073  0.99402367  0.14723673  1
  Ta  Ta24  1  0.34188490  0.33211232  0.97404492  1
  Ta  Ta25  1  0.83541183  0.35487711  0.97961972  1
  Ta  Ta26  1  0.33581820  0.31374902  0.47950709  1
  Ta  Ta27  1  0.83652634  0.35464992  0.47043059  1
  Ta  Ta28  1  0.16745360  0.66485227  0.02615533  1
  Ta  Ta29  1  0.66568656  0.65187015  0.52237811  1
  Al  Al30  1  0.50619328  0.99846829  0.64594764  1
  Al  Al31  1  0.00120811  0.00381383  0.15023003  1
  Al  Al32  1  0.33316998  0.34009898  0.68579335  1
  Al  Al33  1  0.82428810  0.32053179  0.68496231  1
  Al  Al34  1  0.32612659  0.32475534  0.18875779  1
  Al  Al35  1  0.83312498  0.32729958  0.18704638  1
  Al  Al36  1  0.67108123  0.63865640  0.01636814  1
  Al  Al37  1  0.17023978  0.70344451  0.51648988  1
  Al  Al38  1  0.16628288  0.65751197  0.31170987  1
  Al  Al39  1  0.66718742  0.68622827  0.31960528  1
  Al  Al40  1  0.16591352  0.63741704  0.81379735  1
  Al  Al41  1  0.66559370  0.67284684  0.81106225  1
  Si  Si42  1  0.65358384  0.00235813  0.25050800  1
  Si  Si43  1  0.34648529  0.69470294  0.24918222  1
  Si  Si44  1  0.00097219  0.29400684  0.24382065  1
  Si  Si45  1  0.15267291  0.29674009  0.74909054  1
  Si  Si46  1  0.50103262  0.70790492  0.74386755  1
  Si  Si47  1  0.84416533  0.99767824  0.74698078  1
  Si  Si48  1  0.47886548  0.32648723  0.59310537  1
  Si  Si49  1  0.19132978  0.04579456  0.58756981  1
  Si  Si50  1  0.83192386  0.61242073  0.58943117  1
  Si  Si51  1  0.97797762  0.63233961  0.09199723  1
  Si  Si52  1  0.33343806  0.05213162  0.08953323  1
  Si  Si53  1  0.69046147  0.33556988  0.08754971  1
  Si  Si54  1  0.30573083  0.66384143  0.91616944  1
  Si  Si55  1  0.80438709  0.67107077  0.91384442  1
  Si  Si56  1  0.02360222  0.38690806  0.91445374  1
  Si  Si57  1  0.53478637  0.39289637  0.91253965  1
  Si  Si58  1  0.30306183  0.93440611  0.41368107  1
  Si  Si59  1  0.80533732  0.94864537  0.41724973  1
  Si  Si60  1  0.66370739  0.38728438  0.40890232  1
  Si  Si61  1  0.03438587  0.67423150  0.41233012  1
  Si  Si62  1  0.52321822  0.65839847  0.41575800  1
  S  S63  1  0.14549727  0.00528575  0.24752601  1
  S  S64  1  0.85383195  0.71268110  0.24808274  1
  S  S65  1  0.49864683  0.29105584  0.24925665  1
  S  S66  1  0.64544499  0.28594527  0.74775553  1
  S  S67  1  0.00167904  0.70998354  0.75051396  1
  S  S68  1  0.35117246  0.99146302  0.74964676  1
  S  S69  1  0.97928651  0.34227093  0.58371462  1
  S  S70  1  0.68887870  0.04916629  0.58519098  1
  S  S71  1  0.33231109  0.62076239  0.58440684  1
  S  S72  1  0.47977798  0.61843841  0.08424246  1
  S  S73  1  0.83185261  0.04349840  0.08426083  1
  S  S74  1  0.18900380  0.32468048  0.08552669  1
  S  S75  1  0.16601922  0.94798521  0.91458521  1
  S  S76  1  0.66804817  0.94666611  0.91788594  1
  S  S77  1  0.16798150  0.38894839  0.41834452  1
  O  O78  1  0.10501996  0.03195542  0.30202861  1
  O  O79  1  0.59957148  0.02726656  0.30675003  1
  O  O80  1  0.41766877  0.79003163  0.30475455  1
  O  O81  1  0.91316762  0.80093688  0.30228509  1
  O  O82  1  0.48323522  0.18125074  0.30222504  1
  O  O83  1  0.98905126  0.16795289  0.30459966  1
  O  O84  1  0.09998282  0.16770432  0.80763220  1
  O  O85  1  0.60414979  0.17752342  0.80279538  1
  O  O86  1  0.48880490  0.80887032  0.80518843  1
  O  O87  1  0.98640658  0.79174551  0.80414425  1
  O  O88  1  0.41174603  0.02221166  0.80386289  1
  O  O89  1  0.91582779  0.04577168  0.80524083  1
  O  O90  1  0.39151035  0.96451797  0.69606864  1
  O  O91  1  0.89865832  0.97145434  0.69189952  1
  O  O92  1  0.08023974  0.19656595  0.69438198  1
  O  O93  1  0.58801370  0.20223944  0.69486423  1
  O  O94  1  0.01379372  0.81989651  0.69655330  1
  O  O95  1  0.51410394  0.84185265  0.69003828  1
  O  O96  1  0.39776132  0.82565828  0.19081368  1
  O  O97  1  0.89765923  0.82135740  0.19397550  1
  O  O98  1  0.01490703  0.18916240  0.18908196  1
  O  O99  1  0.51094261  0.20341100  0.19479645  1
  O  O100  1  0.08833391  0.97507220  0.19405847  1
  O  O101  1  0.58143687  0.96161281  0.19366480  1
  O  O102  1  0.43126133  0.35590795  0.64907003  1
  O  O103  1  0.93869028  0.36081592  0.63941097  1
  O  O104  1  0.25773365  0.14132658  0.64237347  1
  O  O105  1  0.74321577  0.12879283  0.63988703  1
  O  O106  1  0.32011849  0.51326421  0.63808161  1
  O  O107  1  0.82135417  0.49070915  0.64595972  1
  O  O108  1  0.43838516  0.51470787  0.13772124  1
  O  O109  1  0.93301699  0.50644712  0.14782926  1
  O  O110  1  0.32037457  0.15264840  0.14418851  1
  O  O111  1  0.82019101  0.12679989  0.13723232  1
  O  O112  1  0.24398179  0.35775499  0.13878751  1
  O  O113  1  0.75880911  0.37555753  0.14130452  1
  O  O114  1  0.23039472  0.30687875  0.03018028  1
  O  O115  1  0.73394091  0.30230435  0.02570757  1
  O  O116  1  0.42245550  0.53487670  0.02918013  1
  O  O117  1  0.91589143  0.54221958  0.02945986  1
  O  O118  1  0.34375831  0.16672523  0.02746800  1
  O  O119  1  0.84802798  0.15353556  0.02902951  1
  O  O120  1  0.23311695  0.16551735  0.52610414  1
  O  O121  1  0.73021991  0.15558801  0.53145002  1
  O  O122  1  0.34801327  0.54267328  0.52981675  1
  O  O123  1  0.84564455  0.52358706  0.52846796  1
  O  O124  1  0.41594329  0.28948278  0.53066329  1
  O  O125  1  0.92297550  0.31015219  0.53066310  1
  O  O126  1  0.26577324  0.70112618  0.97666996  1
  O  O127  1  0.77236601  0.70679283  0.97792836  1
  O  O128  1  0.08501446  0.48020190  0.97367547  1
  O  O129  1  0.58289148  0.47426089  0.97507148  1
  O  O130  1  0.15515568  0.84719650  0.97062927  1
  O  O131  1  0.65228716  0.84102890  0.97212881  1
  O  O132  1  0.27099406  0.83696806  0.47834294  1
  O  O133  1  0.76627750  0.83093746  0.47762836  1
  O  O134  1  0.15210362  0.46278622  0.47191112  1
  O  O135  1  0.65130787  0.46552250  0.47338836  1
  O  O136  1  0.08353070  0.69481655  0.47496253  1
  O  O137  1  0.58402367  0.69316035  0.47537873  1
  O  O138  1  0.06857152  0.63547754  0.35112733  1
  O  O139  1  0.56070616  0.62694273  0.35424671  1
  O  O140  1  0.24197662  0.84678856  0.35671839  1
  O  O141  1  0.75203917  0.87543487  0.35640965  1
  O  O142  1  0.17855904  0.48611625  0.36247016  1
  O  O143  1  0.68247831  0.51308141  0.35274375  1
  O  O144  1  0.06385650  0.50028970  0.85414603  1
  O  O145  1  0.56795746  0.50088479  0.85159214  1
  O  O146  1  0.18163347  0.87138887  0.86145509  1
  O  O147  1  0.67850311  0.87078516  0.86274502  1
  O  O148  1  0.25068118  0.63977491  0.85689215  1
  O  O149  1  0.74380662  0.64094126  0.85699974  1
  O  O150  1  0.01786165  0.84501706  0.40433193  1
  O  O151  1  0.51360149  0.83708265  0.41352479  1
  O  O152  1  0.40494845  0.97596628  0.40512025  1
  O  O153  1  0.90675390  0.97472038  0.41080208  1
  O  O154  1  0.08845774  0.20208875  0.41134618  1
  O  O155  1  0.57791978  0.19065423  0.40654490  1
  O  O156  1  0.01750925  0.19032681  0.91205300  1
  O  O157  1  0.51639686  0.18858758  0.90547687  1
  O  O158  1  0.08682096  0.96705285  0.91051470  1
  O  O159  1  0.58871890  0.97518932  0.91139680  1
  O  O160  1  0.40732150  0.83499119  0.91081880  1
  O  O161  1  0.90893336  0.83311094  0.90556672  1
  O  O162  1  0.48553364  0.14484792  0.59796056  1
  O  O163  1  0.98554524  0.17390571  0.58773116  1
  O  O164  1  0.09253131  0.02393132  0.59341996  1
  O  O165  1  0.60078076  0.03456666  0.59102335  1
  O  O166  1  0.41094309  0.80388168  0.59042197  1
  O  O167  1  0.91988909  0.81033237  0.59251603  1
  O  O168  1  0.48402603  0.79534668  0.08630383  1
  O  O169  1  0.98598267  0.82786542  0.09677055  1
  O  O170  1  0.41977485  0.02751957  0.09082328  1
  O  O171  1  0.91040274  0.01709346  0.08968302  1
  O  O172  1  0.10039471  0.16886388  0.09001667  1
  O  O173  1  0.59199392  0.15980343  0.09225198  1
  O  O174  1  0.34759607  0.15676930  0.74810902  1
  O  O175  1  0.84616606  0.18639557  0.73757273  1
  O  O176  1  0.24584666  0.31009565  0.74030470  1
  O  O177  1  0.73320022  0.29851644  0.74282516  1
  O  O178  1  0.41335511  0.51251809  0.74096985  1
  O  O179  1  0.92403024  0.53008782  0.74428055  1
  O  O180  1  0.34654985  0.50799621  0.23729868  1
  O  O181  1  0.84948368  0.53972481  0.24598888  1
  O  O182  1  0.42009307  0.31430895  0.24148674  1
  O  O183  1  0.91342091  0.31440807  0.24068010  1
  O  O184  1  0.23326517  0.16760424  0.24205872  1
  O  O185  1  0.74545894  0.17816903  0.23946660  1
  O  O186  1  0.31710616  0.48966924  0.92683451  1
  O  O187  1  0.81648888  0.49126718  0.92113745  1
  O  O188  1  0.42999804  0.35869836  0.92224680  1
  O  O189  1  0.92269353  0.34701906  0.92413592  1
  O  O190  1  0.24534587  0.13140940  0.92231674  1
  O  O191  1  0.74686364  0.12761043  0.92335809  1
  O  O192  1  0.31530484  0.13929309  0.42151439  1
  O  O193  1  0.82244804  0.14799673  0.42886356  1
  O  O194  1  0.24681325  0.36594546  0.42355200  1
  O  O195  1  0.75025545  0.36030518  0.42072571  1
  O  O196  1  0.42215652  0.49371444  0.42539601  1
  O  O197  1  0.93135872  0.50256765  0.42136848  1
  O  O198  1  0.18015190  0.48945306  0.08050687  1
  O  O199  1  0.68220397  0.51484017  0.07837274  1
  O  O200  1  0.07380412  0.64946647  0.07668456  1
  O  O201  1  0.56848825  0.64427476  0.07613280  1
  O  O202  1  0.24638848  0.85580652  0.07946053  1
  O  O203  1  0.75156170  0.86518558  0.07733787  1
  O  O204  1  0.18261080  0.84991407  0.57897488  1
  O  O205  1  0.67924510  0.87039657  0.58140347  1
  O  O206  1  0.25214337  0.63865406  0.57819915  1
  O  O207  1  0.74730568  0.64193636  0.58269359  1
  O  O208  1  0.06884574  0.49309383  0.57784864  1
  O  O209  1  0.57379332  0.50358042  0.58150153  1
  O  O210  1  0.15384579  0.84601282  0.25196409  1
  O  O211  1  0.65269484  0.81371091  0.25621205  1
  O  O212  1  0.25321612  0.68132771  0.25826228  1
  O  O213  1  0.76761069  0.69894855  0.25360928  1
  O  O214  1  0.08669820  0.48904838  0.25474192  1
  O  O215  1  0.57852512  0.46718082  0.25187007  1
  O  O216  1  0.15164109  0.48396827  0.75445850  1
  O  O217  1  0.65370255  0.46163170  0.75318930  1
  O  O218  1  0.08294635  0.69697444  0.75598583  1
  O  O219  1  0.58679168  0.68475014  0.75504932  1
  O  O220  1  0.26305208  0.83584007  0.75895617  1
  O  O221  1  0.75279513  0.82488663  0.75856997  1
