# generated using pymatgen
data_NaTi2Ga2P3(SO8)3
_symmetry_space_group_name_H-M   'P 1'
_cell_length_a   8.54725291
_cell_length_b   8.55615220
_cell_length_c   22.14107445
_cell_angle_alpha   89.95055599
_cell_angle_beta   89.97235318
_cell_angle_gamma   120.01901149
_symmetry_Int_Tables_number   1
_chemical_formula_structural   NaTi2Ga2P3(SO8)3
_chemical_formula_sum   'Na3 Ti6 Ga6 P9 S9 O72'
_cell_volume   1402.00881853
_cell_formula_units_Z   3
loop_
 _symmetry_equiv_pos_site_id
 _symmetry_equiv_pos_as_xyz
  1  'x, y, z'
loop_
 _atom_site_type_symbol
 _atom_site_label
 _atom_site_symmetry_multiplicity
 _atom_site_fract_x
 _atom_site_fract_y
 _atom_site_fract_z
 _atom_site_occupancy
  Na  Na0  1  0.67062851  0.33383755  0.83353736  1
  Na  Na1  1  0.66535452  0.33569941  0.33233867  1
  Na  Na2  1  0.33762485  0.66967875  0.16833724  1
  Ti  Ti3  1  0.00917485  0.99284658  0.35457191  1
  Ti  Ti4  1  0.99214439  0.00121407  0.85491872  1
  Ti  Ti5  1  0.99319515  0.98937938  0.64849599  1
  Ti  Ti6  1  0.99672623  0.99829043  0.14456902  1
  Ti  Ti7  1  0.33287296  0.65779068  0.02271059  1
  Ti  Ti8  1  0.32412887  0.65917547  0.51734435  1
  Ga  Ga9  1  0.67224733  0.33365273  0.68721736  1
  Ga  Ga10  1  0.65310814  0.32784299  0.18597506  1
  Ga  Ga11  1  0.66744795  0.32578603  0.98380154  1
  Ga  Ga12  1  0.66583118  0.33779071  0.47900178  1
  Ga  Ga13  1  0.33452966  0.66610012  0.31378922  1
  Ga  Ga14  1  0.32605756  0.66792678  0.81166916  1
  P  P15  1  0.29155187  0.99799446  0.24925561  1
  P  P16  1  0.70872222  0.70805136  0.25007708  1
  P  P17  1  0.00013679  0.70769007  0.75116665  1
  P  P18  1  0.70410801  0.99718577  0.75028924  1
  P  P19  1  0.66685269  0.04761636  0.08381675  1
  P  P20  1  0.38025545  0.32897788  0.08292628  1
  P  P21  1  0.04275897  0.38056186  0.91583548  1
  P  P22  1  0.33434899  0.37695465  0.41513226  1
  P  P23  1  0.04219542  0.66183218  0.41543150  1
  S  S24  1  0.99890107  0.28930079  0.25033420  1
  S  S25  1  0.29005796  0.29092790  0.74988902  1
  S  S26  1  0.95386405  0.33178407  0.58300449  1
  S  S27  1  0.37953185  0.04574155  0.58336677  1
  S  S28  1  0.66473956  0.62009734  0.58350678  1
  S  S29  1  0.95260683  0.62050538  0.08359550  1
  S  S30  1  0.62031484  0.66328773  0.91599762  1
  S  S31  1  0.33386027  0.95627707  0.91638189  1
  S  S32  1  0.62366002  0.95720486  0.41668197  1
  O  O33  1  0.20191825  0.03133656  0.30603475  1
  O  O34  1  0.83032050  0.80147506  0.30624241  1
  O  O35  1  0.96805927  0.17709550  0.30450892  1
  O  O36  1  0.20897397  0.17470089  0.80410846  1
  O  O37  1  0.96789595  0.80152761  0.80580566  1
  O  O38  1  0.83212778  0.03369656  0.80564148  1
  O  O39  1  0.80152633  0.97118509  0.69419948  1
  O  O40  1  0.17626724  0.20670978  0.69535887  1
  O  O41  1  0.02947208  0.83089816  0.69397208  1
  O  O42  1  0.79960808  0.83033752  0.19384525  1
  O  O43  1  0.03132654  0.20861920  0.19545766  1
  O  O44  1  0.16947402  0.96939166  0.19402786  1
  O  O45  1  0.87764300  0.36907990  0.63747400  1
  O  O46  1  0.49239898  0.12527606  0.63807509  1
  O  O47  1  0.63158353  0.50781583  0.63813851  1
  O  O48  1  0.87931038  0.50867715  0.13795867  1
  O  O49  1  0.63020122  0.12621145  0.14031734  1
  O  O50  1  0.49665911  0.37519933  0.13928348  1
  O  O51  1  0.46095010  0.30054719  0.02543827  1
  O  O52  1  0.84478609  0.54589365  0.02836779  1
  O  O53  1  0.70379437  0.15954197  0.02662292  1
  O  O54  1  0.45824262  0.15912561  0.52907876  1
  O  O55  1  0.70293582  0.54467789  0.52957419  1
  O  O56  1  0.84113036  0.29819523  0.52892237  1
  O  O57  1  0.54172739  0.69875644  0.97064853  1
  O  O58  1  0.16479690  0.46801414  0.97246094  1
  O  O59  1  0.30276555  0.84322098  0.97063969  1
  O  O60  1  0.53948846  0.84245852  0.47153267  1
  O  O61  1  0.30421672  0.46881533  0.47282635  1
  O  O62  1  0.16434819  0.69791898  0.47301475  1
  O  O63  1  0.12830124  0.63078438  0.36032226  1
  O  O64  1  0.50967111  0.88036890  0.36264065  1
  O  O65  1  0.37083118  0.49823135  0.36052172  1
  O  O66  1  0.12947555  0.49624839  0.85998819  1
  O  O67  1  0.36992561  0.87926051  0.86213088  1
  O  O68  1  0.50954507  0.63263221  0.86179914  1
  O  O69  1  0.02507692  0.83222049  0.40873940  1
  O  O70  1  0.80169593  0.97510117  0.40941874  1
  O  O71  1  0.16326435  0.19224110  0.40764258  1
  O  O72  1  0.02661478  0.19210517  0.90627688  1
  O  O73  1  0.17150595  0.97394301  0.90801761  1
  O  O74  1  0.80137494  0.82708291  0.90893419  1
  O  O75  1  0.97664526  0.17318255  0.59205967  1
  O  O76  1  0.19831098  0.02678962  0.59219645  1
  O  O77  1  0.82800758  0.80260505  0.59181488  1
  O  O78  1  0.97575054  0.80191760  0.09069362  1
  O  O79  1  0.83211328  0.02239356  0.09370621  1
  O  O80  1  0.18988515  0.16774046  0.09317496  1
  O  O81  1  0.69194609  0.16907221  0.74216732  1
  O  O82  1  0.46990045  0.30590016  0.74267839  1
  O  O83  1  0.82768462  0.52401543  0.74202298  1
  O  O84  1  0.69672390  0.52371212  0.24292067  1
  O  O85  1  0.83693176  0.30800845  0.24316436  1
  O  O86  1  0.47724330  0.16902525  0.24442883  1
  O  O87  1  0.64293201  0.50403059  0.92383388  1
  O  O88  1  0.85363359  0.35758363  0.92443233  1
  O  O89  1  0.49508724  0.13922793  0.92283506  1
  O  O90  1  0.64128771  0.13776570  0.42500671  1
  O  O91  1  0.50025813  0.35562776  0.42553719  1
  O  O92  1  0.85554733  0.49647709  0.42561152  1
  O  O93  1  0.35668031  0.50019791  0.07418210  1
  O  O94  1  0.13760411  0.64319186  0.07587924  1
  O  O95  1  0.49803762  0.85515404  0.07370880  1
  O  O96  1  0.35961347  0.86515325  0.57498282  1
  O  O97  1  0.50683971  0.64370094  0.57506895  1
  O  O98  1  0.13586154  0.49453541  0.57512176  1
  O  O99  1  0.30583582  0.82799125  0.25754064  1
  O  O100  1  0.52281871  0.69265669  0.25716628  1
  O  O101  1  0.16267061  0.46925041  0.25573280  1
  O  O102  1  0.30776583  0.46837876  0.75726621  1
  O  O103  1  0.16794969  0.69389073  0.75764070  1
  O  O104  1  0.52433023  0.82853482  0.75978121  1
