# generated using pymatgen
data_NaHfTi(PO4)3
_symmetry_space_group_name_H-M   'P 1'
_cell_length_a   8.73515935
_cell_length_b   8.73515907
_cell_length_c   22.62353772
_cell_angle_alpha   90.00000000
_cell_angle_beta   90.00000000
_cell_angle_gamma   120.00000103
_symmetry_Int_Tables_number   1
_chemical_formula_structural   NaHfTi(PO4)3
_chemical_formula_sum   'Na6 Hf6 Ti6 P18 O72'
_cell_volume   1494.97109267
_cell_formula_units_Z   6
loop_
 _symmetry_equiv_pos_site_id
 _symmetry_equiv_pos_as_xyz
  1  'x, y, z'
loop_
 _atom_site_type_symbol
 _atom_site_label
 _atom_site_symmetry_multiplicity
 _atom_site_fract_x
 _atom_site_fract_y
 _atom_site_fract_z
 _atom_site_occupancy
  Na  Na0  1  -0.00000000  0.00000000  0.50354776  1
  Na  Na1  1  -0.00000000  0.00000000  0.00268557  1
  Na  Na2  1  0.66666700  0.33333300  0.83061531  1
  Na  Na3  1  0.66666700  0.33333300  0.33670333  1
  Na  Na4  1  0.33333300  0.66666700  0.16965736  1
  Na  Na5  1  0.33333300  0.66666700  0.66292030  1
  Hf  Hf6  1  -0.00000000  0.00000000  0.35762005  1
  Hf  Hf7  1  -0.00000000  0.00000000  0.85175391  1
  Hf  Hf8  1  0.66666700  0.33333300  0.18892735  1
  Hf  Hf9  1  0.66666700  0.33333300  0.98119316  1
  Hf  Hf10  1  0.33333300  0.66666700  0.02142146  1
  Hf  Hf11  1  0.33333300  0.66666700  0.80925807  1
  Ti  Ti12  1  -0.00000000  0.00000000  0.64474593  1
  Ti  Ti13  1  -0.00000000  0.00000000  0.14903231  1
  Ti  Ti14  1  0.66666700  0.33333300  0.68399744  1
  Ti  Ti15  1  0.66666700  0.33333300  0.48077266  1
  Ti  Ti16  1  0.33333300  0.66666700  0.52124289  1
  Ti  Ti17  1  0.33333300  0.66666700  0.31373742  1
  P  P18  1  0.28392526  0.99232902  0.25112765  1
  P  P19  1  0.70840376  0.71607474  0.25112765  1
  P  P20  1  0.00767098  0.29159624  0.25112765  1
  P  P21  1  0.29177526  0.28512010  0.74539844  1
  P  P22  1  0.99334484  0.70822474  0.74539844  1
  P  P23  1  0.71487990  0.00665516  0.74539844  1
  P  P24  1  0.95298960  0.33307256  0.58258715  1
  P  P25  1  0.38008396  0.04701040  0.58258715  1
  P  P26  1  0.66692744  0.61991604  0.58258715  1
  P  P27  1  0.95786517  0.63215252  0.08538730  1
  P  P28  1  0.67428835  0.04213483  0.08538730  1
  P  P29  1  0.36784748  0.32571165  0.08538730  1
  P  P30  1  0.62393292  0.66608244  0.91573082  1
  P  P31  1  0.04214852  0.37606708  0.91573082  1
  P  P32  1  0.33391756  0.95785148  0.91573082  1
  P  P33  1  0.61138863  0.95235277  0.41856468  1
  P  P34  1  0.34096315  0.38861137  0.41856468  1
  P  P35  1  0.04764723  0.65903685  0.41856468  1
  O  O36  1  0.19944052  0.02060603  0.30642278  1
  O  O37  1  0.82116551  0.80055948  0.30642278  1
  O  O38  1  0.97939397  0.17883449  0.30642278  1
  O  O39  1  0.21021189  0.17682548  0.80242628  1
  O  O40  1  0.96661359  0.78978811  0.80242628  1
  O  O41  1  0.82317452  0.03338641  0.80242628  1
  O  O42  1  0.80970404  0.98210095  0.69166844  1
  O  O43  1  0.17239691  0.19029596  0.69166844  1
  O  O44  1  0.01789905  0.82760309  0.69166844  1
  O  O45  1  0.80051101  0.83041205  0.19557604  1
  O  O46  1  0.02990104  0.19948899  0.19557604  1
  O  O47  1  0.16958795  0.97009896  0.19557604  1
  O  O48  1  0.86506163  0.36209156  0.63772099  1
  O  O49  1  0.49703093  0.13493837  0.63772099  1
  O  O50  1  0.63790844  0.50296907  0.63772099  1
  O  O51  1  0.86874243  0.51518113  0.13941339  1
  O  O52  1  0.64643970  0.13125757  0.13941339  1
  O  O53  1  0.48481887  0.35356030  0.13941339  1
  O  O54  1  0.45525150  0.30066782  0.02953851  1
  O  O55  1  0.84541732  0.54474850  0.02953851  1
  O  O56  1  0.69933218  0.15458268  0.02953851  1
  O  O57  1  0.46914419  0.16465299  0.52746360  1
  O  O58  1  0.69550979  0.53085581  0.52746360  1
  O  O59  1  0.83534701  0.30449021  0.52746360  1
  O  O60  1  0.53519806  0.68791218  0.97161369  1
  O  O61  1  0.15271311  0.46480194  0.97161369  1
  O  O62  1  0.31208782  0.84728689  0.97161369  1
  O  O63  1  0.52265621  0.83758846  0.47387855  1
  O  O64  1  0.31493126  0.47734379  0.47387855  1
  O  O65  1  0.16241154  0.68506874  0.47387855  1
  O  O66  1  0.13573101  0.63628781  0.36198785  1
  O  O67  1  0.50055580  0.86426899  0.36198785  1
  O  O68  1  0.36371219  0.49944420  0.36198785  1
  O  O69  1  0.13277703  0.48711389  0.86026630  1
  O  O70  1  0.35433586  0.86722297  0.86026630  1
  O  O71  1  0.51288611  0.64566414  0.86026630  1
  O  O72  1  0.02882967  0.82556304  0.41359456  1
  O  O73  1  0.79673336  0.97117033  0.41359456  1
  O  O74  1  0.17443696  0.20326664  0.41359456  1
  O  O75  1  0.02358004  0.19242828  0.91033187  1
  O  O76  1  0.16884824  0.97641996  0.91033187  1
  O  O77  1  0.80757172  0.83115176  0.91033187  1
  O  O78  1  0.97187246  0.16689847  0.58958312  1
  O  O79  1  0.19502601  0.02812754  0.58958312  1
  O  O80  1  0.83310153  0.80497399  0.58958312  1
  O  O81  1  0.97533130  0.81530980  0.09294828  1
  O  O82  1  0.83997850  0.02466870  0.09294828  1
  O  O83  1  0.18469020  0.16002150  0.09294828  1
  O  O84  1  0.69493026  0.17093306  0.73812197  1
  O  O85  1  0.47600380  0.30506974  0.73812197  1
  O  O86  1  0.82906694  0.52399620  0.73812197  1
  O  O87  1  0.68548874  0.52980391  0.24508091  1
  O  O88  1  0.84431618  0.31451126  0.24508091  1
  O  O89  1  0.47019609  0.15568382  0.24508091  1
  O  O90  1  0.64208793  0.50065682  0.92152183  1
  O  O91  1  0.85856989  0.35791207  0.92152183  1
  O  O92  1  0.49934318  0.14143011  0.92152183  1
  O  O93  1  0.62919079  0.13652922  0.42515092  1
  O  O94  1  0.50733944  0.37080921  0.42515092  1
  O  O95  1  0.86347078  0.49266056  0.42515092  1
  O  O96  1  0.34639728  0.49001145  0.07936940  1
  O  O97  1  0.14361317  0.65360272  0.07936940  1
  O  O98  1  0.50998855  0.85638683  0.07936940  1
  O  O99  1  0.36079212  0.86170852  0.57575403  1
  O  O100  1  0.50091540  0.63920788  0.57575403  1
  O  O101  1  0.13829148  0.49908460  0.57575403  1
  O  O102  1  0.29949237  0.82446746  0.25774842  1
  O  O103  1  0.52497410  0.70050763  0.25774842  1
  O  O104  1  0.17553254  0.47502590  0.25774842  1
  O  O105  1  0.30933359  0.46980942  0.75074482  1
  O  O106  1  0.16047483  0.69066641  0.75074482  1
  O  O107  1  0.53019058  0.83952517  0.75074482  1
