# generated using pymatgen
data_Na10Ta4Ga4Si9(SO16)3
_symmetry_space_group_name_H-M   'P 1'
_cell_length_a   17.85168150
_cell_length_b   8.89176961
_cell_length_c   22.33798041
_cell_angle_alpha   89.98180690
_cell_angle_beta   90.69189570
_cell_angle_gamma   119.76801354
_symmetry_Int_Tables_number   1
_chemical_formula_structural   Na10Ta4Ga4Si9(SO16)3
_chemical_formula_sum   'Na30 Ta12 Ga12 Si27 S9 O144'
_cell_volume   3077.59451469
_cell_formula_units_Z   3
loop_
 _symmetry_equiv_pos_site_id
 _symmetry_equiv_pos_as_xyz
  1  'x, y, z'
loop_
 _atom_site_type_symbol
 _atom_site_label
 _atom_site_symmetry_multiplicity
 _atom_site_fract_x
 _atom_site_fract_y
 _atom_site_fract_z
 _atom_site_occupancy
  Na  Na0  1  0.18675489  0.36513487  0.24417521  1
  Na  Na1  1  0.68671995  0.36586873  0.24381612  1
  Na  Na2  1  0.18733357  0.00855995  0.74348517  1
  Na  Na3  1  0.68531763  0.00533686  0.74383993  1
  Na  Na4  1  0.65159351  0.34050160  0.58032316  1
  Na  Na5  1  0.02144282  0.70288766  0.57682662  1
  Na  Na6  1  0.51916845  0.69266000  0.58026638  1
  Na  Na7  1  0.32696458  0.96874883  0.58434722  1
  Na  Na8  1  0.15227783  0.96318084  0.08016244  1
  Na  Na9  1  0.65221448  0.96295858  0.08008107  1
  Na  Na10  1  0.32783319  0.69008216  0.08261682  1
  Na  Na11  1  0.82788944  0.69036183  0.08257204  1
  Na  Na12  1  0.02016683  0.34597585  0.08036309  1
  Na  Na13  1  0.52010038  0.34608101  0.08031677  1
  Na  Na14  1  0.48759502  0.67288649  0.91395393  1
  Na  Na15  1  0.98763853  0.67298546  0.91459993  1
  Na  Na16  1  0.35235501  0.66798310  0.41064944  1
  Na  Na17  1  0.85275991  0.67378932  0.41041278  1
  Na  Na18  1  0.01153294  0.01901721  0.49325650  1
  Na  Na19  1  0.50969055  0.01071832  0.49240347  1
  Na  Na20  1  0.00591569  0.01773969  0.99183101  1
  Na  Na21  1  0.50596459  0.01770089  0.99180837  1
  Na  Na22  1  0.33996752  0.33159573  0.82674652  1
  Na  Na23  1  0.83968906  0.33013164  0.82818049  1
  Na  Na24  1  0.34327577  0.33775606  0.32788632  1
  Na  Na25  1  0.84418936  0.33633345  0.32604866  1
  Na  Na26  1  0.16779094  0.67246792  0.16257247  1
  Na  Na27  1  0.66785232  0.67236735  0.16238473  1
  Na  Na28  1  0.17279142  0.65985499  0.66248926  1
  Na  Na29  1  0.67293638  0.67317709  0.66026624  1
  Ta  Ta30  1  0.99575789  0.98882663  0.64627507  1
  Ta  Ta31  1  0.49438971  0.98649514  0.64414501  1
  Ta  Ta32  1  0.99605387  0.00107420  0.14582692  1
  Ta  Ta33  1  0.49585304  0.00115694  0.14576383  1
  Ta  Ta34  1  0.33325268  0.32347402  0.97868644  1
  Ta  Ta35  1  0.83321830  0.32352726  0.97882930  1
  Ta  Ta36  1  0.33282622  0.33688807  0.47990473  1
  Ta  Ta37  1  0.82994899  0.33908404  0.47719189  1
  Ta  Ta38  1  0.16141869  0.64980999  0.31198684  1
  Ta  Ta39  1  0.66154668  0.65263034  0.31192654  1
  Ta  Ta40  1  0.16344700  0.67444331  0.81187641  1
  Ta  Ta41  1  0.66302701  0.67472484  0.81171903  1
  Ga  Ga42  1  0.00146463  0.00139762  0.35292768  1
  Ga  Ga43  1  0.50101333  0.99935264  0.35246754  1
  Ga  Ga44  1  0.99965308  0.00711757  0.85214179  1
  Ga  Ga45  1  0.49965006  0.00633865  0.85220338  1
  Ga  Ga46  1  0.34244788  0.33823928  0.68352141  1
  Ga  Ga47  1  0.83542009  0.33337530  0.68631941  1
  Ga  Ga48  1  0.34308781  0.34839349  0.18387755  1
  Ga  Ga49  1  0.84307545  0.34845870  0.18363353  1
  Ga  Ga50  1  0.15883448  0.66174399  0.01983637  1
  Ga  Ga51  1  0.65880488  0.66165034  0.01978465  1
  Ga  Ga52  1  0.16524099  0.66270877  0.51720960  1
  Ga  Ga53  1  0.66046585  0.65957394  0.52194223  1
  Si  Si54  1  0.35602664  0.70782510  0.25335719  1
  Si  Si55  1  0.85641598  0.70849188  0.25367537  1
  Si  Si56  1  0.99149262  0.27968101  0.25234165  1
  Si  Si57  1  0.49157397  0.27984205  0.25260734  1
  Si  Si58  1  0.99183966  0.70134012  0.75302382  1
  Si  Si59  1  0.49111036  0.70185280  0.75316506  1
  Si  Si60  1  0.35710656  0.00561173  0.75236147  1
  Si  Si61  1  0.85703443  0.00582633  0.75250214  1
  Si  Si62  1  0.47930892  0.33589500  0.58401030  1
  Si  Si63  1  0.18898345  0.04627955  0.58522519  1
  Si  Si64  1  0.69273394  0.04189625  0.58624358  1
  Si  Si65  1  0.32391739  0.60879390  0.58559824  1
  Si  Si66  1  0.82966456  0.61956938  0.58524547  1
  Si  Si67  1  0.47902779  0.62223813  0.08294657  1
  Si  Si68  1  0.97909996  0.62237818  0.08293547  1
  Si  Si69  1  0.32867798  0.04227018  0.08597540  1
  Si  Si70  1  0.82875033  0.04215534  0.08601158  1
  Si  Si71  1  0.19126239  0.33668354  0.08542799  1
  Si  Si72  1  0.69124487  0.33671477  0.08549484  1
  Si  Si73  1  0.02317674  0.36907969  0.91798728  1
  Si  Si74  1  0.52328230  0.36901358  0.91797392  1
  Si  Si75  1  0.16396027  0.95995773  0.91828614  1
  Si  Si76  1  0.66409276  0.96003811  0.91842979  1
  Si  Si77  1  0.16066429  0.36601464  0.41900334  1
  Si  Si78  1  0.65860872  0.36773747  0.41871379  1
  Si  Si79  1  0.02392635  0.67340578  0.41941106  1
  Si  Si80  1  0.52290141  0.67302440  0.41904839  1
  S  S81  1  0.14515640  0.99798968  0.25115809  1
  S  S82  1  0.64538842  -0.00147944  0.25099660  1
  S  S83  1  0.14409592  0.28982730  0.75102588  1
  S  S84  1  0.64508918  0.29171175  0.75087682  1
  S  S85  1  0.97771547  0.33142345  0.58400183  1
  S  S86  1  0.31006719  0.66637106  0.91805215  1
  S  S87  1  0.81034321  0.66671482  0.91793185  1
  S  S88  1  0.31065228  0.95806565  0.41691825  1
  S  S89  1  0.80986706  0.95520850  0.41803600  1
  O  O90  1  0.10351069  0.02317104  0.30353431  1
  O  O91  1  0.60374143  0.02347173  0.30362925  1
  O  O92  1  0.41295894  0.79754560  0.31254670  1
  O  O93  1  0.91332305  0.79796995  0.31298125  1
  O  O94  1  0.48872407  0.16737316  0.30890288  1
  O  O95  1  0.98811964  0.16711590  0.30865406  1
  O  O96  1  0.10479951  0.18162265  0.80394824  1
  O  O97  1  0.60528910  0.18178014  0.80337306  1
  O  O98  1  0.48851825  0.80184739  0.81248400  1
  O  O99  1  0.98616472  0.79788728  0.81199435  1
  O  O100  1  0.41757519  0.03176843  0.80884049  1
  O  O101  1  0.91703806  0.03265522  0.80932607  1
  O  O102  1  0.40236022  0.97604689  0.69088619  1
  O  O103  1  0.90504669  0.97903356  0.69239138  1
  O  O104  1  0.08877687  0.20978017  0.69602525  1
  O  O105  1  0.59203230  0.21414039  0.69498848  1
  O  O106  1  0.01627813  0.83449365  0.69357619  1
  O  O107  1  0.51670973  0.83430251  0.69380871  1
  O  O108  1  0.40383951  0.83082991  0.19301564  1
  O  O109  1  0.90400900  0.83089600  0.19320923  1
  O  O110  1  0.01729310  0.20218154  0.19187390  1
  O  O111  1  0.51746985  0.20220782  0.19211571  1
  O  O112  1  0.09132564  0.96932837  0.19495248  1
  O  O113  1  0.59143126  0.96934056  0.19497509  1
  O  O114  1  0.43859409  0.37586687  0.64072811  1
  O  O115  1  0.93905957  0.36065010  0.63727762  1
  O  O116  1  0.24857946  0.12601141  0.64454852  1
  O  O117  1  0.74665524  0.13220742  0.64655127  1
  O  O118  1  0.31322053  0.49488479  0.64274600  1
  O  O119  1  0.81682205  0.49429470  0.64025929  1
  O  O120  1  0.43803254  0.49860838  0.13914355  1
  O  O121  1  0.93805733  0.49879065  0.13912587  1
  O  O122  1  0.30935717  0.12983605  0.14142289  1
  O  O123  1  0.80932577  0.12981622  0.14138399  1
  O  O124  1  0.24873019  0.36984849  0.14550085  1
  O  O125  1  0.74873620  0.36995725  0.14557215  1
  O  O126  1  0.23730801  0.29874154  0.02756577  1
  O  O127  1  0.73731490  0.29878023  0.02765548  1
  O  O128  1  0.41662696  0.54233566  0.02247628  1
  O  O129  1  0.91671441  0.54232403  0.02245983  1
  O  O130  1  0.35343113  0.17095680  0.02629625  1
  O  O131  1  0.85344483  0.17096423  0.02633539  1
  O  O132  1  0.23664050  0.16768546  0.52605192  1
  O  O133  1  0.74066164  0.17415912  0.52829687  1
  O  O134  1  0.34943208  0.53509209  0.52479946  1
  O  O135  1  0.85289243  0.53694946  0.52458414  1
  O  O136  1  0.41447240  0.29282592  0.52507748  1
  O  O137  1  0.92396385  0.30310724  0.52914740  1
  O  O138  1  0.27127356  0.68747802  0.97283444  1
  O  O139  1  0.77143388  0.68745280  0.97286001  1
  O  O140  1  0.07738693  0.45731934  0.97903261  1
  O  O141  1  0.57742489  0.45689935  0.97908894  1
  O  O142  1  0.14979646  0.84007158  0.97639458  1
  O  O143  1  0.65017243  0.84026843  0.97652022  1
  O  O144  1  0.27294173  0.85681042  0.47215603  1
  O  O145  1  0.77001777  0.84768210  0.47074671  1
  O  O146  1  0.15321421  0.47023565  0.47505115  1
  O  O147  1  0.65441762  0.46490411  0.47767416  1
  O  O148  1  0.07862556  0.69693980  0.48023960  1
  O  O149  1  0.57941324  0.70007155  0.47883548  1
  O  O150  1  0.07385717  0.64767727  0.36115204  1
  O  O151  1  0.57376349  0.64836812  0.36052328  1
  O  O152  1  0.25591724  0.87036715  0.36330947  1
  O  O153  1  0.75667144  0.87798832  0.36255690  1
  O  O154  1  0.18237170  0.49650384  0.35836828  1
  O  O155  1  0.68345203  0.49971863  0.35931554  1
  O  O156  1  0.07315482  0.50351966  0.86098131  1
  O  O157  1  0.57347039  0.50363401  0.86111629  1
  O  O158  1  0.18072586  0.86671576  0.85834344  1
  O  O159  1  0.68097875  0.86744014  0.85844469  1
  O  O160  1  0.25610999  0.64349853  0.86383607  1
  O  O161  1  0.75638058  0.64364441  0.86375309  1
  O  O162  1  0.00365477  0.83144113  0.41189196  1
  O  O163  1  0.50417149  0.83363522  0.41102522  1
  O  O164  1  0.39673288  0.97442770  0.41242625  1
  O  O165  1  0.89640309  0.97440527  0.41270668  1
  O  O166  1  0.07847567  0.17703837  0.40939834  1
  O  O167  1  0.57888523  0.17694997  0.40913546  1
  O  O168  1  0.00967773  0.17809805  0.91015532  1
  O  O169  1  0.50972635  0.17794220  0.90992576  1
  O  O170  1  0.07657493  0.97036416  0.90917717  1
  O  O171  1  0.57682978  0.97114109  0.90987140  1
  O  O172  1  0.39806823  0.81596142  0.91354196  1
  O  O173  1  0.89820372  0.81596416  0.91353050  1
  O  O174  1  0.48822260  0.15918534  0.58984120  1
  O  O175  1  0.98743603  0.17459190  0.58925925  1
  O  O176  1  0.09161791  0.02770805  0.59106683  1
  O  O177  1  0.59571856  0.03121634  0.59089143  1
  O  O178  1  0.41692070  0.80521194  0.59034177  1
  O  O179  1  0.92079505  0.81091215  0.59022862  1
  O  O180  1  0.48834578  0.81661867  0.09051279  1
  O  O181  1  0.98824866  0.81653434  0.09042841  1
  O  O182  1  0.41901323  0.02912747  0.09075462  1
  O  O183  1  0.91899116  0.02888911  0.09080941  1
  O  O184  1  0.09464247  0.15861602  0.09103885  1
  O  O185  1  0.59467346  0.15865847  0.09111428  1
  O  O186  1  0.33596760  0.16210840  0.74486829  1
  O  O187  1  0.83708031  0.16444875  0.74441613  1
  O  O188  1  0.22922732  0.30684282  0.74485916  1
  O  O189  1  0.73110468  0.30924115  0.74584193  1
  O  O190  1  0.40915660  0.51328443  0.74542854  1
  O  O191  1  0.91151434  0.51132358  0.74218083  1
  O  O192  1  0.33693786  0.51049775  0.24551879  1
  O  O193  1  0.83703452  0.51074710  0.24584024  1
  O  O194  1  0.40953115  0.30446946  0.24425498  1
  O  O195  1  0.90949608  0.30453883  0.24389429  1
  O  O196  1  0.22979582  0.15185861  0.24572350  1
  O  O197  1  0.72988464  0.15200562  0.24579623  1
  O  O198  1  0.31825025  0.50559971  0.92006080  1
  O  O199  1  0.81847511  0.50566680  0.92004373  1
  O  O200  1  0.42910362  0.36990996  0.92204751  1
  O  O201  1  0.92899508  0.37007597  0.92192058  1
  O  O202  1  0.25207716  0.15130468  0.92182442  1
  O  O203  1  0.75221046  0.15164185  0.92179387  1
  O  O204  1  0.31761678  0.13143108  0.41952698  1
  O  O205  1  0.81946139  0.13237496  0.42347869  1
  O  O206  1  0.25251971  0.35952467  0.42230600  1
  O  O207  1  0.75222903  0.36018531  0.42272266  1
  O  O208  1  0.42576721  0.49356378  0.42251557  1
  O  O209  1  0.92686066  0.49068320  0.42401408  1
  O  O210  1  0.17844200  0.50412748  0.07676501  1
  O  O211  1  0.67850680  0.50422251  0.07683054  1
  O  O212  1  0.07607704  0.65157631  0.07846639  1
  O  O213  1  0.57604552  0.65149827  0.07846233  1
  O  O214  1  0.25013473  0.84736900  0.07479698  1
  O  O215  1  0.75013870  0.84726025  0.07486108  1
  O  O216  1  0.17432870  0.84884238  0.57725187  1
  O  O217  1  0.67517498  0.84756872  0.57800609  1
  O  O218  1  0.24872716  0.65842699  0.57524275  1
  O  O219  1  0.74720777  0.64254823  0.57538299  1
  O  O220  1  0.06413399  0.48677103  0.57903797  1
  O  O221  1  0.57546452  0.49958265  0.57844921  1
  O  O222  1  0.15319803  0.83910429  0.25580563  1
  O  O223  1  0.65340662  0.83941398  0.25564671  1
  O  O224  1  0.25871047  0.69532190  0.25739528  1
  O  O225  1  0.75902163  0.69573916  0.25774218  1
  O  O226  1  0.08402602  0.47587883  0.25674942  1
  O  O227  1  0.58456240  0.47603070  0.25720425  1
  O  O228  1  0.15189726  0.46493603  0.75640113  1
  O  O229  1  0.65376320  0.46671106  0.75676456  1
  O  O230  1  0.08500084  0.69329310  0.75609845  1
  O  O231  1  0.58461136  0.69265927  0.75684251  1
  O  O232  1  0.25948177  0.82282915  0.75755609  1
  O  O233  1  0.75959878  0.82474881  0.75743446  1
