# generated using pymatgen
data_Na3LaZrSi2SO12
_symmetry_space_group_name_H-M   'P 1'
_cell_length_a   9.55436786
_cell_length_b   9.55436750
_cell_length_c   23.16388399
_cell_angle_alpha   89.40524578
_cell_angle_beta   90.59475422
_cell_angle_gamma   120.27141934
_symmetry_Int_Tables_number   1
_chemical_formula_structural   Na3LaZrSi2SO12
_chemical_formula_sum   'Na18 La6 Zr6 Si12 S6 O72'
_cell_volume   1826.08291916
_cell_formula_units_Z   6
loop_
 _symmetry_equiv_pos_site_id
 _symmetry_equiv_pos_as_xyz
  1  'x, y, z'
loop_
 _atom_site_type_symbol
 _atom_site_label
 _atom_site_symmetry_multiplicity
 _atom_site_fract_x
 _atom_site_fract_y
 _atom_site_fract_z
 _atom_site_occupancy
  Na  Na0  1  0.63394482  0.99279604  0.23931706  1
  Na  Na1  1  0.99071543  0.64230420  0.24427609  1
  Na  Na2  1  0.00720396  0.36605518  0.73931706  1
  Na  Na3  1  0.35769580  0.00928457  0.74427609  1
  Na  Na4  1  0.30061182  0.32612904  0.57265006  1
  Na  Na5  1  0.65738243  0.97563720  0.57760909  1
  Na  Na6  1  0.67387096  0.69938818  0.07265006  1
  Na  Na7  1  0.02436280  0.34261757  0.07760909  1
  Na  Na8  1  0.96727782  0.65946304  0.90598406  1
  Na  Na9  1  0.32404843  0.30897120  0.91094309  1
  Na  Na10  1  0.34053696  0.03272218  0.40598406  1
  Na  Na11  1  0.69102880  0.67595157  0.41094309  1
  Na  Na12  1  0.00220595  0.03812947  0.49677877  1
  Na  Na13  1  0.96187053  0.99779405  0.99677877  1
  Na  Na14  1  0.66887295  0.37146247  0.83011177  1
  Na  Na15  1  0.62853753  0.33112705  0.33011177  1
  Na  Na16  1  0.33553895  0.70479647  0.16344577  1
  Na  Na17  1  0.29520353  0.66446105  0.66344577  1
  La  La18  1  0.01098943  0.02032045  0.34865311  1
  La  La19  1  0.97967955  0.98901057  0.84865311  1
  La  La20  1  0.67765643  0.35365345  0.68198611  1
  La  La21  1  0.64634655  0.32234357  0.18198611  1
  La  La22  1  0.34432243  0.68698745  0.01532011  1
  La  La23  1  0.31301255  0.65567757  0.51532011  1
  Zr  Zr24  1  0.02324341  0.00270269  0.64842225  1
  Zr  Zr25  1  0.99729731  0.97675659  0.14842225  1
  Zr  Zr26  1  0.68991041  0.33603569  0.98175525  1
  Zr  Zr27  1  0.66396431  0.31008959  0.48175525  1
  Zr  Zr28  1  0.35657641  0.66936969  0.31508925  1
  Zr  Zr29  1  0.33063031  0.64342359  0.81508925  1
  Si  Si30  1  0.29412799  0.97887793  0.25575935  1
  Si  Si31  1  0.70104033  0.70341143  0.25331723  1
  Si  Si32  1  0.29658857  0.29895967  0.75331723  1
  Si  Si33  1  0.02112207  0.70587201  0.75575935  1
  Si  Si34  1  0.96079499  0.31221093  0.58909235  1
  Si  Si35  1  0.36770733  0.03674443  0.58665023  1
  Si  Si36  1  0.96325557  0.63229267  0.08665023  1
  Si  Si37  1  0.68778907  0.03920501  0.08909235  1
  Si  Si38  1  0.62746099  0.64554493  0.92242635  1
  Si  Si39  1  0.03437333  0.37007843  0.91998423  1
  Si  Si40  1  0.62992157  0.96562667  0.41998423  1
  Si  Si41  1  0.35445507  0.37253901  0.42242635  1
  S  S42  1  0.01663265  0.31779121  0.24463447  1
  S  S43  1  0.68220879  0.98336735  0.74463447  1
  S  S44  1  0.68329965  0.65112421  0.57796747  1
  S  S45  1  0.34887579  0.31670035  0.07796747  1
  S  S46  1  0.34996565  0.98445821  0.91130147  1
  S  S47  1  0.01554179  0.65003435  0.41130147  1
  O  O48  1  0.22531804  0.99847870  0.31672539  1
  O  O49  1  0.79796791  0.78919244  0.31180115  1
  O  O50  1  0.99085825  0.22059181  0.29760930  1
  O  O51  1  0.21080756  0.20203209  0.81180115  1
  O  O52  1  0.00152130  0.77468196  0.81672539  1
  O  O53  1  0.77940819  0.00914175  0.79760930  1
  O  O54  1  0.76773002  0.97055284  0.69343619  1
  O  O55  1  0.17360579  0.19706149  0.69680939  1
  O  O56  1  0.02760554  0.83193191  0.70212065  1
  O  O57  1  0.80293851  0.82639421  0.19680939  1
  O  O58  1  0.02944716  0.23226998  0.19343619  1
  O  O59  1  0.16806809  0.97239446  0.20212065  1
  O  O60  1  0.89198504  0.33181170  0.65005839  1
  O  O61  1  0.46463491  0.12252544  0.64513415  1
  O  O62  1  0.65752525  0.55392481  0.63094230  1
  O  O63  1  0.87747456  0.53536509  0.14513415  1
  O  O64  1  0.66818830  0.10801496  0.15005839  1
  O  O65  1  0.44607519  0.34247475  0.13094230  1
  O  O66  1  0.43439702  0.30388584  0.02676919  1
  O  O67  1  0.84027279  0.53039449  0.03014239  1
  O  O68  1  0.69427254  0.16526491  0.03545365  1
  O  O69  1  0.46960551  0.15972721  0.53014239  1
  O  O70  1  0.69611416  0.56560298  0.52676919  1
  O  O71  1  0.83473509  0.30572746  0.53545365  1
  O  O72  1  0.55865104  0.66514570  0.98339239  1
  O  O73  1  0.13130091  0.45585944  0.97846815  1
  O  O74  1  0.32419125  0.88725881  0.96427630  1
  O  O75  1  0.54414056  0.86869909  0.47846815  1
  O  O76  1  0.33485430  0.44134896  0.48339239  1
  O  O77  1  0.11274119  0.67580875  0.46427630  1
  O  O78  1  0.10106302  0.63721984  0.36010319  1
  O  O79  1  0.50693879  0.86372849  0.36347639  1
  O  O80  1  0.36093854  0.49859891  0.36878765  1
  O  O81  1  0.13627151  0.49306121  0.86347639  1
  O  O82  1  0.36278016  0.89893698  0.86010319  1
  O  O83  1  0.50140109  0.63906146  0.86878765  1
  O  O84  1  0.98995121  0.79106949  0.40812849  1
  O  O85  1  0.80703318  0.98215040  0.41598254  1
  O  O86  1  0.21018202  0.18366795  0.41650819  1
  O  O87  1  0.01784960  0.19296682  0.91598254  1
  O  O88  1  0.20893051  0.01004879  0.90812849  1
  O  O89  1  0.81633205  0.78981798  0.91650819  1
  O  O90  1  0.95379410  0.13356455  0.58826199  1
  O  O91  1  0.19036843  0.03409655  0.58809353  1
  O  O92  1  0.83419357  0.81281653  0.58336486  1
  O  O93  1  0.96590345  0.80963157  0.08809353  1
  O  O94  1  0.86643545  0.04620590  0.08826199  1
  O  O95  1  0.18718347  0.16580643  0.08336486  1
  O  O96  1  0.65661821  0.12440249  0.74146149  1
  O  O97  1  0.47370018  0.31548340  0.74931554  1
  O  O98  1  0.87684902  0.51700095  0.74984119  1
  O  O99  1  0.68451660  0.52629982  0.24931554  1
  O  O100  1  0.87559751  0.34338179  0.24146149  1
  O  O101  1  0.48299905  0.12315098  0.24984119  1
  O  O102  1  0.62046110  0.46689755  0.92159499  1
  O  O103  1  0.85703543  0.36742955  0.92142653  1
  O  O104  1  0.50086057  0.14614953  0.91669786  1
  O  O105  1  0.63257045  0.14296457  0.42142653  1
  O  O106  1  0.53310245  0.37953890  0.42159499  1
  O  O107  1  0.85385047  0.49913943  0.41669786  1
  O  O108  1  0.32328421  0.45773649  0.07479549  1
  O  O109  1  0.14036618  0.64881740  0.08264954  1
  O  O110  1  0.54351502  0.85033495  0.08317519  1
  O  O111  1  0.35118260  0.85963382  0.58264954  1
  O  O112  1  0.54226351  0.67671579  0.57479549  1
  O  O113  1  0.14966505  0.45648498  0.58317519  1
  O  O114  1  0.28712710  0.80023155  0.25492899  1
  O  O115  1  0.52370143  0.70076355  0.25476053  1
  O  O116  1  0.16752657  0.47948353  0.25003186  1
  O  O117  1  0.29923645  0.47629857  0.75476053  1
  O  O118  1  0.19976845  0.71287290  0.75492899  1
  O  O119  1  0.52051647  0.83247343  0.75003186  1
