# generated using pymatgen
data_P2S3
_symmetry_space_group_name_H-M   'P 1'
_cell_length_a   7.16357395
_cell_length_b   11.83063628
_cell_length_c   12.46801375
_cell_angle_alpha   90.00000000
_cell_angle_beta   90.00000000
_cell_angle_gamma   102.95763691
_symmetry_Int_Tables_number   1
_chemical_formula_structural   P2S3
_chemical_formula_sum   'P16 S24'
_cell_volume   1029.75299714
_cell_formula_units_Z   8
loop_
 _symmetry_equiv_pos_site_id
 _symmetry_equiv_pos_as_xyz
  1  'x, y, z'
loop_
 _atom_site_type_symbol
 _atom_site_label
 _atom_site_symmetry_multiplicity
 _atom_site_fract_x
 _atom_site_fract_y
 _atom_site_fract_z
 _atom_site_occupancy
  P  P0  1  0.27934898  0.16396913  0.91567040  1
  P  P1  1  0.72065102  0.33603087  0.41567040  1
  P  P2  1  0.72065102  0.83603087  0.08432960  1
  P  P3  1  0.27934898  0.66396913  0.58432960  1
  P  P4  1  0.26158698  0.43879794  0.93714654  1
  P  P5  1  0.73841302  0.06120206  0.43714654  1
  P  P6  1  0.73841302  0.56120206  0.06285346  1
  P  P7  1  0.26158698  0.93879794  0.56285346  1
  P  P8  1  0.22912818  0.34904715  0.10368629  1
  P  P9  1  0.77087182  0.15095285  0.60368629  1
  P  P10  1  0.77087182  0.65095285  0.89631371  1
  P  P11  1  0.22912818  0.84904715  0.39631371  1
  P  P12  1  0.83820211  0.24537862  0.95315516  1
  P  P13  1  0.16179789  0.25462138  0.45315516  1
  P  P14  1  0.16179789  0.75462138  0.04684484  1
  P  P15  1  0.83820211  0.74537862  0.54684484  1
  S  S16  1  0.98304409  0.11695577  0.89368176  1
  S  S17  1  0.01695591  0.38304423  0.39368176  1
  S  S18  1  0.01695591  0.88304423  0.10631824  1
  S  S19  1  0.98304409  0.61695577  0.60631824  1
  S  S20  1  0.39314033  0.32743775  0.84691605  1
  S  S21  1  0.60685867  0.17256225  0.34691605  1
  S  S22  1  0.60685867  0.67256225  0.15308395  1
  S  S23  1  0.39314033  0.82743775  0.65308395  1
  S  S24  1  0.34555547  0.20218021  0.07790941  1
  S  S25  1  0.65444453  0.29781979  0.57790941  1
  S  S26  1  0.65444453  0.79781979  0.92209059  1
  S  S27  1  0.34555547  0.70218021  0.42209059  1
  S  S28  1  0.38495098  0.04213550  0.85715574  1
  S  S29  1  0.61504902  0.45786450  0.35715574  1
  S  S30  1  0.61504902  0.95786450  0.14284426  1
  S  S31  1  0.38495098  0.54213550  0.64284426  1
  S  S32  1  0.97498087  0.40193142  0.88012762  1
  S  S33  1  0.02501913  0.09806858  0.38012762  1
  S  S34  1  0.02501913  0.59806858  0.11987238  1
  S  S35  1  0.97498087  0.90193142  0.61987238  1
  S  S36  1  0.93075900  0.28204450  0.11158744  1
  S  S37  1  0.06924100  0.21795550  0.61158744  1
  S  S38  1  0.06924100  0.71795550  0.88841256  1
  S  S39  1  0.93075900  0.78204450  0.38841256  1
