# generated using pymatgen
data_Na3Ta10Zn2Si3(P5O24)3
_symmetry_space_group_name_H-M   'P 1'
_cell_length_a   8.77145179
_cell_length_b   8.77363465
_cell_length_c   22.69446867
_cell_angle_alpha   89.89880573
_cell_angle_beta   89.99153183
_cell_angle_gamma   120.01163895
_symmetry_Int_Tables_number   1
_chemical_formula_structural   Na3Ta10Zn2Si3(P5O24)3
_chemical_formula_sum   'Na3 Ta10 Zn2 Si3 P15 O72'
_cell_volume   1512.34106689
_cell_formula_units_Z   1
loop_
 _symmetry_equiv_pos_site_id
 _symmetry_equiv_pos_as_xyz
  1  'x, y, z'
loop_
 _atom_site_type_symbol
 _atom_site_label
 _atom_site_symmetry_multiplicity
 _atom_site_fract_x
 _atom_site_fract_y
 _atom_site_fract_z
 _atom_site_occupancy
  Na  Na0  1  0.00044942  0.00057794  0.00154044  1
  Na  Na1  1  0.66724051  0.33415349  0.83868802  1
  Na  Na2  1  0.66742899  0.33389216  0.33946909  1
  Ta  Ta3  1  0.99420087  0.99804804  0.35870858  1
  Ta  Ta4  1  0.99836053  0.99556986  0.85566940  1
  Ta  Ta5  1  0.00157345  0.99671711  0.64191227  1
  Ta  Ta6  1  0.99774477  0.00135970  0.14739665  1
  Ta  Ta7  1  0.66917723  0.33566374  0.68524437  1
  Ta  Ta8  1  0.66848719  0.33537416  0.18842972  1
  Ta  Ta9  1  0.33350052  0.66599043  0.02497962  1
  Ta  Ta10  1  0.33235500  0.66666694  0.52164627  1
  Ta  Ta11  1  0.33287385  0.66441379  0.31016658  1
  Ta  Ta12  1  0.33138660  0.66622401  0.81051557  1
  Zn  Zn13  1  0.66668013  0.33330541  0.98166470  1
  Zn  Zn14  1  0.66668914  0.33334548  0.47974130  1
  Si  Si15  1  0.71326172  0.71327418  0.25121281  1
  Si  Si16  1  0.99946531  0.28627507  0.25108386  1
  Si  Si17  1  0.99756830  0.71068257  0.74926779  1
  P  P18  1  0.28509201  0.00010951  0.25095916  1
  P  P19  1  0.28634990  0.28482377  0.74958828  1
  P  P20  1  0.71478892  0.00105860  0.74959277  1
  P  P21  1  0.95408899  0.33344849  0.58102509  1
  P  P22  1  0.38231676  0.04712187  0.58123963  1
  P  P23  1  0.66480231  0.61942196  0.58091212  1
  P  P24  1  0.95108835  0.62108051  0.08123314  1
  P  P25  1  0.66935563  0.04956082  0.08139520  1
  P  P26  1  0.37972993  0.32941842  0.08129567  1
  P  P27  1  0.61824676  0.66127141  0.91695154  1
  P  P28  1  0.04275675  0.38039219  0.91707352  1
  P  P29  1  0.33903807  0.95733484  0.91698327  1
  P  P30  1  0.61797371  0.95758942  0.41665041  1
  P  P31  1  0.33792557  0.37985410  0.41675451  1
  P  P32  1  0.04254996  0.66252227  0.41645298  1
  O  O33  1  0.20296615  0.03433680  0.30529541  1
  O  O34  1  0.83950726  0.80303589  0.30779240  1
  O  O35  1  0.96753501  0.16150286  0.30773754  1
  O  O36  1  0.19933708  0.16973914  0.80511440  1
  O  O37  1  0.96809761  0.80519987  0.80715380  1
  O  O38  1  0.83089671  0.03268550  0.80512844  1
  O  O39  1  0.80013816  0.97210658  0.69533266  1
  O  O40  1  0.17096273  0.20201886  0.69527288  1
  O  O41  1  0.02878649  0.83633289  0.69318035  1
  O  O42  1  0.80478294  0.83253600  0.19271585  1
  O  O43  1  0.03182031  0.19785977  0.19265197  1
  O  O44  1  0.17286743  0.97079885  0.19496917  1
  O  O45  1  0.86727994  0.36307857  0.63829490  1
  O  O46  1  0.49423387  0.13139652  0.63862991  1
  O  O47  1  0.63670255  0.50462976  0.63831337  1
  O  O48  1  0.86901422  0.50598195  0.13788443  1
  O  O49  1  0.63673539  0.12939217  0.13795791  1
  O  O50  1  0.49249826  0.36223532  0.13793963  1
  O  O51  1  0.45212210  0.29613894  0.02673879  1
  O  O52  1  0.84406131  0.54878973  0.02699995  1
  O  O53  1  0.70493082  0.15603535  0.02683380  1
  O  O54  1  0.45495048  0.15978403  0.52788534  1
  O  O55  1  0.70591719  0.54633806  0.52805133  1
  O  O56  1  0.84064488  0.29476581  0.52806698  1
  O  O57  1  0.53278856  0.69807718  0.97148926  1
  O  O58  1  0.16536499  0.46743970  0.97142240  1
  O  O59  1  0.30110436  0.83466077  0.97145759  1
  O  O60  1  0.53095040  0.83515826  0.47164929  1
  O  O61  1  0.30404303  0.46882480  0.47149128  1
  O  O62  1  0.16474549  0.69521913  0.47149139  1
  O  O63  1  0.13957684  0.64439253  0.36214557  1
  O  O64  1  0.50436341  0.86170147  0.36219653  1
  O  O65  1  0.35686933  0.49686795  0.36227267  1
  O  O66  1  0.14121793  0.49444379  0.86162565  1
  O  O67  1  0.35453572  0.85960393  0.86169917  1
  O  O68  1  0.50716865  0.64650086  0.86155010  1
  O  O69  1  0.03648886  0.83532389  0.40777677  1
  O  O70  1  0.79914177  0.96549349  0.40858973  1
  O  O71  1  0.16760240  0.19966045  0.40734683  1
  O  O72  1  0.03286577  0.19738024  0.90818212  1
  O  O73  1  0.16539686  0.96908544  0.90839226  1
  O  O74  1  0.80261534  0.83736368  0.90887879  1
  O  O75  1  0.98006364  0.17572381  0.59688124  1
  O  O76  1  0.19638175  0.02261172  0.59526636  1
  O  O77  1  0.82344291  0.80551766  0.59581841  1
  O  O78  1  0.98415625  0.81045841  0.09265197  1
  O  O79  1  0.82874871  0.01856394  0.09196101  1
  O  O80  1  0.19086191  0.17060376  0.09204989  1
  O  O81  1  0.69038211  0.16315134  0.74184966  1
  O  O82  1  0.47102728  0.30497467  0.74184667  1
  O  O83  1  0.82476712  0.51536053  0.74154055  1
  O  O84  1  0.68847554  0.51768077  0.24049224  1
  O  O85  1  0.82525588  0.30517544  0.24045615  1
  O  O86  1  0.47011566  0.16346049  0.24052343  1
  O  O87  1  0.64258547  0.50502878  0.92053769  1
  O  O88  1  0.86342028  0.35965655  0.92027561  1
  O  O89  1  0.49619708  0.13735780  0.92017939  1
  O  O90  1  0.64097860  0.13799255  0.42135994  1
  O  O91  1  0.49807066  0.36113873  0.42120160  1
  O  O92  1  0.86309419  0.50339448  0.42140059  1
  O  O93  1  0.35708737  0.49609666  0.07380823  1
  O  O94  1  0.13943727  0.64198963  0.07394980  1
  O  O95  1  0.50359762  0.86020515  0.07381118  1
  O  O96  1  0.35615581  0.85927640  0.57484781  1
  O  O97  1  0.50187686  0.64305642  0.57492638  1
  O  O98  1  0.14048429  0.49747387  0.57489715  1
  O  O99  1  0.30755677  0.83953019  0.25991092  1
  O  O100  1  0.52224974  0.69362878  0.26061624  1
  O  O101  1  0.16720283  0.47988610  0.26056217  1
  O  O102  1  0.30971495  0.46891154  0.76059631  1
  O  O103  1  0.16929330  0.69040216  0.76080785  1
  O  O104  1  0.53247641  0.83789862  0.76059659  1
