# generated using pymatgen
data_NbCl3O
_symmetry_space_group_name_H-M   'P 1'
_cell_length_a   11.23242321
_cell_length_b   11.23242321
_cell_length_c   3.83830787
_cell_angle_alpha   90.00000000
_cell_angle_beta   90.00000000
_cell_angle_gamma   90.00000000
_symmetry_Int_Tables_number   1
_chemical_formula_structural   NbCl3O
_chemical_formula_sum   'Nb4 Cl12 O4'
_cell_volume   484.26906016
_cell_formula_units_Z   4
loop_
 _symmetry_equiv_pos_site_id
 _symmetry_equiv_pos_as_xyz
  1  'x, y, z'
loop_
 _atom_site_type_symbol
 _atom_site_label
 _atom_site_symmetry_multiplicity
 _atom_site_fract_x
 _atom_site_fract_y
 _atom_site_fract_z
 _atom_site_occupancy
  Nb  Nb0  1  0.87526495  0.87526495  0.00000000  1
  Nb  Nb1  1  0.37526495  0.62473505  0.50000000  1
  Nb  Nb2  1  0.62473505  0.37526495  0.50000000  1
  Nb  Nb3  1  0.12473505  0.12473505  0.00000000  1
  Cl  Cl4  1  0.89623122  0.10376878  -0.00000000  1
  Cl  Cl5  1  0.60376878  0.60376878  0.50000000  1
  Cl  Cl6  1  0.39623122  0.39623122  0.50000000  1
  Cl  Cl7  1  0.10376878  0.89623122  0.00000000  1
  Cl  Cl8  1  0.10448133  0.32774293  0.00000000  1
  Cl  Cl9  1  0.82774293  0.39551867  0.50000000  1
  Cl  Cl10  1  0.17225707  0.60448133  0.50000000  1
  Cl  Cl11  1  0.89551867  0.67225707  0.00000000  1
  Cl  Cl12  1  0.39551867  0.82774293  0.50000000  1
  Cl  Cl13  1  0.60448133  0.17225707  0.50000000  1
  Cl  Cl14  1  0.32774293  0.10448133  -0.00000000  1
  Cl  Cl15  1  0.67225707  0.89551867  -0.00000000  1
  O  O16  1  0.38928011  0.61071989  -0.00000000  1
  O  O17  1  0.11071989  0.11071989  0.50000000  1
  O  O18  1  0.88928011  0.88928011  0.50000000  1
  O  O19  1  0.61071989  0.38928011  0.00000000  1
