# generated using pymatgen
data_Na3ScGe3(PO4)6
_symmetry_space_group_name_H-M   'P 1'
_cell_length_a   8.54754732
_cell_length_b   8.55639240
_cell_length_c   22.01223104
_cell_angle_alpha   90.00376425
_cell_angle_beta   89.98573047
_cell_angle_gamma   120.29374977
_symmetry_Int_Tables_number   1
_chemical_formula_structural   Na3ScGe3(PO4)6
_chemical_formula_sum   'Na9 Sc3 Ge9 P18 O72'
_cell_volume   1390.06062577
_cell_formula_units_Z   3
loop_
 _symmetry_equiv_pos_site_id
 _symmetry_equiv_pos_as_xyz
  1  'x, y, z'
loop_
 _atom_site_type_symbol
 _atom_site_label
 _atom_site_symmetry_multiplicity
 _atom_site_fract_x
 _atom_site_fract_y
 _atom_site_fract_z
 _atom_site_occupancy
  Na  Na0  1  0.36444034  0.36038612  0.24859563  1
  Na  Na1  1  0.63412239  0.63092194  0.74950720  1
  Na  Na2  1  0.96782578  0.29763970  0.41579185  1
  Na  Na3  1  0.00057929  0.99294307  0.50069116  1
  Na  Na4  1  0.00003243  0.00009708  0.00061545  1
  Na  Na5  1  0.66736676  0.32617933  0.83485206  1
  Na  Na6  1  0.66694849  0.33359831  0.33141121  1
  Na  Na7  1  0.33267647  0.67388299  0.16432063  1
  Na  Na8  1  0.32626008  0.66759420  0.66535254  1
  Sc  Sc9  1  0.99943956  0.99316436  0.35515937  1
  Sc  Sc10  1  0.66707366  0.32749439  0.68617656  1
  Sc  Sc11  1  0.67206945  0.33270826  0.18279994  1
  Ge  Ge12  1  0.00107437  0.00119582  0.85571018  1
  Ge  Ge13  1  0.00164745  0.00091263  0.64600761  1
  Ge  Ge14  1  0.99874448  0.99769772  0.14569424  1
  Ge  Ge15  1  0.66688724  0.33291561  0.98169268  1
  Ge  Ge16  1  0.66198528  0.33363560  0.48252545  1
  Ge  Ge17  1  0.33305347  0.66647145  0.01865052  1
  Ge  Ge18  1  0.33459792  0.66805106  0.52068119  1
  Ge  Ge19  1  0.33442280  0.67265218  0.31312240  1
  Ge  Ge20  1  0.32865892  0.66741675  0.81579036  1
  P  P21  1  0.28631902  0.99190189  0.24941541  1
  P  P22  1  0.70846218  0.71383343  0.24951204  1
  P  P23  1  0.00073833  0.29160927  0.25128663  1
  P  P24  1  0.27788977  0.28486357  0.75216756  1
  P  P25  1  0.01019811  0.72206775  0.75198048  1
  P  P26  1  0.71557791  0.99848719  0.75270456  1
  P  P27  1  0.96179000  0.33340402  0.58164508  1
  P  P28  1  0.37168124  0.03796436  0.58192215  1
  P  P29  1  0.66602204  0.62742611  0.58287030  1
  P  P30  1  0.96263137  0.62857382  0.08060490  1
  P  P31  1  0.66627507  0.03789521  0.08082831  1
  P  P32  1  0.37200284  0.33437216  0.08165246  1
  P  P33  1  0.62130737  0.66526004  0.91665851  1
  P  P34  1  0.04402655  0.37837518  0.91706725  1
  P  P35  1  0.33411426  0.95541711  0.91700693  1
  P  P36  1  0.61187423  0.95315277  0.41905467  1
  P  P37  1  0.34445830  0.38790491  0.41847722  1
  P  P38  1  0.04755363  0.66407842  0.41951900  1
  O  O39  1  0.21031849  0.03267567  0.30586505  1
  O  O40  1  0.81819954  0.79036161  0.30675902  1
  O  O41  1  0.97464345  0.18616390  0.30985876  1
  O  O42  1  0.19636725  0.16704639  0.80910706  1
  O  O43  1  0.96689919  0.80313466  0.80822155  1
  O  O44  1  0.83279861  0.02876464  0.80944939  1
  O  O45  1  0.79272256  0.95404386  0.69455205  1
  O  O46  1  0.16384537  0.20524845  0.69334816  1
  O  O47  1  0.04230634  0.83595145  0.69323524  1
  O  O48  1  0.79214817  0.83270430  0.19171636  1
  O  O49  1  0.04482507  0.20817360  0.19458981  1
  O  O50  1  0.16712385  0.95869735  0.19170286  1
  O  O51  1  0.88471528  0.37171934  0.63775934  1
  O  O52  1  0.48519908  0.11377552  0.63865733  1
  O  O53  1  0.62918103  0.51809237  0.64106670  1
  O  O54  1  0.88986973  0.51699670  0.13779718  1
  O  O55  1  0.62635726  0.11015820  0.13782338  1
  O  O56  1  0.48000277  0.37188590  0.14012040  1
  O  O57  1  0.45918933  0.29602266  0.02540005  1
  O  O58  1  0.83795978  0.54266957  0.02390886  1
  O  O59  1  0.70529172  0.16219633  0.02410664  1
  O  O60  1  0.45590630  0.16108732  0.52477297  1
  O  O61  1  0.70451216  0.54142183  0.52627319  1
  O  O62  1  0.84191409  0.29603861  0.52317993  1
  O  O63  1  0.53680883  0.70324969  0.97220843  1
  O  O64  1  0.16548369  0.46154664  0.97313953  1
  O  O65  1  0.29576396  0.83416006  0.97301357  1
  O  O66  1  0.52960132  0.83463925  0.47540245  1
  O  O67  1  0.30230129  0.47185778  0.47367520  1
  O  O68  1  0.16531868  0.69408264  0.47569242  1
  O  O69  1  0.12525689  0.61996315  0.36144793  1
  O  O70  1  0.49774519  0.87311959  0.36031856  1
  O  O71  1  0.37483681  0.49868028  0.35860417  1
  O  O72  1  0.12515972  0.49706900  0.85903055  1
  O  O73  1  0.37234772  0.87481683  0.85907965  1
  O  O74  1  0.50572236  0.62961420  0.85738187  1
  O  O75  1  0.02641188  0.82817542  0.41578627  1
  O  O76  1  0.80275091  0.98111192  0.41508479  1
  O  O77  1  0.17391699  0.20129253  0.41478734  1
  O  O78  1  0.02596441  0.18881967  0.90973246  1
  O  O79  1  0.16275576  0.97372662  0.90942967  1
  O  O80  1  0.81209894  0.83747840  0.90958308  1
  O  O81  1  0.97799705  0.16078701  0.58883838  1
  O  O82  1  0.18228610  0.02126338  0.58873633  1
  O  O83  1  0.83923777  0.81793136  0.58914072  1
  O  O84  1  0.97905287  0.81750314  0.08780518  1
  O  O85  1  0.83896434  0.02155767  0.08840190  1
  O  O86  1  0.18150653  0.16115813  0.08848809  1
  O  O87  1  0.69401966  0.16271979  0.74790874  1
  O  O88  1  0.46931555  0.31310874  0.74720775  1
  O  O89  1  0.83943547  0.53504546  0.74688439  1
  O  O90  1  0.67717200  0.52211137  0.24381684  1
  O  O91  1  0.83840006  0.31558290  0.24548254  1
  O  O92  1  0.47362947  0.16039608  0.24344124  1
  O  O93  1  0.63990535  0.49473307  0.92378053  1
  O  O94  1  0.85422085  0.35914112  0.92401506  1
  O  O95  1  0.50510558  0.14608446  0.92415657  1
  O  O96  1  0.63463261  0.14661840  0.42474039  1
  O  O97  1  0.51544053  0.37020750  0.42497307  1
  O  O98  1  0.85686829  0.48702453  0.42516049  1
  O  O99  1  0.35345480  0.50427176  0.07226992  1
  O  O100  1  0.15180752  0.64732891  0.07195040  1
  O  O101  1  0.49580350  0.84791870  0.07185872  1
  O  O102  1  0.35208702  0.84895882  0.57381937  1
  O  O103  1  0.49664304  0.64664987  0.57386519  1
  O  O104  1  0.15211714  0.50317540  0.57363715  1
  O  O105  1  0.30116156  0.81896208  0.25647709  1
  O  O106  1  0.51522083  0.69380727  0.25584870  1
  O  O107  1  0.18068143  0.48156098  0.25663668  1
  O  O108  1  0.30134262  0.47906583  0.75813789  1
  O  O109  1  0.18074373  0.70298521  0.75849267  1
  O  O110  1  0.52440915  0.82112838  0.75850409  1
