# generated using pymatgen
data_MgCrTe(WO6)2
_symmetry_space_group_name_H-M   'P 1'
_cell_length_a   5.37635932
_cell_length_b   10.76157363
_cell_length_c   9.41026234
_cell_angle_alpha   28.85433864
_cell_angle_beta   52.95091490
_cell_angle_gamma   58.22566995
_symmetry_Int_Tables_number   1
_chemical_formula_structural   MgCrTe(WO6)2
_chemical_formula_sum   'Mg1 Cr1 Te1 W2 O12'
_cell_volume   209.70334263
_cell_formula_units_Z   1
loop_
 _symmetry_equiv_pos_site_id
 _symmetry_equiv_pos_as_xyz
  1  'x, y, z'
loop_
 _atom_site_type_symbol
 _atom_site_label
 _atom_site_symmetry_multiplicity
 _atom_site_fract_x
 _atom_site_fract_y
 _atom_site_fract_z
 _atom_site_occupancy
  Mg  Mg0  1  0.67251700  0.99628700  0.73383500  1
  Cr  Cr1  1  0.98896400  0.98344700  0.01040100  1
  Te  Te2  1  0.99611800  0.50268900  0.99253100  1
  W  W3  1  0.49858900  0.00962800  0.47606400  1
  W  W4  1  0.47824300  0.48832200  0.52188100  1
  O  O5  1  0.35696800  0.31684100  0.12416700  1
  O  O6  1  0.27725300  0.08076400  0.65610900  1
  O  O7  1  0.17961400  0.27547100  0.76083900  1
  O  O8  1  0.85881300  0.19244900  0.25514800  1
  O  O9  1  0.35486400  0.78996100  0.15277900  1
  O  O10  1  0.76483800  0.37338100  0.36435500  1
  O  O11  1  0.23436800  0.61299000  0.64008500  1
  O  O12  1  0.68234200  0.22211900  0.81310300  1
  O  O13  1  0.11202700  0.81373100  0.75104200  1
  O  O14  1  0.82799600  0.72211100  0.22591700  1
  O  O15  1  0.72867400  0.90206000  0.35292600  1
  O  O16  1  0.64551400  0.71149900  0.84973700  1
