# generated using pymatgen
data_Na8Y2Hf2Si5SO24
_symmetry_space_group_name_H-M   'P 1'
_cell_length_a   9.36133646
_cell_length_b   9.35248413
_cell_length_c   22.99960859
_cell_angle_alpha   90.09144493
_cell_angle_beta   89.78452699
_cell_angle_gamma   119.99825634
_symmetry_Int_Tables_number   1
_chemical_formula_structural   Na8Y2Hf2Si5SO24
_chemical_formula_sum   'Na24 Y6 Hf6 Si15 S3 O72'
_cell_volume   1743.89546257
_cell_formula_units_Z   3
loop_
 _symmetry_equiv_pos_site_id
 _symmetry_equiv_pos_as_xyz
  1  'x, y, z'
loop_
 _atom_site_type_symbol
 _atom_site_label
 _atom_site_symmetry_multiplicity
 _atom_site_fract_x
 _atom_site_fract_y
 _atom_site_fract_z
 _atom_site_occupancy
  Na  Na0  1  0.64520950  0.00458346  0.25302428  1
  Na  Na1  1  0.35466479  0.35970460  0.24705563  1
  Na  Na2  1  0.99999406  0.64032331  0.24975027  1
  Na  Na3  1  0.63733358  0.63529472  0.74577741  1
  Na  Na4  1  0.99327255  0.35757341  0.74887921  1
  Na  Na5  1  0.36727831  0.00846296  0.74885927  1
  Na  Na6  1  0.30072672  0.33699091  0.58849994  1
  Na  Na7  1  0.03727033  0.70126852  0.58318102  1
  Na  Na8  1  0.66472828  0.96117618  0.58369138  1
  Na  Na9  1  0.28347430  0.96531245  0.08073104  1
  Na  Na10  1  0.67073816  0.68627789  0.08927354  1
  Na  Na11  1  0.04780616  0.33963140  0.08783440  1
  Na  Na12  1  0.98169516  0.66964086  0.91561469  1
  Na  Na13  1  0.70594949  0.04759328  0.90616719  1
  Na  Na14  1  0.31763780  0.28188754  0.91807929  1
  Na  Na15  1  0.95645037  0.29552793  0.41138166  1
  Na  Na16  1  0.32824230  0.01669580  0.41612630  1
  Na  Na17  1  0.71316667  0.68170176  0.41881375  1
  Na  Na18  1  0.98816816  0.98623529  0.50227731  1
  Na  Na19  1  0.02587122  0.01028112  0.99954986  1
  Na  Na20  1  0.66797399  0.32276530  0.83038433  1
  Na  Na21  1  0.67489996  0.33039138  0.33236637  1
  Na  Na22  1  0.32251211  0.65238966  0.16788837  1
  Na  Na23  1  0.33589441  0.66669441  0.66442750  1
  Y  Y24  1  0.99578728  0.99471330  0.34587389  1
  Y  Y25  1  0.00738074  0.00502572  0.84527024  1
  Y  Y26  1  0.00503270  0.99935670  0.15480907  1
  Y  Y27  1  0.66595743  0.33409211  0.98086714  1
  Y  Y28  1  0.31794016  0.65705495  0.01823595  1
  Y  Y29  1  0.33576957  0.67581858  0.52073960  1
  Hf  Hf30  1  0.99984934  0.99991876  0.64901907  1
  Hf  Hf31  1  0.66753045  0.33329638  0.68421714  1
  Hf  Hf32  1  0.66800662  0.34431034  0.18628982  1
  Hf  Hf33  1  0.67578625  0.33111331  0.48539271  1
  Hf  Hf34  1  0.33029813  0.67739236  0.31516144  1
  Hf  Hf35  1  0.32121469  0.66811622  0.81040980  1
  Si  Si36  1  0.30840868  0.00356582  0.25063610  1
  Si  Si37  1  0.69033538  0.69552351  0.25009631  1
  Si  Si38  1  0.00055075  0.30735443  0.25030053  1
  Si  Si39  1  0.30138904  0.30132145  0.74847889  1
  Si  Si40  1  0.99547931  0.70058423  0.74921868  1
  Si  Si41  1  0.70033550  0.99864640  0.74956491  1
  Si  Si42  1  0.95839012  0.32627311  0.58540323  1
  Si  Si43  1  0.37277141  0.04722112  0.58417905  1
  Si  Si44  1  0.67229861  0.62617203  0.58403033  1
  Si  Si45  1  0.96177499  0.63209718  0.08336977  1
  Si  Si46  1  0.36974357  0.33337763  0.08369425  1
  Si  Si47  1  0.03585007  0.36665388  0.91476635  1
  Si  Si48  1  0.33375041  0.96253116  0.91596158  1
  Si  Si49  1  0.63219523  0.96862289  0.41751450  1
  Si  Si50  1  0.03081842  0.66301729  0.41809528  1
  S  S51  1  0.66857792  0.04070860  0.08488931  1
  S  S52  1  0.62347233  0.66784454  0.91474631  1
  S  S53  1  0.33852591  0.37422253  0.41637087  1
  O  O54  1  0.23511955  0.04853926  0.30748636  1
  O  O55  1  0.81161957  0.77092189  0.30582712  1
  O  O56  1  0.96170670  0.19084792  0.30724440  1
  O  O57  1  0.23217466  0.18985260  0.80685857  1
  O  O58  1  0.95538692  0.76845423  0.80818164  1
  O  O59  1  0.80892751  0.03711938  0.80824066  1
  O  O60  1  0.79652667  0.96867545  0.69433677  1
  O  O61  1  0.17336520  0.20667505  0.69368078  1
  O  O62  1  0.02961265  0.82736520  0.69431184  1
  O  O63  1  0.76316153  0.81313560  0.19303207  1
  O  O64  1  0.03950977  0.23070660  0.19293929  1
  O  O65  1  0.18806871  0.95748571  0.19457592  1
  O  O66  1  0.86613581  0.35330847  0.64074826  1
  O  O67  1  0.48963391  0.13924782  0.64013275  1
  O  O68  1  0.64982687  0.51119588  0.64044005  1
  O  O69  1  0.86077852  0.51028636  0.13912043  1
  O  O70  1  0.64894146  0.12527463  0.13615937  1
  O  O71  1  0.48690918  0.34419663  0.13953956  1
  O  O72  1  0.44939682  0.30552919  0.02446188  1
  O  O73  1  0.85783749  0.54755728  0.02428475  1
  O  O74  1  0.68886489  0.13679822  0.03115412  1
  O  O75  1  0.46328038  0.16183834  0.52563351  1
  O  O76  1  0.69637314  0.53510476  0.52551799  1
  O  O77  1  0.84203252  0.30046275  0.52685670  1
  O  O78  1  0.54942479  0.68784758  0.96912318  1
  O  O79  1  0.14415417  0.44503163  0.97381753  1
  O  O80  1  0.31909632  0.86207996  0.97571418  1
  O  O81  1  0.55386808  0.85376178  0.47465043  1
  O  O82  1  0.31375072  0.44891151  0.46959658  1
  O  O83  1  0.14024475  0.68756042  0.47555983  1
  O  O84  1  0.12673978  0.63721200  0.36135648  1
  O  O85  1  0.51061827  0.86974760  0.36124394  1
  O  O86  1  0.35686569  0.47759812  0.36476707  1
  O  O87  1  0.14191924  0.48815405  0.85907434  1
  O  O88  1  0.35208472  0.85972380  0.85967888  1
  O  O89  1  0.52078317  0.65066230  0.86367463  1
  O  O90  1  0.01515863  0.82925508  0.41341618  1
  O  O91  1  0.81953892  0.99915680  0.41232536  1
  O  O92  1  0.19097929  0.20684173  0.41151810  1
  O  O93  1  0.00872136  0.17972288  0.91286888  1
  O  O94  1  0.16432864  0.97325574  0.91383576  1
  O  O95  1  0.79066732  0.81527375  0.91094174  1
  O  O96  1  0.96804697  0.15549274  0.58947960  1
  O  O97  1  0.18960924  0.03235420  0.58932116  1
  O  O98  1  0.84113198  0.80947190  0.58909467  1
  O  O99  1  0.97424509  0.81310596  0.08680079  1
  O  O100  1  0.81764608  0.02473959  0.08893267  1
  O  O101  1  0.18296431  0.17381192  0.08727917  1
  O  O102  1  0.67546388  0.15980928  0.74121975  1
  O  O103  1  0.48653929  0.32506469  0.74027025  1
  O  O104  1  0.83819958  0.51381251  0.74093540  1
  O  O105  1  0.67087575  0.51024515  0.24221165  1
  O  O106  1  0.83569003  0.32648955  0.24198646  1
  O  O107  1  0.49556001  0.15945790  0.24043138  1
  O  O108  1  0.63687138  0.51567180  0.91696011  1
  O  O109  1  0.85770559  0.36112986  0.91443082  1
  O  O110  1  0.50050398  0.14581018  0.91379725  1
  O  O111  1  0.63600252  0.14899531  0.42133122  1
  O  O112  1  0.49038426  0.36208537  0.41996019  1
  O  O113  1  0.84519590  0.49309431  0.42112545  1
  O  O114  1  0.37021991  0.50968760  0.08537387  1
  O  O115  1  0.14573354  0.64983562  0.08588908  1
  O  O116  1  0.51935242  0.87437090  0.08187267  1
  O  O117  1  0.35390058  0.86378879  0.58285852  1
  O  O118  1  0.50655929  0.64171955  0.58176851  1
  O  O119  1  0.14223798  0.48710308  0.58147390  1
  O  O120  1  0.32549147  0.83644094  0.25890059  1
  O  O121  1  0.50431455  0.66692355  0.26163505  1
  O  O122  1  0.16612652  0.49111050  0.25925585  1
  O  O123  1  0.31881985  0.48550644  0.75512588  1
  O  O124  1  0.16629169  0.68738255  0.75391245  1
  O  O125  1  0.51800270  0.82876158  0.75520165  1
