# generated using pymatgen
data_KGaSb2
_symmetry_space_group_name_H-M   'P 1'
_cell_length_a   9.89402816
_cell_length_b   9.89402816
_cell_length_c   29.74511242
_cell_angle_alpha   90.00000000
_cell_angle_beta   90.00000000
_cell_angle_gamma   133.98981117
_symmetry_Int_Tables_number   1
_chemical_formula_structural   KGaSb2
_chemical_formula_sum   'K16 Ga16 Sb32'
_cell_volume   2094.93501507
_cell_formula_units_Z   16
loop_
 _symmetry_equiv_pos_site_id
 _symmetry_equiv_pos_as_xyz
  1  'x, y, z'
loop_
 _atom_site_type_symbol
 _atom_site_label
 _atom_site_symmetry_multiplicity
 _atom_site_fract_x
 _atom_site_fract_y
 _atom_site_fract_z
 _atom_site_occupancy
  K  K0  1  0.28456419  0.28456419  -0.00000000  1
  K  K1  1  0.21543581  0.21543581  0.50000000  1
  K  K2  1  0.71543581  0.71543581  -0.00000000  1
  K  K3  1  0.78456419  0.78456419  0.50000000  1
  K  K4  1  0.34295326  0.65704674  0.19350167  1
  K  K5  1  0.65704674  0.34295326  0.80649833  1
  K  K6  1  0.15704674  0.84295326  0.69350167  1
  K  K7  1  0.84295326  0.15704674  0.30649833  1
  K  K8  1  0.20227091  0.79772909  0.01128330  1
  K  K9  1  0.79772909  0.20227091  0.98871670  1
  K  K10  1  0.29772909  0.70227091  0.51128330  1
  K  K11  1  0.70227091  0.29772909  0.48871670  1
  K  K12  1  0.65171482  0.84828518  0.75000000  1
  K  K13  1  0.84828518  0.65171482  0.25000000  1
  K  K14  1  0.34828518  0.15171482  0.25000000  1
  K  K15  1  0.15171482  0.34828518  0.75000000  1
  Ga  Ga16  1  0.45032779  0.99421293  0.37511012  1
  Ga  Ga17  1  0.99421293  0.45032779  0.62488988  1
  Ga  Ga18  1  0.04967221  0.50578707  0.87511012  1
  Ga  Ga19  1  0.50578707  0.04967221  0.12488988  1
  Ga  Ga20  1  0.54967221  0.00578707  0.62488988  1
  Ga  Ga21  1  0.00578707  0.54967221  0.37511012  1
  Ga  Ga22  1  0.95032779  0.49421293  0.12488988  1
  Ga  Ga23  1  0.49421293  0.95032779  0.87511012  1
  Ga  Ga24  1  0.73415529  0.81227228  0.12975583  1
  Ga  Ga25  1  0.81227228  0.73415529  0.87024417  1
  Ga  Ga26  1  0.76584471  0.68772772  0.62975583  1
  Ga  Ga27  1  0.68772772  0.76584471  0.37024417  1
  Ga  Ga28  1  0.26584471  0.18772772  0.87024417  1
  Ga  Ga29  1  0.18772772  0.26584471  0.12975583  1
  Ga  Ga30  1  0.23415529  0.31227228  0.37024417  1
  Ga  Ga31  1  0.31227228  0.23415529  0.62975583  1
  Sb  Sb32  1  0.84770404  0.15229596  0.84651057  1
  Sb  Sb33  1  0.15229596  0.84770404  0.15348943  1
  Sb  Sb34  1  0.65229596  0.34770404  0.34651057  1
  Sb  Sb35  1  0.34770404  0.65229596  0.65348943  1
  Sb  Sb36  1  0.26494519  0.73505481  0.30746588  1
  Sb  Sb37  1  0.73505481  0.26494519  0.69253412  1
  Sb  Sb38  1  0.23505481  0.76494519  0.80746588  1
  Sb  Sb39  1  0.76494519  0.23505481  0.19253412  1
  Sb  Sb40  1  0.45373287  0.54626713  0.58514037  1
  Sb  Sb41  1  0.54626713  0.45373287  0.41485963  1
  Sb  Sb42  1  0.04626713  0.95373287  0.08514037  1
  Sb  Sb43  1  0.95373287  0.04626713  0.91485963  1
  Sb  Sb44  1  0.13899894  0.86100106  0.42051317  1
  Sb  Sb45  1  0.86100106  0.13899894  0.57948683  1
  Sb  Sb46  1  0.36100106  0.63899894  0.92051317  1
  Sb  Sb47  1  0.63899894  0.36100106  0.07948683  1
  Sb  Sb48  1  0.95789861  0.04210139  0.65456511  1
  Sb  Sb49  1  0.04210139  0.95789861  0.34543489  1
  Sb  Sb50  1  0.54210139  0.45789861  0.15456511  1
  Sb  Sb51  1  0.45789861  0.54210139  0.84543489  1
  Sb  Sb52  1  0.42089437  0.57910563  0.30465205  1
  Sb  Sb53  1  0.57910563  0.42089437  0.69534795  1
  Sb  Sb54  1  0.07910563  0.92089437  0.80465205  1
  Sb  Sb55  1  0.92089437  0.07910563  0.19534795  1
  Sb  Sb56  1  0.33736828  0.03232587  0.57635884  1
  Sb  Sb57  1  0.03232587  0.33736828  0.42364116  1
  Sb  Sb58  1  0.16263172  0.46767413  0.07635884  1
  Sb  Sb59  1  0.46767413  0.16263172  0.92364116  1
  Sb  Sb60  1  0.66263172  0.96767413  0.42364116  1
  Sb  Sb61  1  0.96767413  0.66263172  0.57635884  1
  Sb  Sb62  1  0.83736828  0.53232587  0.92364116  1
  Sb  Sb63  1  0.53232587  0.83736828  0.07635884  1
