# generated using pymatgen
data_Na2Hf2Si2SO12
_symmetry_space_group_name_H-M   'P 1'
_cell_length_a   9.04376859
_cell_length_b   9.04376828
_cell_length_c   23.12075851
_cell_angle_alpha   89.72381618
_cell_angle_beta   90.27618382
_cell_angle_gamma   119.73109047
_symmetry_Int_Tables_number   1
_chemical_formula_structural   Na2Hf2Si2SO12
_chemical_formula_sum   'Na12 Hf12 Si12 S6 O72'
_cell_volume   1642.08365122
_cell_formula_units_Z   6
loop_
 _symmetry_equiv_pos_site_id
 _symmetry_equiv_pos_as_xyz
  1  'x, y, z'
loop_
 _atom_site_type_symbol
 _atom_site_label
 _atom_site_symmetry_multiplicity
 _atom_site_fract_x
 _atom_site_fract_y
 _atom_site_fract_z
 _atom_site_occupancy
  Na  Na0  1  0.99398461  0.62647853  0.25300436  1
  Na  Na1  1  0.37352147  0.00601539  0.75300436  1
  Na  Na2  1  0.66065161  0.95981153  0.58633736  1
  Na  Na3  1  0.04018847  0.33934839  0.08633736  1
  Na  Na4  1  0.32731761  0.29314553  0.91967136  1
  Na  Na5  1  0.70685447  0.67268239  0.41967136  1
  Na  Na6  1  0.01081120  0.98928148  0.50071593  1
  Na  Na7  1  0.01071852  0.98918880  0.00071593  1
  Na  Na8  1  0.67747820  0.32261448  0.83404893  1
  Na  Na9  1  0.67738552  0.32252180  0.33404893  1
  Na  Na10  1  0.34414420  0.65594848  0.16738293  1
  Na  Na11  1  0.34405152  0.65585580  0.66738293  1
  Hf  Hf12  1  0.98374207  0.99460803  0.35310704  1
  Hf  Hf13  1  0.00539197  0.01625793  0.85310704  1
  Hf  Hf14  1  0.99970802  0.99936092  0.64732014  1
  Hf  Hf15  1  0.00063908  0.00029198  0.14732014  1
  Hf  Hf16  1  0.65040907  0.32794103  0.68644004  1
  Hf  Hf17  1  0.67205897  0.34959093  0.18644004  1
  Hf  Hf18  1  0.66637502  0.33269392  0.98065314  1
  Hf  Hf19  1  0.66730608  0.33362498  0.48065314  1
  Hf  Hf20  1  0.31707507  0.66127503  0.01977404  1
  Hf  Hf21  1  0.33872497  0.68292493  0.51977404  1
  Hf  Hf22  1  0.33304102  0.66602792  0.31398714  1
  Hf  Hf23  1  0.33397208  0.66695898  0.81398714  1
  Si  Si24  1  0.70455338  0.71127602  0.24974087  1
  Si  Si25  1  0.99952078  0.29202837  0.24869966  1
  Si  Si26  1  0.28872398  0.29544662  0.74974087  1
  Si  Si27  1  0.70797163  0.00047922  0.74869966  1
  Si  Si28  1  0.37122038  0.04460902  0.58307387  1
  Si  Si29  1  0.66618778  0.62536137  0.58203266  1
  Si  Si30  1  0.95539098  0.62877962  0.08307387  1
  Si  Si31  1  0.37463863  0.33381222  0.08203266  1
  Si  Si32  1  0.03788638  0.37794302  0.91640787  1
  Si  Si33  1  0.33285378  0.95869537  0.91536666  1
  Si  Si34  1  0.62205698  0.96211362  0.41640787  1
  Si  Si35  1  0.04130463  0.66714622  0.41536666  1
  S  S36  1  0.29143350  0.00283304  0.25078793  1
  S  S37  1  0.99716696  0.70856650  0.75078793  1
  S  S38  1  0.95810050  0.33616604  0.58412093  1
  S  S39  1  0.66383396  0.04189950  0.08412093  1
  S  S40  1  0.62476650  0.66950004  0.91745493  1
  S  S41  1  0.33049996  0.37523350  0.41745493  1
  O  O42  1  0.21297850  0.02752316  0.30236716  1
  O  O43  1  0.82703082  0.79169562  0.30747447  1
  O  O44  1  0.98231444  0.17437043  0.30485317  1
  O  O45  1  0.20830438  0.17296918  0.80747447  1
  O  O46  1  0.97247684  0.78702150  0.80236716  1
  O  O47  1  0.82562957  0.01768556  0.80485317  1
  O  O48  1  0.79402945  0.97324688  0.69030753  1
  O  O49  1  0.17026407  0.19376979  0.69446249  1
  O  O50  1  0.02693898  0.81713294  0.69855578  1
  O  O51  1  0.80623021  0.82973593  0.19446249  1
  O  O52  1  0.02675312  0.20597055  0.19030753  1
  O  O53  1  0.18286706  0.97306102  0.19855578  1
  O  O54  1  0.87964550  0.36085616  0.63570016  1
  O  O55  1  0.49369782  0.12502862  0.64080747  1
  O  O56  1  0.64898144  0.50770343  0.63818617  1
  O  O57  1  0.87497138  0.50630218  0.14080747  1
  O  O58  1  0.63914384  0.12035450  0.13570016  1
  O  O59  1  0.49229657  0.35101856  0.13818617  1
  O  O60  1  0.46069645  0.30657988  0.02364053  1
  O  O61  1  0.83693107  0.52710279  0.02779549  1
  O  O62  1  0.69360598  0.15046594  0.03188878  1
  O  O63  1  0.47289721  0.16306893  0.52779549  1
  O  O64  1  0.69342012  0.53930355  0.52364053  1
  O  O65  1  0.84953406  0.30639402  0.53188878  1
  O  O66  1  0.54631150  0.69419016  0.96903416  1
  O  O67  1  0.16036382  0.45836262  0.97414147  1
  O  O68  1  0.31564744  0.84103743  0.97152017  1
  O  O69  1  0.54163738  0.83963618  0.47414147  1
  O  O70  1  0.30580984  0.45368850  0.46903416  1
  O  O71  1  0.15896257  0.68435256  0.47152017  1
  O  O72  1  0.12736245  0.63991388  0.35697453  1
  O  O73  1  0.50359707  0.86043679  0.36112949  1
  O  O74  1  0.36027198  0.48379994  0.36522278  1
  O  O75  1  0.13956321  0.49640293  0.86112949  1
  O  O76  1  0.36008612  0.87263755  0.85697453  1
  O  O77  1  0.51620006  0.63972802  0.86522278  1
  O  O78  1  0.02319402  0.83934590  0.41022339  1
  O  O79  1  0.80972000  0.97286342  0.41064910  1
  O  O80  1  0.18353207  0.20364448  0.40968198  1
  O  O81  1  0.02713658  0.19028000  0.91064910  1
  O  O82  1  0.16065410  0.97680598  0.91022339  1
  O  O83  1  0.79635552  0.81646793  0.90968198  1
  O  O84  1  0.96882387  0.17638218  0.58910757  1
  O  O85  1  0.18280475  0.02177473  0.59012326  1
  O  O86  1  0.82855592  0.82102456  0.58881817  1
  O  O87  1  0.97822527  0.81719525  0.09012326  1
  O  O88  1  0.82361782  0.03117613  0.08910757  1
  O  O89  1  0.17897544  0.17144408  0.08881817  1
  O  O90  1  0.68986102  0.17267890  0.74355639  1
  O  O91  1  0.47638700  0.30619642  0.74398210  1
  O  O92  1  0.85019907  0.53697748  0.74301498  1
  O  O93  1  0.69380358  0.52361300  0.24398210  1
  O  O94  1  0.82732110  0.31013898  0.24355639  1
  O  O95  1  0.46302252  0.14980093  0.24301498  1
  O  O96  1  0.63549087  0.50971518  0.92244057  1
  O  O97  1  0.84947175  0.35510773  0.92345626  1
  O  O98  1  0.49522292  0.15435756  0.92215117  1
  O  O99  1  0.64489227  0.15052825  0.42345626  1
  O  O100  1  0.49028482  0.36450913  0.42244057  1
  O  O101  1  0.84564244  0.50477708  0.42215117  1
  O  O102  1  0.35652702  0.50601290  0.07689039  1
  O  O103  1  0.14305300  0.63953042  0.07731610  1
  O  O104  1  0.51686507  0.87031148  0.07634898  1
  O  O105  1  0.36046958  0.85694700  0.57731610  1
  O  O106  1  0.49398710  0.64347298  0.57689039  1
  O  O107  1  0.12968852  0.48313493  0.57634898  1
  O  O108  1  0.30215687  0.84304918  0.25577457  1
  O  O109  1  0.51613775  0.68844173  0.25679026  1
  O  O110  1  0.16188892  0.48769156  0.25548517  1
  O  O111  1  0.31155827  0.48386225  0.75679026  1
  O  O112  1  0.15695082  0.69784313  0.75577457  1
  O  O113  1  0.51230844  0.83811108  0.75548517  1
