# generated using pymatgen
data_Na3La2Mg2PS5O24
_symmetry_space_group_name_H-M   'P 1'
_cell_length_a   9.12409203
_cell_length_b   9.16458328
_cell_length_c   23.89544994
_cell_angle_alpha   90.28609841
_cell_angle_beta   89.77517721
_cell_angle_gamma   119.98279674
_symmetry_Int_Tables_number   1
_chemical_formula_structural   Na3La2Mg2PS5O24
_chemical_formula_sum   'Na9 La6 Mg6 P3 S15 O72'
_cell_volume   1730.68280191
_cell_formula_units_Z   3
loop_
 _symmetry_equiv_pos_site_id
 _symmetry_equiv_pos_as_xyz
  1  'x, y, z'
loop_
 _atom_site_type_symbol
 _atom_site_label
 _atom_site_symmetry_multiplicity
 _atom_site_fract_x
 _atom_site_fract_y
 _atom_site_fract_z
 _atom_site_occupancy
  Na  Na0  1  0.36693792  0.99176447  0.75002541  1
  Na  Na1  1  0.65653847  0.97144458  0.58866083  1
  Na  Na2  1  0.67447032  0.69232667  0.08258893  1
  Na  Na3  1  0.02885156  0.00187300  0.51002621  1
  Na  Na4  1  0.01818164  0.00358425  0.00837455  1
  Na  Na5  1  0.68215553  0.33632761  0.83284916  1
  Na  Na6  1  0.66739722  0.33385202  0.33270391  1
  Na  Na7  1  0.30569369  0.66393808  0.16734263  1
  Na  Na8  1  0.33075327  0.65857298  0.66748921  1
  La  La9  1  0.00074980  0.99948187  0.35528424  1
  La  La10  1  0.98526864  0.00023547  0.85479527  1
  La  La11  1  0.67070961  0.33397572  0.67868904  1
  La  La12  1  0.67650871  0.33611149  0.18104568  1
  La  La13  1  0.67374911  0.33627988  0.98311034  1
  La  La14  1  0.65460034  0.32831891  0.48257537  1
  Mg  Mg15  1  0.00182326  0.99957377  0.65259856  1
  Mg  Mg16  1  0.01132056  0.99944875  0.15232757  1
  Mg  Mg17  1  0.31962398  0.66930229  0.01692414  1
  Mg  Mg18  1  0.32700154  0.66920698  0.51640736  1
  Mg  Mg19  1  0.33281144  0.66617240  0.31505167  1
  Mg  Mg20  1  0.34482385  0.66831714  0.81492363  1
  P  P21  1  0.69008627  0.98599078  0.74594843  1
  P  P22  1  0.34618798  0.01086424  0.58509111  1
  P  P23  1  0.98306332  0.65573568  0.08349232  1
  S  S24  1  0.29268381  0.98534640  0.24863899  1
  S  S25  1  0.69128940  0.70819110  0.24792190  1
  S  S26  1  0.01718957  0.30415263  0.24913604  1
  S  S27  1  0.28913555  0.30102787  0.74890737  1
  S  S28  1  0.01336001  0.70966245  0.74970226  1
  S  S29  1  0.98638022  0.33133612  0.58160581  1
  S  S30  1  0.66699242  0.65368979  0.58251059  1
  S  S31  1  0.66723232  0.01308638  0.08288152  1
  S  S32  1  0.35027539  0.33573748  0.08285942  1
  S  S33  1  0.60495225  0.66150126  0.91924683  1
  S  S34  1  0.06064175  0.39638322  0.91587709  1
  S  S35  1  0.33569811  0.94550628  0.91505038  1
  S  S36  1  0.60641875  0.94185724  0.41732590  1
  S  S37  1  0.33487150  0.39669484  0.41636368  1
  S  S38  1  0.05503040  0.66217419  0.41635193  1
  O  O39  1  0.21736251  0.01063780  0.30058149  1
  O  O40  1  0.79774021  0.79017272  0.29803475  1
  O  O41  1  0.99551592  0.20571620  0.30078130  1
  O  O42  1  0.21598498  0.19638004  0.79991150  1
  O  O43  1  0.99137007  0.78568365  0.80176953  1
  O  O44  1  0.79866923  0.01091075  0.79851700  1
  O  O45  1  0.77965395  0.97743074  0.69205069  1
  O  O46  1  0.18694187  0.21348410  0.69907836  1
  O  O47  1  0.03047050  0.81651177  0.70078054  1
  O  O48  1  0.77684296  0.80438033  0.19650323  1
  O  O49  1  0.02654088  0.21292158  0.19927346  1
  O  O50  1  0.18984124  0.97345168  0.19928928  1
  O  O51  1  0.91509714  0.36903447  0.63238879  1
  O  O52  1  0.46341251  0.08904888  0.63790444  1
  O  O53  1  0.63847190  0.54913887  0.63295687  1
  O  O54  1  0.90002499  0.53885926  0.13483372  1
  O  O55  1  0.63195855  0.08804852  0.13253986  1
  O  O56  1  0.46616429  0.37095687  0.13159847  1
  O  O57  1  0.42718695  0.29955882  0.03309512  1
  O  O58  1  0.85541855  0.56866896  0.03357964  1
  O  O59  1  0.69617359  0.12200927  0.03324818  1
  O  O60  1  0.43934520  0.13567312  0.53570676  1
  O  O61  1  0.69892633  0.57340302  0.53336530  1
  O  O62  1  0.86616005  0.29738585  0.53412547  1
  O  O63  1  0.51970928  0.66388398  0.97172293  1
  O  O64  1  0.14683426  0.48192675  0.96768692  1
  O  O65  1  0.33253757  0.85162899  0.96482438  1
  O  O66  1  0.52496105  0.85678615  0.47022424  1
  O  O67  1  0.33353872  0.48392728  0.46782736  1
  O  O68  1  0.14559974  0.66772846  0.46763550  1
  O  O69  1  0.14015850  0.65782122  0.36448758  1
  O  O70  1  0.51334190  0.85316541  0.36689765  1
  O  O71  1  0.33739461  0.48374022  0.36470263  1
  O  O72  1  0.14726562  0.48479334  0.86435135  1
  O  O73  1  0.34101568  0.86450960  0.86163642  1
  O  O74  1  0.51571953  0.66031508  0.86831858  1
  O  O75  1  0.03530535  0.81589778  0.41755054  1
  O  O76  1  0.78019357  0.96223248  0.41753197  1
  O  O77  1  0.18244372  0.22251308  0.41801910  1
  O  O78  1  0.04096575  0.22365345  0.91778459  1
  O  O79  1  0.18233714  0.96562024  0.91678471  1
  O  O80  1  0.77906878  0.81437974  0.92074487  1
  O  O81  1  0.99040020  0.17251478  0.59006245  1
  O  O82  1  0.17144781  0.99456879  0.59390819  1
  O  O83  1  0.81740573  0.82514473  0.58987208  1
  O  O84  1  0.98767138  0.82570617  0.09271141  1
  O  O85  1  0.82069429  0.99836187  0.09141921  1
  O  O86  1  0.18186747  0.18773058  0.09279238  1
  O  O87  1  0.66191043  0.14322004  0.74546679  1
  O  O88  1  0.46174598  0.31789206  0.74436173  1
  O  O89  1  0.86391312  0.53778102  0.74547110  1
  O  O90  1  0.66960726  0.53476684  0.24576121  1
  O  O91  1  0.86349602  0.32403549  0.24706457  1
  O  O92  1  0.46586828  0.13642780  0.24484520  1
  O  O93  1  0.62576004  0.50875392  0.91743285  1
  O  O94  1  0.88489276  0.37350582  0.91452219  1
  O  O95  1  0.48987520  0.11886909  0.91590669  1
  O  O96  1  0.62784908  0.11601827  0.41635197  1
  O  O97  1  0.48880839  0.37546436  0.41527420  1
  O  O98  1  0.88068112  0.50979477  0.41646744  1
  O  O99  1  0.34248069  0.49201391  0.07412559  1
  O  O100  1  0.15754150  0.67455538  0.07330078  1
  O  O101  1  0.51991691  0.84108453  0.07398323  1
  O  O102  1  0.34193027  0.84246198  0.57449763  1
  O  O103  1  0.51544893  0.67126175  0.57420852  1
  O  O104  1  0.15491212  0.47603642  0.57132037  1
  O  O105  1  0.30528722  0.83039879  0.25318240  1
  O  O106  1  0.52358332  0.69532673  0.25415403  1
  O  O107  1  0.17052881  0.47354050  0.25327444  1
  O  O108  1  0.30604252  0.46943465  0.75518046  1
  O  O109  1  0.17062331  0.69889471  0.75368601  1
  O  O110  1  0.51131924  0.82806341  0.75271053  1
