# generated using pymatgen
data_Na10YTa7(SiO4)12
_symmetry_space_group_name_H-M   'P 1'
_cell_length_a   18.14438949
_cell_length_b   9.08528630
_cell_length_c   22.65542850
_cell_angle_alpha   89.99585286
_cell_angle_beta   90.00825562
_cell_angle_gamma   120.13564830
_symmetry_Int_Tables_number   1
_chemical_formula_structural   Na10YTa7(SiO4)12
_chemical_formula_sum   'Na30 Y3 Ta21 Si36 O144'
_cell_volume   3229.89668932
_cell_formula_units_Z   3
loop_
 _symmetry_equiv_pos_site_id
 _symmetry_equiv_pos_as_xyz
  1  'x, y, z'
loop_
 _atom_site_type_symbol
 _atom_site_label
 _atom_site_symmetry_multiplicity
 _atom_site_fract_x
 _atom_site_fract_y
 _atom_site_fract_z
 _atom_site_occupancy
  Na  Na0  1  0.81550609  0.00838056  0.24849711  1
  Na  Na1  1  0.18517672  0.36743420  0.24901829  1
  Na  Na2  1  0.68578031  0.36439949  0.24782957  1
  Na  Na3  1  0.99632614  0.62436192  0.24847724  1
  Na  Na4  1  0.31599685  0.62340904  0.74920857  1
  Na  Na5  1  0.81645170  0.62369512  0.74863342  1
  Na  Na6  1  0.99529371  0.36673860  0.74816999  1
  Na  Na7  1  0.49509569  0.36593427  0.74829109  1
  Na  Na8  1  0.18832579  0.00966297  0.74932313  1
  Na  Na9  1  0.68848839  0.01020816  0.74869814  1
  Na  Na10  1  0.15429198  0.33859854  0.58389194  1
  Na  Na11  1  0.65548663  0.33862629  0.58332822  1
  Na  Na12  1  0.33219358  0.97245178  0.58345547  1
  Na  Na13  1  0.83271642  0.97436026  0.58313006  1
  Na  Na14  1  0.65172426  0.96878415  0.08460920  1
  Na  Na15  1  0.83098286  0.68960147  0.08326623  1
  Na  Na16  1  0.01674667  0.33906179  0.08245000  1
  Na  Na17  1  0.48381126  0.30009546  0.41644547  1
  Na  Na18  1  0.99975034  0.99173458  0.49717566  1
  Na  Na19  1  0.50132280  0.98556268  0.49805877  1
  Na  Na20  1  0.00519776  0.00030641  0.99742669  1
  Na  Na21  1  0.49488941  -0.00000831  0.99969392  1
  Na  Na22  1  0.33288837  0.33300719  0.83562978  1
  Na  Na23  1  0.83360020  0.33331790  0.83429187  1
  Na  Na24  1  0.33332595  0.33345554  0.33165855  1
  Na  Na25  1  0.83287451  0.33216254  0.33350513  1
  Na  Na26  1  0.17476687  0.68494555  0.16373082  1
  Na  Na27  1  0.65796105  0.65561982  0.16584141  1
  Na  Na28  1  0.16165896  0.66637470  0.66523464  1
  Na  Na29  1  0.66202693  0.66697456  0.66492252  1
  Y  Y30  1  0.33434231  0.33494131  0.68326521  1
  Y  Y31  1  0.83436702  0.33528497  0.68265779  1
  Y  Y32  1  0.83237021  0.33271574  0.18336413  1
  Ta  Ta33  1  0.00174705  0.00168881  0.35721770  1
  Ta  Ta34  1  0.49736771  0.99468468  0.35471711  1
  Ta  Ta35  1  0.00014540  0.00092455  0.85904781  1
  Ta  Ta36  1  0.49998220  0.99961846  0.85877016  1
  Ta  Ta37  1  0.99980276  0.99633416  0.64544492  1
  Ta  Ta38  1  0.50031310  0.99721365  0.64544382  1
  Ta  Ta39  1  0.00352603  0.00118400  0.14511051  1
  Ta  Ta40  1  0.49618780  0.99748281  0.14450175  1
  Ta  Ta41  1  0.33639275  0.33363898  0.18693909  1
  Ta  Ta42  1  0.33282003  0.33250981  0.97793775  1
  Ta  Ta43  1  0.83363492  0.33448400  0.97807473  1
  Ta  Ta44  1  0.33070539  0.33510704  0.47894980  1
  Ta  Ta45  1  0.83418705  0.33361939  0.47788441  1
  Ta  Ta46  1  0.17176780  0.67446709  0.01999107  1
  Ta  Ta47  1  0.66199269  0.65988164  0.01765832  1
  Ta  Ta48  1  0.16462794  0.66597855  0.51589095  1
  Ta  Ta49  1  0.66573746  0.66833420  0.51596845  1
  Ta  Ta50  1  0.16988801  0.67174454  0.31273486  1
  Ta  Ta51  1  0.66385464  0.66552298  0.31268362  1
  Ta  Ta52  1  0.16677597  0.66660421  0.81533900  1
  Ta  Ta53  1  0.66680554  0.66653961  0.81505616  1
  Si  Si54  1  0.14504354  0.00005267  0.25111350  1
  Si  Si55  1  0.63991401  0.99247345  0.25050428  1
  Si  Si56  1  0.35637156  0.71128109  0.24995402  1
  Si  Si57  1  0.85626332  0.71753898  0.25168351  1
  Si  Si58  1  0.00257686  0.28891753  0.25198886  1
  Si  Si59  1  0.49820766  0.28450787  0.25068511  1
  Si  Si60  1  0.14111916  0.28816112  0.75198832  1
  Si  Si61  1  0.64138871  0.28829449  0.75203149  1
  Si  Si62  1  0.00279987  0.71768304  0.75315551  1
  Si  Si63  1  0.50290144  0.71749937  0.75290849  1
  Si  Si64  1  0.35580926  0.99454012  0.75212778  1
  Si  Si65  1  0.85591177  0.99501092  0.75231746  1
  Si  Si66  1  0.48277985  0.33635541  0.58233166  1
  Si  Si67  1  0.98248777  0.33618579  0.58325828  1
  Si  Si68  1  0.18420626  0.03325162  0.58291885  1
  Si  Si69  1  0.68507670  0.03533951  0.58248788  1
  Si  Si70  1  0.33344552  0.63107762  0.58236312  1
  Si  Si71  1  0.83371520  0.62932588  0.58181166  1
  Si  Si72  1  0.47631750  0.62121805  0.08234211  1
  Si  Si73  1  0.98292223  0.63016150  0.08260111  1
  Si  Si74  1  0.33331960  0.04778531  0.08272909  1
  Si  Si75  1  0.83282101  0.03597828  0.08224826  1
  Si  Si76  1  0.19177422  0.33717331  0.08388868  1
  Si  Si77  1  0.68374618  0.33215388  0.08235827  1
  Si  Si78  1  0.31186633  0.66372300  0.91653477  1
  Si  Si79  1  0.81099956  0.66491163  0.91750868  1
  Si  Si80  1  0.02232219  0.37923704  0.91860917  1
  Si  Si81  1  0.51909297  0.37454627  0.91541069  1
  Si  Si82  1  0.16766021  0.95707895  0.91696569  1
  Si  Si83  1  0.66756249  0.95857897  0.91716782  1
  Si  Si84  1  0.31156301  0.95891917  0.41694461  1
  Si  Si85  1  0.81221068  0.95785639  0.41539289  1
  Si  Si86  1  0.16728734  0.37721304  0.41558736  1
  Si  Si87  1  0.66841556  0.37615775  0.41499046  1
  Si  Si88  1  0.02115061  0.66440561  0.41423815  1
  Si  Si89  1  0.52033624  0.66887631  0.41611451  1
  O  O90  1  0.09921073  0.03111983  0.30766411  1
  O  O91  1  0.58864166  0.01628173  0.30587416  1
  O  O92  1  0.41408439  0.80649625  0.30807536  1
  O  O93  1  0.91938663  0.82014226  0.30631025  1
  O  O94  1  0.48552127  0.17181109  0.31039421  1
  O  O95  1  0.99331421  0.16691365  0.30704144  1
  O  O96  1  0.09056363  0.16534507  0.80718568  1
  O  O97  1  0.59068500  0.16495287  0.80712040  1
  O  O98  1  0.49173496  0.81684234  0.80837480  1
  O  O99  1  0.99170498  0.81755285  0.80843520  1
  O  O100  1  0.41745029  0.01578840  0.80716591  1
  O  O101  1  0.91717696  0.01552916  0.80740388  1
  O  O102  1  0.40067497  0.96782640  0.69159655  1
  O  O103  1  0.90050800  0.96786877  0.69175021  1
  O  O104  1  0.08305890  0.19892726  0.69140180  1
  O  O105  1  0.58309859  0.19937271  0.69143212  1
  O  O106  1  0.01624913  0.83888571  0.69396757  1
  O  O107  1  0.51632909  0.83912713  0.69393627  1
  O  O108  1  0.40300102  0.83231025  0.19278418  1
  O  O109  1  0.90151930  0.83507449  0.19179082  1
  O  O110  1  0.01635643  0.19844118  0.19221446  1
  O  O111  1  0.51568507  0.19149182  0.19459987  1
  O  O112  1  0.08155746  0.96667124  0.19355310  1
  O  O113  1  0.58513521  0.97324687  0.19055467  1
  O  O114  1  0.45194604  0.37316357  0.64456532  1
  O  O115  1  0.95339409  0.37399956  0.64600284  1
  O  O116  1  0.23875373  0.09261214  0.64362702  1
  O  O117  1  0.73841245  0.09178884  0.64384037  1
  O  O118  1  0.30650429  0.52065404  0.64275130  1
  O  O119  1  0.80631623  0.52176892  0.64291487  1
  O  O120  1  0.42985705  0.50096359  0.14041977  1
  O  O121  1  0.95270868  0.52267925  0.14376300  1
  O  O122  1  0.32021374  0.14191758  0.14071715  1
  O  O123  1  0.80759670  0.09287859  0.14339794  1
  O  O124  1  0.24809093  0.35978315  0.14346855  1
  O  O125  1  0.73845724  0.38606304  0.14338023  1
  O  O126  1  0.23767760  0.30724571  0.02705473  1
  O  O127  1  0.73676680  0.30195917  0.02896533  1
  O  O128  1  0.41640001  0.52589412  0.02549408  1
  O  O129  1  0.91439493  0.52850481  0.02894451  1
  O  O130  1  0.34692642  0.16807944  0.02561007  1
  O  O131  1  0.84975029  0.17238833  0.02908849  1
  O  O132  1  0.23674910  0.16947484  0.52873222  1
  O  O133  1  0.73632969  0.17097624  0.52878596  1
  O  O134  1  0.34605205  0.52481180  0.52799160  1
  O  O135  1  0.84618421  0.52356438  0.52782869  1
  O  O136  1  0.41704109  0.30310952  0.52669336  1
  O  O137  1  0.91413571  0.30151565  0.52963140  1
  O  O138  1  0.26370453  0.69112155  0.97244686  1
  O  O139  1  0.76274458  0.68970456  0.97396182  1
  O  O140  1  0.08238125  0.47114144  0.97587383  1
  O  O141  1  0.58130681  0.47441350  0.97087758  1
  O  O142  1  0.15609888  0.83279652  0.97211770  1
  O  O143  1  0.65369532  0.83910636  0.97474450  1
  O  O144  1  0.26674084  0.84195127  0.47462052  1
  O  O145  1  0.76557661  0.83874792  0.47286553  1
  O  O146  1  0.15597438  0.47014656  0.47345387  1
  O  O147  1  0.65191678  0.46761970  0.47174851  1
  O  O148  1  0.08273910  0.68975017  0.47033920  1
  O  O149  1  0.58125661  0.69201968  0.47227047  1
  O  O150  1  0.06838140  0.63939154  0.35601981  1
  O  O151  1  0.56814068  0.63455125  0.36010775  1
  O  O152  1  0.25028332  0.85960475  0.36004979  1
  O  O153  1  0.75056794  0.86056842  0.35789116  1
  O  O154  1  0.18004098  0.49721155  0.35769082  1
  O  O155  1  0.67941004  0.49576328  0.35703551  1
  O  O156  1  0.06905008  0.49779259  0.85914278  1
  O  O157  1  0.56760024  0.49525993  0.85702103  1
  O  O158  1  0.17987272  0.86345183  0.85750402  1
  O  O159  1  0.67982581  0.86218542  0.85872938  1
  O  O160  1  0.25216087  0.63976805  0.85750598  1
  O  O161  1  0.75145977  0.64012420  0.85840777  1
  O  O162  1  0.01314176  0.83491808  0.40880328  1
  O  O163  1  0.51040603  0.83621049  0.41022900  1
  O  O164  1  0.40737427  0.98472501  0.41081963  1
  O  O165  1  0.90630612  0.97636223  0.40901834  1
  O  O166  1  0.08298272  0.18857081  0.41049294  1
  O  O167  1  0.57978064  0.19152705  0.40887599  1
  O  O168  1  0.01238631  0.19068993  0.91059376  1
  O  O169  1  0.51205864  0.18891622  0.91006124  1
  O  O170  1  0.08262522  0.97492492  0.91056207  1
  O  O171  1  0.58269005  0.97622018  0.91019526  1
  O  O172  1  0.40536113  0.83514412  0.91018210  1
  O  O173  1  0.90496063  0.83501000  0.91081831  1
  O  O174  1  0.48902046  0.15992595  0.58704009  1
  O  O175  1  0.98917832  0.16018452  0.58751202  1
  O  O176  1  0.09306577  0.02986870  0.58782987  1
  O  O177  1  0.59305227  0.02936511  0.58821729  1
  O  O178  1  0.41803784  0.82157201  0.58759499  1
  O  O179  1  0.91765970  0.82137164  0.58792630  1
  O  O180  1  0.48952954  0.81309281  0.09059856  1
  O  O181  1  0.98652096  0.81538564  0.08815155  1
  O  O182  1  0.41752183  0.02682852  0.09222239  1
  O  O183  1  0.92055704  0.02326534  0.08743359  1
  O  O184  1  0.09456642  0.16863389  0.09210890  1
  O  O185  1  0.59193582  0.15451380  0.08713754  1
  O  O186  1  0.34488077  0.16045271  0.75134230  1
  O  O187  1  0.84464732  0.16060153  0.75148202  1
  O  O188  1  0.23518390  0.30970899  0.75088611  1
  O  O189  1  0.73537867  0.30986158  0.75089158  1
  O  O190  1  0.41945131  0.52983503  0.75123263  1
  O  O191  1  0.91929125  0.52992455  0.75127613  1
  O  O192  1  0.34198557  0.51863380  0.24369403  1
  O  O193  1  0.84593691  0.53004907  0.25150546  1
  O  O194  1  0.41547279  0.30901205  0.24301074  1
  O  O195  1  0.91852662  0.30766064  0.25156925  1
  O  O196  1  0.23741518  0.17283367  0.24319085  1
  O  O197  1  0.73410725  0.16119288  0.25165833  1
  O  O198  1  0.31973555  0.49404350  0.92331177  1
  O  O199  1  0.81928750  0.49454235  0.92467476  1
  O  O200  1  0.42648791  0.35901664  0.92276237  1
  O  O201  1  0.92832358  0.36223850  0.92516199  1
  O  O202  1  0.25222927  0.14448188  0.92363200  1
  O  O203  1  0.75317819  0.14513540  0.92452744  1
  O  O204  1  0.32384165  0.15030331  0.42373294  1
  O  O205  1  0.81998009  0.14414463  0.42454230  1
  O  O206  1  0.25299941  0.36000742  0.42360275  1
  O  O207  1  0.75240512  0.35725321  0.42355071  1
  O  O208  1  0.42877770  0.49173118  0.42402314  1
  O  O209  1  0.92776395  0.49399264  0.42418968  1
  O  O210  1  0.17598613  0.49967536  0.07697969  1
  O  O211  1  0.67364564  0.49853364  0.06985904  1
  O  O212  1  0.07546733  0.64802262  0.07060213  1
  O  O213  1  0.57374556  0.65107425  0.07600862  1
  O  O214  1  0.24974458  0.85711861  0.07589375  1
  O  O215  1  0.75091348  0.84520589  0.07083371  1
  O  O216  1  0.17426507  0.84797122  0.57007043  1
  O  O217  1  0.67473526  0.84867019  0.56993310  1
  O  O218  1  0.25207568  0.65837137  0.57000999  1
  O  O219  1  0.75217144  0.65757116  0.56917557  1
  O  O220  1  0.07952095  0.49288107  0.57139485  1
  O  O221  1  0.58002620  0.49292991  0.57119513  1
  O  O222  1  0.15029115  0.82512054  0.25678884  1
  O  O223  1  0.65000188  0.82259389  0.25755248  1
  O  O224  1  0.26046434  0.68788978  0.25733633  1
  O  O225  1  0.76188055  0.70324503  0.25659823  1
  O  O226  1  0.08986695  0.47701402  0.25649252  1
  O  O227  1  0.58710098  0.47131876  0.25746670  1
  O  O228  1  0.14672380  0.47517763  0.75657595  1
  O  O229  1  0.64707277  0.47539323  0.75661660  1
  O  O230  1  0.09042285  0.70540427  0.75656629  1
  O  O231  1  0.59074177  0.70627364  0.75654526  1
  O  O232  1  0.26209743  0.81835353  0.75643356  1
  O  O233  1  0.76210635  0.81846338  0.75666680  1
