# generated using pymatgen
data_Na7MgIn3(PO4)6
_symmetry_space_group_name_H-M   'P 1'
_cell_length_a   9.11529727
_cell_length_b   9.12288439
_cell_length_c   22.42500216
_cell_angle_alpha   89.92096305
_cell_angle_beta   90.01542396
_cell_angle_gamma   119.99349940
_symmetry_Int_Tables_number   1
_chemical_formula_structural   Na7MgIn3(PO4)6
_chemical_formula_sum   'Na21 Mg3 In9 P18 O72'
_cell_volume   1615.08027516
_cell_formula_units_Z   3
loop_
 _symmetry_equiv_pos_site_id
 _symmetry_equiv_pos_as_xyz
  1  'x, y, z'
loop_
 _atom_site_type_symbol
 _atom_site_label
 _atom_site_symmetry_multiplicity
 _atom_site_fract_x
 _atom_site_fract_y
 _atom_site_fract_z
 _atom_site_occupancy
  Na  Na0  1  0.63577400  0.00489601  0.24466456  1
  Na  Na1  1  0.36841834  0.36247064  0.24521290  1
  Na  Na2  1  0.99368255  0.63117871  0.24385255  1
  Na  Na3  1  0.63696106  0.63022935  0.74611484  1
  Na  Na4  1  0.99306585  0.36234918  0.74720933  1
  Na  Na5  1  0.37244321  0.00718072  0.74634715  1
  Na  Na6  1  0.02836743  0.69720522  0.58519781  1
  Na  Na7  1  0.66638663  0.97003456  0.58471868  1
  Na  Na8  1  0.30446133  0.97100434  0.08576372  1
  Na  Na9  1  0.66890804  0.69617167  0.08598297  1
  Na  Na10  1  0.69658088  0.03061076  0.92103298  1
  Na  Na11  1  0.33330289  0.30208530  0.92018988  1
  Na  Na12  1  0.96880591  0.29622660  0.41267236  1
  Na  Na13  1  0.32726968  0.03064048  0.41332858  1
  Na  Na14  1  0.70571027  0.67414534  0.41265815  1
  Na  Na15  1  0.01309302  0.01362244  0.49942582  1
  Na  Na16  1  0.99989655  0.99951526  0.00264398  1
  Na  Na17  1  0.67953548  0.34702753  0.83421522  1
  Na  Na18  1  0.66673220  0.33323199  0.32797077  1
  Na  Na19  1  0.31902973  0.65156056  0.16429806  1
  Na  Na20  1  0.33254505  0.65228765  0.66434965  1
  Mg  Mg21  1  0.00010437  0.00026675  0.34828574  1
  Mg  Mg22  1  0.66362593  0.33303847  0.68144879  1
  Mg  Mg23  1  0.67013844  0.33346981  0.18226917  1
  In  In24  1  0.00045532  0.99403647  0.84996525  1
  In  In25  1  0.00647621  0.00618889  0.64981427  1
  In  In26  1  0.00037511  0.00728722  0.15120502  1
  In  In27  1  0.67664562  0.33968148  0.98628027  1
  In  In28  1  0.66286556  0.33339695  0.48723251  1
  In  In29  1  0.32354743  0.66005635  0.01809003  1
  In  In30  1  0.33287703  0.66021275  0.51773133  1
  In  In31  1  0.33356960  0.66664323  0.31798357  1
  In  In32  1  0.32932998  0.66621495  0.81970216  1
  P  P33  1  0.29875402  0.00109817  0.25128558  1
  P  P34  1  0.70208614  0.70131740  0.25160769  1
  P  P35  1  0.99890537  0.29814203  0.25343817  1
  P  P36  1  0.30204553  0.30127389  0.75171565  1
  P  P37  1  0.99829101  0.69775215  0.74787121  1
  P  P38  1  0.69960085  0.00075754  0.74986187  1
  P  P39  1  0.96236310  0.33279163  0.58461812  1
  P  P40  1  0.36741784  0.03328099  0.58400927  1
  P  P41  1  0.66787917  0.63382175  0.58530935  1
  P  P42  1  0.96453155  0.63379835  0.08746549  1
  P  P43  1  0.66607583  0.03393343  0.08395798  1
  P  P44  1  0.37148179  0.33270377  0.08431372  1
  P  P45  1  0.63180734  0.66601215  0.91714107  1
  P  P46  1  0.03134742  0.36386979  0.91412740  1
  P  P47  1  0.33514463  0.96973604  0.91758857  1
  P  P48  1  0.63538253  0.96783269  0.41744634  1
  P  P49  1  0.33161133  0.36423489  0.41533953  1
  P  P50  1  0.03257847  0.66782581  0.41765329  1
  O  O51  1  0.21088641  0.02179112  0.30650415  1
  O  O52  1  0.81037081  0.78991526  0.30683149  1
  O  O53  1  0.97742614  0.19364456  0.30993870  1
  O  O54  1  0.22614590  0.19549976  0.80957414  1
  O  O55  1  0.96551990  0.78263525  0.80183960  1
  O  O56  1  0.81020012  0.02966647  0.80620595  1
  O  O57  1  0.78008519  0.96667453  0.69423179  1
  O  O58  1  0.17867557  0.21664644  0.69910147  1
  O  O59  1  0.03277630  0.80799995  0.69103675  1
  O  O60  1  0.77974570  0.80996179  0.19422495  1
  O  O61  1  0.03695673  0.21918519  0.19855841  1
  O  O62  1  0.18994626  0.96965995  0.19394143  1
  O  O63  1  0.87091033  0.35166384  0.63888923  1
  O  O64  1  0.47719866  0.12481566  0.63828281  1
  O  O65  1  0.65387196  0.52886959  0.64038402  1
  O  O66  1  0.88002678  0.53248487  0.14399350  1
  O  O67  1  0.64765756  0.12557670  0.13827328  1
  O  O68  1  0.48244864  0.35324393  0.13883273  1
  O  O69  1  0.44898012  0.30771311  0.02569074  1
  O  O70  1  0.85572395  0.55383209  0.03115706  1
  O  O71  1  0.68463535  0.12933516  0.02443632  1
  O  O72  1  0.44370066  0.12810087  0.52437162  1
  O  O73  1  0.69219470  0.55688251  0.52660687  1
  O  O74  1  0.86044376  0.30801186  0.52590717  1
  O  O75  1  0.54557707  0.69262143  0.97237934  1
  O  O76  1  0.15202667  0.45384364  0.96659543  1
  O  O77  1  0.31567868  0.86416149  0.97380569  1
  O  O78  1  0.55266832  0.85755002  0.47378183  1
  O  O79  1  0.29823589  0.44940952  0.46898282  1
  O  O80  1  0.14285127  0.69628491  0.47404064  1
  O  O81  1  0.11296133  0.63340889  0.36214493  1
  O  O82  1  0.52108932  0.88714224  0.36175776  1
  O  O83  1  0.36794513  0.47472532  0.35832988  1
  O  O84  1  0.10422734  0.45960765  0.85462987  1
  O  O85  1  0.35936208  0.88878572  0.86014583  1
  O  O86  1  0.52461895  0.63884948  0.85983514  1
  O  O87  1  0.01528705  0.82679359  0.41123459  1
  O  O88  1  0.81166790  0.98482712  0.41154788  1
  O  O89  1  0.17466811  0.18639348  0.41015122  1
  O  O90  1  0.01504171  0.18514483  0.91283470  1
  O  O91  1  0.17954143  0.99550687  0.91447969  1
  O  O92  1  0.80608308  0.83076812  0.91330895  1
  O  O93  1  0.97745494  0.17055015  0.58719054  1
  O  O94  1  0.18365782  0.00285206  0.58628296  1
  O  O95  1  0.82980440  0.81422869  0.58686270  1
  O  O96  1  0.98525334  0.81514262  0.08857597  1
  O  O97  1  0.81886722  0.00241495  0.08673435  1
  O  O98  1  0.19414551  0.17049912  0.08731416  1
  O  O99  1  0.68080959  0.15900133  0.74365863  1
  O  O100  1  0.47767374  0.31783390  0.74364538  1
  O  O101  1  0.84137402  0.51950827  0.74306194  1
  O  O102  1  0.68249681  0.52283110  0.24644878  1
  O  O103  1  0.83818629  0.31379140  0.24587130  1
  O  O104  1  0.47720524  0.16028213  0.24553216  1
  O  O105  1  0.64469549  0.50354004  0.92126855  1
  O  O106  1  0.85095466  0.33839130  0.92015926  1
  O  O107  1  0.49814670  0.14770564  0.92019509  1
  O  O108  1  0.65260878  0.14670232  0.42127827  1
  O  O109  1  0.49418576  0.34924185  0.42146840  1
  O  O110  1  0.85338556  0.50650752  0.42182997  1
  O  O111  1  0.36054348  0.49796336  0.08092762  1
  O  O112  1  0.14662598  0.65907713  0.08245182  1
  O  O113  1  0.50058709  0.85483810  0.08198870  1
  O  O114  1  0.35412209  0.85468794  0.58210541  1
  O  O115  1  0.51165935  0.65997024  0.58226681  1
  O  O116  1  0.13793961  0.49822893  0.58150578  1
  O  O117  1  0.31843299  0.83962878  0.25428426  1
  O  O118  1  0.52086678  0.68215865  0.25404118  1
  O  O119  1  0.15835029  0.48091367  0.25522020  1
  O  O120  1  0.32212480  0.48153872  0.75479636  1
  O  O121  1  0.16152821  0.68367154  0.75382569  1
  O  O122  1  0.52060302  0.83898070  0.75446596  1
