# generated using pymatgen
data_MgZn2(FeO2)4
_symmetry_space_group_name_H-M   'P 1'
_cell_length_a   6.19713570
_cell_length_b   6.19713564
_cell_length_c   6.43032000
_cell_angle_alpha   58.74726657
_cell_angle_beta   58.74726690
_cell_angle_gamma   58.95909029
_symmetry_Int_Tables_number   1
_chemical_formula_structural   MgZn2(FeO2)4
_chemical_formula_sum   'Mg1 Zn2 Fe4 O8'
_cell_volume   169.90701480
_cell_formula_units_Z   1
loop_
 _symmetry_equiv_pos_site_id
 _symmetry_equiv_pos_as_xyz
  1  'x, y, z'
loop_
 _atom_site_type_symbol
 _atom_site_label
 _atom_site_symmetry_multiplicity
 _atom_site_fract_x
 _atom_site_fract_y
 _atom_site_fract_z
 _atom_site_occupancy
  Mg  Mg0  1  0.20415900  0.20415900  0.79584100  1
  Zn  Zn1  1  0.16513100  0.71838800  0.55824100  1
  Zn  Zn2  1  0.71838800  0.16513100  0.55824100  1
  Fe  Fe3  1  0.88873400  0.88873300  0.11126700  1
  Fe  Fe4  1  0.29742700  0.29742800  0.20257200  1
  Fe  Fe5  1  0.62568100  0.62568100  0.08387100  1
  Fe  Fe6  1  0.62568100  0.62568100  0.66476600  1
  O  O7  1  0.38127000  0.38127000  0.40916500  1
  O  O8  1  0.38127000  0.38127000  0.82829400  1
  O  O9  1  0.42922800  0.90656300  0.33210400  1
  O  O10  1  0.90656200  0.42923100  0.33210300  1
  O  O11  1  0.33283000  0.81276800  0.92720200  1
  O  O12  1  0.81277100  0.33282900  0.92720100  1
  O  O13  1  0.85501700  0.85501700  0.44413300  1
  O  O14  1  0.85501700  0.85501700  0.84583400  1
