# generated using pymatgen
data_K3NaTi2(SiO4)3
_symmetry_space_group_name_H-M   'P 1'
_cell_length_a   9.24813620
_cell_length_b   9.24813586
_cell_length_c   21.90307963
_cell_angle_alpha   90.00000000
_cell_angle_beta   90.00000000
_cell_angle_gamma   120.00000120
_symmetry_Int_Tables_number   1
_chemical_formula_structural   K3NaTi2(SiO4)3
_chemical_formula_sum   'K18 Na6 Ti12 Si18 O72'
_cell_volume   1622.34878172
_cell_formula_units_Z   6
loop_
 _symmetry_equiv_pos_site_id
 _symmetry_equiv_pos_as_xyz
  1  'x, y, z'
loop_
 _atom_site_type_symbol
 _atom_site_label
 _atom_site_symmetry_multiplicity
 _atom_site_fract_x
 _atom_site_fract_y
 _atom_site_fract_z
 _atom_site_occupancy
  K  K0  1  0.65038990  0.00000000  0.25000000  1
  K  K1  1  0.34961010  0.34961010  0.25000000  1
  K  K2  1  1.00000000  0.65038990  0.25000000  1
  K  K3  1  0.65038990  0.65038990  0.75000000  1
  K  K4  1  0.00000000  0.34961010  0.75000000  1
  K  K5  1  0.34961010  0.00000000  0.75000000  1
  K  K6  1  0.31705690  0.33333300  0.58333300  1
  K  K7  1  0.01627710  0.68294310  0.58333300  1
  K  K8  1  0.66666700  0.98372290  0.58333300  1
  K  K9  1  0.31705690  0.98372290  0.08333300  1
  K  K10  1  0.66666700  0.68294310  0.08333300  1
  K  K11  1  0.01627710  0.33333300  0.08333300  1
  K  K12  1  0.98372290  0.66666700  0.91666700  1
  K  K13  1  0.68294310  0.01627710  0.91666700  1
  K  K14  1  0.33333300  0.31705690  0.91666700  1
  K  K15  1  0.98372290  0.31705690  0.41666700  1
  K  K16  1  0.33333300  0.01627710  0.41666700  1
  K  K17  1  0.68294310  0.66666700  0.41666700  1
  Na  Na18  1  0.00000000  0.00000000  0.50000000  1
  Na  Na19  1  0.00000000  0.00000000  -0.00000000  1
  Na  Na20  1  0.66666700  0.33333300  0.83333300  1
  Na  Na21  1  0.66666700  0.33333300  0.33333300  1
  Na  Na22  1  0.33333300  0.66666700  0.16666700  1
  Na  Na23  1  0.33333300  0.66666700  0.66666700  1
  Ti  Ti24  1  0.00000000  0.00000000  0.35128154  1
  Ti  Ti25  1  0.00000000  0.00000000  0.85128154  1
  Ti  Ti26  1  0.00000000  0.00000000  0.64871846  1
  Ti  Ti27  1  0.00000000  0.00000000  0.14871846  1
  Ti  Ti28  1  0.66666700  0.33333300  0.68461454  1
  Ti  Ti29  1  0.66666700  0.33333300  0.18461454  1
  Ti  Ti30  1  0.66666700  0.33333300  0.98205146  1
  Ti  Ti31  1  0.66666700  0.33333300  0.48205146  1
  Ti  Ti32  1  0.33333300  0.66666700  0.01794854  1
  Ti  Ti33  1  0.33333300  0.66666700  0.51794854  1
  Ti  Ti34  1  0.33333300  0.66666700  0.31538546  1
  Ti  Ti35  1  0.33333300  0.66666700  0.81538546  1
  Si  Si36  1  0.29492828  0.00000000  0.25000000  1
  Si  Si37  1  0.70507172  0.70507172  0.25000000  1
  Si  Si38  1  0.00000000  0.29492828  0.25000000  1
  Si  Si39  1  0.29492828  0.29492828  0.75000000  1
  Si  Si40  1  1.00000000  0.70507172  0.75000000  1
  Si  Si41  1  0.70507172  0.00000000  0.75000000  1
  Si  Si42  1  0.96159528  0.33333300  0.58333300  1
  Si  Si43  1  0.37173872  0.03840472  0.58333300  1
  Si  Si44  1  0.66666700  0.62826128  0.58333300  1
  Si  Si45  1  0.96159528  0.62826128  0.08333300  1
  Si  Si46  1  0.66666700  0.03840472  0.08333300  1
  Si  Si47  1  0.37173872  0.33333300  0.08333300  1
  Si  Si48  1  0.62826128  0.66666700  0.91666700  1
  Si  Si49  1  0.03840472  0.37173872  0.91666700  1
  Si  Si50  1  0.33333300  0.96159528  0.91666700  1
  Si  Si51  1  0.62826128  0.96159528  0.41666700  1
  Si  Si52  1  0.33333300  0.37173872  0.41666700  1
  Si  Si53  1  0.03840472  0.66666700  0.41666700  1
  O  O54  1  0.19054036  0.02031737  0.30827663  1
  O  O55  1  0.82977701  0.80945964  0.30827663  1
  O  O56  1  0.97968263  0.17022299  0.30827663  1
  O  O57  1  0.19054036  0.17022299  0.80827663  1
  O  O58  1  0.97968263  0.80945964  0.80827663  1
  O  O59  1  0.82977701  0.02031737  0.80827663  1
  O  O60  1  0.80945964  0.97968263  0.69172337  1
  O  O61  1  0.17022299  0.19054036  0.69172337  1
  O  O62  1  0.02031737  0.82977701  0.69172337  1
  O  O63  1  0.80945964  0.82977701  0.19172337  1
  O  O64  1  0.02031737  0.19054036  0.19172337  1
  O  O65  1  0.17022299  0.97968263  0.19172337  1
  O  O66  1  0.85720736  0.35365037  0.64160963  1
  O  O67  1  0.49644401  0.14279264  0.64160963  1
  O  O68  1  0.64634963  0.50355599  0.64160963  1
  O  O69  1  0.85720736  0.50355599  0.14160963  1
  O  O70  1  0.64634963  0.14279264  0.14160963  1
  O  O71  1  0.49644401  0.35365037  0.14160963  1
  O  O72  1  0.47612664  0.31301563  0.02505637  1
  O  O73  1  0.83688999  0.52387336  0.02505637  1
  O  O74  1  0.68698437  0.16311001  0.02505637  1
  O  O75  1  0.47612664  0.16311001  0.52505637  1
  O  O76  1  0.68698437  0.52387336  0.52505637  1
  O  O77  1  0.83688999  0.31301563  0.52505637  1
  O  O78  1  0.52387336  0.68698437  0.97494363  1
  O  O79  1  0.16311001  0.47612664  0.97494363  1
  O  O80  1  0.31301563  0.83688999  0.97494363  1
  O  O81  1  0.52387336  0.83688999  0.47494363  1
  O  O82  1  0.31301563  0.47612664  0.47494363  1
  O  O83  1  0.16311001  0.68698437  0.47494363  1
  O  O84  1  0.14279264  0.64634963  0.35839037  1
  O  O85  1  0.50355599  0.85720736  0.35839037  1
  O  O86  1  0.35365037  0.49644401  0.35839037  1
  O  O87  1  0.14279264  0.49644401  0.85839037  1
  O  O88  1  0.35365037  0.85720736  0.85839037  1
  O  O89  1  0.50355599  0.64634963  0.85839037  1
  O  O90  1  0.01710438  0.83222405  0.41160111  1
  O  O91  1  0.81511967  0.98289562  0.41160111  1
  O  O92  1  0.16777595  0.18488033  0.41160111  1
  O  O93  1  0.01710438  0.18488033  0.91160111  1
  O  O94  1  0.16777595  0.98289562  0.91160111  1
  O  O95  1  0.81511967  0.83222405  0.91160111  1
  O  O96  1  0.98289562  0.16777595  0.58839889  1
  O  O97  1  0.18488033  0.01710438  0.58839889  1
  O  O98  1  0.83222405  0.81511967  0.58839889  1
  O  O99  1  0.98289562  0.81511967  0.08839889  1
  O  O100  1  0.83222405  0.01710438  0.08839889  1
  O  O101  1  0.18488033  0.16777595  0.08839889  1
  O  O102  1  0.68377138  0.16555705  0.74493411  1
  O  O103  1  0.48178667  0.31622862  0.74493411  1
  O  O104  1  0.83444295  0.51821333  0.74493411  1
  O  O105  1  0.68377138  0.51821333  0.24493411  1
  O  O106  1  0.83444295  0.31622862  0.24493411  1
  O  O107  1  0.48178667  0.16555705  0.24493411  1
  O  O108  1  0.64956262  0.50110895  0.92173189  1
  O  O109  1  0.85154733  0.35043738  0.92173189  1
  O  O110  1  0.49889105  0.14845267  0.92173189  1
  O  O111  1  0.64956262  0.14845267  0.42173189  1
  O  O112  1  0.49889105  0.35043738  0.42173189  1
  O  O113  1  0.85154733  0.50110895  0.42173189  1
  O  O114  1  0.35043738  0.49889105  0.07826811  1
  O  O115  1  0.14845267  0.64956262  0.07826811  1
  O  O116  1  0.50110895  0.85154733  0.07826811  1
  O  O117  1  0.35043738  0.85154733  0.57826811  1
  O  O118  1  0.50110895  0.64956262  0.57826811  1
  O  O119  1  0.14845267  0.49889105  0.57826811  1
  O  O120  1  0.31622862  0.83444295  0.25506589  1
  O  O121  1  0.51821333  0.68377138  0.25506589  1
  O  O122  1  0.16555705  0.48178667  0.25506589  1
  O  O123  1  0.31622862  0.48178667  0.75506589  1
  O  O124  1  0.16555705  0.68377138  0.75506589  1
  O  O125  1  0.51821333  0.83444295  0.75506589  1
