# generated using pymatgen
data_Na3Zr2Si2PO12
_symmetry_space_group_name_H-M   'P 1'
_cell_length_a   16.04222953
_cell_length_b   9.24552917
_cell_length_c   9.23461971
_cell_angle_alpha   90.00000000
_cell_angle_beta   124.90969328
_cell_angle_gamma   90.00000000
_symmetry_Int_Tables_number   1
_chemical_formula_structural   Na3Zr2Si2PO12
_chemical_formula_sum   'Na12 Zr8 Si8 P4 O48'
_cell_volume   1123.20371700
_cell_formula_units_Z   4
loop_
 _symmetry_equiv_pos_site_id
 _symmetry_equiv_pos_as_xyz
  1  'x, y, z'
loop_
 _atom_site_type_symbol
 _atom_site_label
 _atom_site_symmetry_multiplicity
 _atom_site_fract_x
 _atom_site_fract_y
 _atom_site_fract_z
 _atom_site_occupancy
  Na  Na0  1  0.24231251  0.77461372  0.99502777  1
  Na  Na1  1  0.74231251  0.72538628  0.49502777  1
  Na  Na2  1  0.74231251  0.27461372  0.99502777  1
  Na  Na3  1  0.24231251  0.22538628  0.49502777  1
  Na  Na4  1  0.50348534  0.10410600  0.75139395  1
  Na  Na5  1  0.50348534  0.89589400  0.25139395  1
  Na  Na6  1  0.00348534  0.60410600  0.75139395  1
  Na  Na7  1  0.00348534  0.39589400  0.25139395  1
  Na  Na8  1  0.80805667  0.93545104  0.20826188  1
  Na  Na9  1  0.80805667  0.06454896  0.70826188  1
  Na  Na10  1  0.30805667  0.43545104  0.20826188  1
  Na  Na11  1  0.30805667  0.56454896  0.70826188  1
  Zr  Zr12  1  0.10558629  0.75039530  0.56018722  1
  Zr  Zr13  1  0.89525426  0.74405006  0.93569396  1
  Zr  Zr14  1  0.89525426  0.25594994  0.43569396  1
  Zr  Zr15  1  0.10558629  0.24960470  0.06018722  1
  Zr  Zr16  1  0.60558629  0.25039530  0.56018722  1
  Zr  Zr17  1  0.39525426  0.24405006  0.93569396  1
  Zr  Zr18  1  0.39525426  0.75594994  0.43569396  1
  Zr  Zr19  1  0.60558629  0.74960470  0.06018722  1
  Si  Si20  1  0.35477151  0.89562591  0.75825542  1
  Si  Si21  1  0.64919063  0.89727439  0.74454982  1
  Si  Si22  1  0.64919063  0.10272561  0.24454982  1
  Si  Si23  1  0.35477151  0.10437409  0.25825542  1
  Si  Si24  1  0.85477151  0.39562591  0.75825542  1
  Si  Si25  1  0.14919063  0.39727439  0.74454982  1
  Si  Si26  1  0.14919063  0.60272561  0.24454982  1
  Si  Si27  1  0.85477151  0.60437409  0.25825542  1
  P  P28  1  0.00054282  0.95821438  0.74633689  1
  P  P29  1  0.00054282  0.04178562  0.24633689  1
  P  P30  1  0.50054282  0.45821438  0.74633689  1
  P  P31  1  0.50054282  0.54178562  0.24633689  1
  O  O32  1  0.15231239  0.57697371  0.74443032  1
  O  O33  1  0.85089394  0.57403681  0.75183703  1
  O  O34  1  0.85089394  0.42596319  0.25183703  1
  O  O35  1  0.15231239  0.42302629  0.24443032  1
  O  O36  1  0.65231239  0.07697371  0.74443032  1
  O  O37  1  0.35089394  0.07403681  0.75183703  1
  O  O38  1  0.35089394  0.92596319  0.25183703  1
  O  O39  1  0.65231239  0.92302629  0.24443032  1
  O  O40  1  0.43697699  0.55016499  0.57587083  1
  O  O41  1  0.55928837  0.55968473  0.90886757  1
  O  O42  1  0.55928837  0.44031527  0.40886757  1
  O  O43  1  0.43697699  0.44983501  0.07587083  1
  O  O44  1  0.93697699  0.05016499  0.57587083  1
  O  O45  1  0.05928837  0.05968473  0.90886757  1
  O  O46  1  0.05928837  0.94031527  0.40886757  1
  O  O47  1  0.93697699  0.94983501  0.07587083  1
  O  O48  1  0.25800392  0.82039097  0.74437440  1
  O  O49  1  0.74899478  0.84021111  0.75275207  1
  O  O50  1  0.74899478  0.15978889  0.25275207  1
  O  O51  1  0.25800392  0.17960903  0.24437440  1
  O  O52  1  0.75800392  0.32039097  0.74437440  1
  O  O53  1  0.24899478  0.34021111  0.75275207  1
  O  O54  1  0.24899478  0.65978889  0.25275207  1
  O  O55  1  0.75800392  0.67960903  0.24437440  1
  O  O56  1  0.35960033  0.84262985  0.59196119  1
  O  O57  1  0.65102980  0.85598234  0.92132657  1
  O  O58  1  0.65102980  0.14401766  0.42132657  1
  O  O59  1  0.35960033  0.15737015  0.09196119  1
  O  O60  1  0.85960033  0.34262985  0.59196119  1
  O  O61  1  0.15102980  0.35598234  0.92132657  1
  O  O62  1  0.15102980  0.64401766  0.42132657  1
  O  O63  1  0.85960033  0.65737015  0.09196119  1
  O  O64  1  0.46040456  0.83814680  0.93971778  1
  O  O65  1  0.54341232  0.83489942  0.56745582  1
  O  O66  1  0.54341232  0.16510058  0.06745582  1
  O  O67  1  0.46040456  0.16185320  0.43971778  1
  O  O68  1  0.96040456  0.33814680  0.93971778  1
  O  O69  1  0.04341232  0.33489942  0.56745582  1
  O  O70  1  0.04341232  0.66510058  0.06745582  1
  O  O71  1  0.96040456  0.66185320  0.43971778  1
  O  O72  1  0.07673871  0.85561250  0.74540620  1
  O  O73  1  0.92314385  0.86401091  0.75629333  1
  O  O74  1  0.92314385  0.13598909  0.25629333  1
  O  O75  1  0.07673871  0.14438750  0.24540620  1
  O  O76  1  0.57673871  0.35561250  0.74540620  1
  O  O77  1  0.42314385  0.36401091  0.75629333  1
  O  O78  1  0.42314385  0.63598909  0.25629333  1
  O  O79  1  0.57673871  0.64438750  0.24540620  1
