# generated using pymatgen
data_NaYTa(PO4)3
_symmetry_space_group_name_H-M   'P 1'
_cell_length_a   8.98550444
_cell_length_b   8.98550414
_cell_length_c   23.22285087
_cell_angle_alpha   90.00000000
_cell_angle_beta   90.00000000
_cell_angle_gamma   120.00000112
_symmetry_Int_Tables_number   1
_chemical_formula_structural   NaYTa(PO4)3
_chemical_formula_sum   'Na6 Y6 Ta6 P18 O72'
_cell_volume   1623.79452085
_cell_formula_units_Z   6
loop_
 _symmetry_equiv_pos_site_id
 _symmetry_equiv_pos_as_xyz
  1  'x, y, z'
loop_
 _atom_site_type_symbol
 _atom_site_label
 _atom_site_symmetry_multiplicity
 _atom_site_fract_x
 _atom_site_fract_y
 _atom_site_fract_z
 _atom_site_occupancy
  Na  Na0  1  0.00000000  -0.00000000  0.49690097  1
  Na  Na1  1  0.00000000  -0.00000000  0.99690097  1
  Na  Na2  1  0.66666700  0.33333300  0.83023397  1
  Na  Na3  1  0.66666700  0.33333300  0.33023397  1
  Na  Na4  1  0.33333300  0.66666700  0.16356797  1
  Na  Na5  1  0.33333300  0.66666700  0.66356797  1
  Y  Y6  1  0.00000000  -0.00000000  0.35428873  1
  Y  Y7  1  0.00000000  -0.00000000  0.85428873  1
  Y  Y8  1  0.66666700  0.33333300  0.68762173  1
  Y  Y9  1  0.66666700  0.33333300  0.18762173  1
  Y  Y10  1  0.33333300  0.66666700  0.02095573  1
  Y  Y11  1  0.33333300  0.66666700  0.52095573  1
  Ta  Ta12  1  0.00000000  -0.00000000  0.64755692  1
  Ta  Ta13  1  0.00000000  -0.00000000  0.14755692  1
  Ta  Ta14  1  0.66666700  0.33333300  0.98088992  1
  Ta  Ta15  1  0.66666700  0.33333300  0.48088992  1
  Ta  Ta16  1  0.33333300  0.66666700  0.31422392  1
  Ta  Ta17  1  0.33333300  0.66666700  0.81422392  1
  P  P18  1  0.28486134  0.98627976  0.25044723  1
  P  P19  1  0.70141842  0.71513866  0.25044723  1
  P  P20  1  0.01372024  0.29858158  0.25044723  1
  P  P21  1  0.28486134  0.29858158  0.75044723  1
  P  P22  1  0.01372024  0.71513866  0.75044723  1
  P  P23  1  0.70141842  0.98627976  0.75044723  1
  P  P24  1  0.95152834  0.31961276  0.58378023  1
  P  P25  1  0.36808542  0.04847166  0.58378023  1
  P  P26  1  0.68038724  0.63191458  0.58378023  1
  P  P27  1  0.95152834  0.63191458  0.08378023  1
  P  P28  1  0.68038724  0.04847166  0.08378023  1
  P  P29  1  0.36808542  0.31961276  0.08378023  1
  P  P30  1  0.61819434  0.65294676  0.91711423  1
  P  P31  1  0.03475142  0.38180566  0.91711423  1
  P  P32  1  0.34705324  0.96524858  0.91711423  1
  P  P33  1  0.61819434  0.96524858  0.41711423  1
  P  P34  1  0.34705324  0.38180566  0.41711423  1
  P  P35  1  0.03475142  0.65294676  0.41711423  1
  O  O36  1  0.20560876  0.01117767  0.30363755  1
  O  O37  1  0.80556891  0.79439124  0.30363755  1
  O  O38  1  0.98882233  0.19443109  0.30363755  1
  O  O39  1  0.20560876  0.19443109  0.80363755  1
  O  O40  1  0.98882233  0.79439124  0.80363755  1
  O  O41  1  0.80556891  0.01117767  0.80363755  1
  O  O42  1  0.80029705  0.96705916  0.69582425  1
  O  O43  1  0.16676211  0.19970295  0.69582425  1
  O  O44  1  0.03294084  0.83323789  0.69582425  1
  O  O45  1  0.80029705  0.83323789  0.19582425  1
  O  O46  1  0.03294084  0.19970295  0.19582425  1
  O  O47  1  0.16676211  0.96705916  0.19582425  1
  O  O48  1  0.87227576  0.34451067  0.63697055  1
  O  O49  1  0.47223591  0.12772424  0.63697055  1
  O  O50  1  0.65548933  0.52776409  0.63697055  1
  O  O51  1  0.87227576  0.52776409  0.13697055  1
  O  O52  1  0.65548933  0.12772424  0.13697055  1
  O  O53  1  0.47223591  0.34451067  0.13697055  1
  O  O54  1  0.46696405  0.30039216  0.02915725  1
  O  O55  1  0.83342911  0.53303595  0.02915725  1
  O  O56  1  0.69960784  0.16657089  0.02915725  1
  O  O57  1  0.46696405  0.16657089  0.52915725  1
  O  O58  1  0.69960784  0.53303595  0.52915725  1
  O  O59  1  0.83342911  0.30039216  0.52915725  1
  O  O60  1  0.53894176  0.67784467  0.97030455  1
  O  O61  1  0.13890191  0.46105824  0.97030455  1
  O  O62  1  0.32215533  0.86109809  0.97030455  1
  O  O63  1  0.53894176  0.86109809  0.47030455  1
  O  O64  1  0.32215533  0.46105824  0.47030455  1
  O  O65  1  0.13890191  0.67784467  0.47030455  1
  O  O66  1  0.13363005  0.63372616  0.36249125  1
  O  O67  1  0.50009511  0.86636995  0.36249125  1
  O  O68  1  0.36627384  0.49990489  0.36249125  1
  O  O69  1  0.13363005  0.49990489  0.86249125  1
  O  O70  1  0.36627384  0.86636995  0.86249125  1
  O  O71  1  0.50009511  0.63372616  0.86249125  1
  O  O72  1  0.00008472  0.80018972  0.41004509  1
  O  O73  1  0.80010500  0.99991528  0.41004509  1
  O  O74  1  0.19981028  0.19989500  0.41004509  1
  O  O75  1  0.00008472  0.19989500  0.91004509  1
  O  O76  1  0.19981028  0.99991528  0.91004509  1
  O  O77  1  0.80010500  0.80018972  0.91004509  1
  O  O78  1  0.95733489  0.14704936  0.59046367  1
  O  O79  1  0.18971447  0.04266511  0.59046367  1
  O  O80  1  0.85295064  0.81028553  0.59046367  1
  O  O81  1  0.95733489  0.81028553  0.09046367  1
  O  O82  1  0.85295064  0.04266511  0.09046367  1
  O  O83  1  0.18971447  0.14704936  0.09046367  1
  O  O84  1  0.66675172  0.13352272  0.74337809  1
  O  O85  1  0.46677200  0.33324828  0.74337809  1
  O  O86  1  0.86647728  0.53322800  0.74337809  1
  O  O87  1  0.66675172  0.53322800  0.24337809  1
  O  O88  1  0.86647728  0.33324828  0.24337809  1
  O  O89  1  0.46677200  0.13352272  0.24337809  1
  O  O90  1  0.62400189  0.48038236  0.92379667  1
  O  O91  1  0.85638147  0.37599811  0.92379667  1
  O  O92  1  0.51961764  0.14361853  0.92379667  1
  O  O93  1  0.62400189  0.14361853  0.42379667  1
  O  O94  1  0.51961764  0.37599811  0.42379667  1
  O  O95  1  0.85638147  0.48038236  0.42379667  1
  O  O96  1  0.33341772  0.46685672  0.07671209  1
  O  O97  1  0.13343800  0.66658228  0.07671209  1
  O  O98  1  0.53314328  0.86656200  0.07671209  1
  O  O99  1  0.33341772  0.86656200  0.57671209  1
  O  O100  1  0.53314328  0.66658228  0.57671209  1
  O  O101  1  0.13343800  0.46685672  0.57671209  1
  O  O102  1  0.29066789  0.81371636  0.25713067  1
  O  O103  1  0.52304747  0.70933211  0.25713067  1
  O  O104  1  0.18628364  0.47695253  0.25713067  1
  O  O105  1  0.29066789  0.47695253  0.75713067  1
  O  O106  1  0.18628364  0.70933211  0.75713067  1
  O  O107  1  0.52304747  0.81371636  0.75713067  1
