# generated using pymatgen
data_NaZr2Sn2P5SO24
_symmetry_space_group_name_H-M   'P 1'
_cell_length_a   8.82766131
_cell_length_b   8.84198420
_cell_length_c   23.13742490
_cell_angle_alpha   90.01140641
_cell_angle_beta   89.89590354
_cell_angle_gamma   119.99253735
_symmetry_Int_Tables_number   1
_chemical_formula_structural   NaZr2Sn2P5SO24
_chemical_formula_sum   'Na3 Zr6 Sn6 P15 S3 O72'
_cell_volume   1564.12998421
_cell_formula_units_Z   3
loop_
 _symmetry_equiv_pos_site_id
 _symmetry_equiv_pos_as_xyz
  1  'x, y, z'
loop_
 _atom_site_type_symbol
 _atom_site_label
 _atom_site_symmetry_multiplicity
 _atom_site_fract_x
 _atom_site_fract_y
 _atom_site_fract_z
 _atom_site_occupancy
  Na  Na0  1  0.67341906  0.34129155  0.83659660  1
  Na  Na1  1  0.66741017  0.33445476  0.32767873  1
  Na  Na2  1  0.33362648  0.66706656  0.16738603  1
  Zr  Zr3  1  0.99304341  0.99942467  0.85850390  1
  Zr  Zr4  1  0.00441080  0.99866968  0.64668168  1
  Zr  Zr5  1  0.66298522  0.32760414  0.68936259  1
  Zr  Zr6  1  0.65924800  0.32798947  0.47434764  1
  Zr  Zr7  1  0.33360339  0.67228579  0.51690415  1
  Zr  Zr8  1  0.33059979  0.65867882  0.81073377  1
  Sn  Sn9  1  0.00107587  0.00019098  0.35119818  1
  Sn  Sn10  1  0.99938105  0.00076453  0.14637110  1
  Sn  Sn11  1  0.66815003  0.33298395  0.18552603  1
  Sn  Sn12  1  0.67254499  0.34006533  0.98594788  1
  Sn  Sn13  1  0.33481796  0.66156971  0.02187628  1
  Sn  Sn14  1  0.33243619  0.66655250  0.31180787  1
  P  P15  1  0.29138343  0.00070137  0.24928784  1
  P  P16  1  0.70976745  0.70866173  0.24948454  1
  P  P17  1  0.99933743  0.29025239  0.24950227  1
  P  P18  1  0.28652590  0.28379033  0.75144069  1
  P  P19  1  0.99830874  0.71177069  0.75166165  1
  P  P20  1  0.71261164  0.00014984  0.75075452  1
  P  P21  1  0.37865563  0.04344542  0.58266337  1
  P  P22  1  0.96175500  0.62786570  0.08492074  1
  P  P23  1  0.66534189  0.04162715  0.08380796  1
  P  P24  1  0.37622901  0.33152427  0.08474465  1
  P  P25  1  0.61626589  0.65576793  0.91884809  1
  P  P26  1  0.03937610  0.38238141  0.91897851  1
  P  P27  1  0.62665527  0.95302214  0.41291518  1
  P  P28  1  0.32613285  0.37559206  0.41361378  1
  P  P29  1  0.04465334  0.67131868  0.41341736  1
  S  S30  1  0.95637722  0.33404481  0.58253503  1
  S  S31  1  0.66518952  0.62146070  0.58263072  1
  S  S32  1  0.34066243  0.96030602  0.91840635  1
  O  O33  1  0.21317520  0.03204892  0.30481672  1
  O  O34  1  0.81960980  0.78762931  0.30474074  1
  O  O35  1  0.96765897  0.18019934  0.30475552  1
  O  O36  1  0.20316566  0.17051080  0.80480810  1
  O  O37  1  0.96800369  0.79661581  0.80474389  1
  O  O38  1  0.82780399  0.03095938  0.80415362  1
  O  O39  1  0.79630342  0.97672306  0.69574576  1
  O  O40  1  0.17928024  0.20052204  0.69630632  1
  O  O41  1  0.02201652  0.81951297  0.69631501  1
  O  O42  1  0.79127152  0.82121470  0.19519797  1
  O  O43  1  0.03027069  0.20909963  0.19514900  1
  O  O44  1  0.17855373  0.97006850  0.19529550  1
  O  O45  1  0.87530178  0.36172589  0.63489213  1
  O  O46  1  0.49285997  0.13224181  0.63655533  1
  O  O47  1  0.64230037  0.51467015  0.63496848  1
  O  O48  1  0.88106451  0.50721551  0.13805067  1
  O  O49  1  0.62703409  0.12148851  0.13749626  1
  O  O50  1  0.49543088  0.36940222  0.13791395  1
  O  O51  1  0.45483473  0.30141487  0.02867499  1
  O  O52  1  0.85266915  0.55237889  0.02894119  1
  O  O53  1  0.69609004  0.15151386  0.02805859  1
  O  O54  1  0.46849672  0.15987973  0.52964139  1
  O  O55  1  0.69461179  0.54023439  0.53134057  1
  O  O56  1  0.84743439  0.30997345  0.53132375  1
  O  O57  1  0.53966631  0.69212591  0.97335533  1
  O  O58  1  0.14943950  0.46325317  0.97358664  1
  O  O59  1  0.31171481  0.85449595  0.97111399  1
  O  O60  1  0.54003216  0.84320994  0.46793065  1
  O  O61  1  0.30438636  0.46240668  0.46850599  1
  O  O62  1  0.15667634  0.69587751  0.46803005  1
  O  O63  1  0.12175548  0.63043775  0.35990616  1
  O  O64  1  0.50816733  0.87591881  0.35978743  1
  O  O65  1  0.36676789  0.49282956  0.35999557  1
  O  O66  1  0.12391973  0.49802628  0.86516094  1
  O  O67  1  0.36798291  0.87887124  0.86655984  1
  O  O68  1  0.50220617  0.62939598  0.86508434  1
  O  O69  1  0.02880121  0.83470596  0.40697276  1
  O  O70  1  0.80651249  0.96983086  0.40682357  1
  O  O71  1  0.16433701  0.19486606  0.40718042  1
  O  O72  1  0.02240037  0.20200119  0.90967886  1
  O  O73  1  0.18461954  0.97941719  0.91088024  1
  O  O74  1  0.79941808  0.81624143  0.90992677  1
  O  O75  1  0.97090713  0.17597311  0.59018800  1
  O  O76  1  0.19780125  0.02595827  0.59083207  1
  O  O77  1  0.82024574  0.79676302  0.59000151  1
  O  O78  1  0.97855128  0.80733722  0.09315702  1
  O  O79  1  0.82817720  0.02371864  0.09180045  1
  O  O80  1  0.19566004  0.16864216  0.09217960  1
  O  O81  1  0.69507834  0.16583129  0.74462418  1
  O  O82  1  0.47232929  0.30809467  0.74459979  1
  O  O83  1  0.83617532  0.52814906  0.74343488  1
  O  O84  1  0.69117222  0.52421136  0.24397155  1
  O  O85  1  0.83312906  0.30868821  0.24416815  1
  O  O86  1  0.47608924  0.16646074  0.24406876  1
  O  O87  1  0.63179810  0.48857513  0.92416756  1
  O  O88  1  0.85293280  0.35959535  0.92401735  1
  O  O89  1  0.49938916  0.13687096  0.92364482  1
  O  O90  1  0.64722837  0.13765293  0.42135321  1
  O  O91  1  0.49205806  0.35671012  0.42124562  1
  O  O92  1  0.86160189  0.50787527  0.42315684  1
  O  O93  1  0.35874948  0.49834824  0.07944408  1
  O  O94  1  0.14637480  0.64647440  0.07796235  1
  O  O95  1  0.49802182  0.85828402  0.07712901  1
  O  O96  1  0.36062701  0.86351702  0.57461987  1
  O  O97  1  0.50806960  0.63662043  0.57577268  1
  O  O98  1  0.13114940  0.48799619  0.57570380  1
  O  O99  1  0.30952038  0.83446000  0.25473342  1
  O  O100  1  0.52508993  0.69044905  0.25478834  1
  O  O101  1  0.16526873  0.47458556  0.25465330  1
  O  O102  1  0.30508437  0.46487868  0.75762425  1
  O  O103  1  0.16104113  0.69489416  0.75955507  1
  O  O104  1  0.53131916  0.84128749  0.75983481  1
