# generated using pymatgen
data_Na10Y4Si7Ge4S5O48
_symmetry_space_group_name_H-M   'P 1'
_cell_length_a   18.22825727
_cell_length_b   9.29714977
_cell_length_c   22.62758836
_cell_angle_alpha   90.03869433
_cell_angle_beta   85.53050808
_cell_angle_gamma   120.34014264
_symmetry_Int_Tables_number   1
_chemical_formula_structural   Na10Y4Si7Ge4S5O48
_chemical_formula_sum   'Na30 Y12 Si21 Ge12 S15 O144'
_cell_volume   3296.11916135
_cell_formula_units_Z   3
loop_
 _symmetry_equiv_pos_site_id
 _symmetry_equiv_pos_as_xyz
  1  'x, y, z'
loop_
 _atom_site_type_symbol
 _atom_site_label
 _atom_site_symmetry_multiplicity
 _atom_site_fract_x
 _atom_site_fract_y
 _atom_site_fract_z
 _atom_site_occupancy
  Na  Na0  1  0.18068857  0.35748441  0.23829645  1
  Na  Na1  1  0.68162034  0.36064825  0.23869612  1
  Na  Na2  1  0.99388740  0.63998851  0.25427372  1
  Na  Na3  1  0.49504571  0.64028694  0.25342961  1
  Na  Na4  1  0.49294733  0.34249430  0.76061865  1
  Na  Na5  1  0.18074831  0.00719000  0.74183362  1
  Na  Na6  1  0.67774905  0.00559092  0.74237540  1
  Na  Na7  1  0.65441218  0.34219381  0.58383629  1
  Na  Na8  1  0.01242043  0.68799534  0.57685682  1
  Na  Na9  1  0.82931175  0.96919816  0.59160914  1
  Na  Na10  1  0.48669739  0.67540626  0.92036877  1
  Na  Na11  1  0.99131996  0.67893023  0.91781914  1
  Na  Na12  1  0.84411491  0.02078221  0.90906499  1
  Na  Na13  1  0.15817803  0.30245766  0.92356865  1
  Na  Na14  1  0.48669092  0.29902848  0.41778747  1
  Na  Na15  1  0.98192981  0.29217397  0.41786668  1
  Na  Na16  1  0.34081770  0.66712690  0.40658542  1
  Na  Na17  1  0.84448771  0.67423055  0.40841808  1
  Na  Na18  1  0.02748927  0.01932541  0.50341905  1
  Na  Na19  1  0.51609176  0.99272250  0.50183410  1
  Na  Na20  1  0.01071637  0.00648164  0.00699162  1
  Na  Na21  1  0.51727616  0.03739012  0.00196185  1
  Na  Na22  1  0.34047701  0.33739047  0.83624683  1
  Na  Na23  1  0.84366547  0.34496741  0.83108611  1
  Na  Na24  1  0.33124103  0.30978261  0.33230390  1
  Na  Na25  1  0.83214926  0.30859722  0.33613943  1
  Na  Na26  1  0.17835887  0.66407240  0.16520727  1
  Na  Na27  1  0.67911461  0.66519863  0.16512800  1
  Na  Na28  1  0.17756926  0.66933739  0.67357125  1
  Na  Na29  1  0.67594005  0.67741647  0.67087199  1
  Y  Y30  1  0.00314424  0.99869949  0.35263618  1
  Y  Y31  1  0.50339058  0.00115152  0.35196810  1
  Y  Y32  1  0.00008442  0.00429989  0.84923648  1
  Y  Y33  1  0.49369177  0.00310209  0.85706599  1
  Y  Y34  1  0.33533837  0.33287407  0.68522061  1
  Y  Y35  1  0.83876706  0.33805187  0.68830244  1
  Y  Y36  1  0.33748580  0.34309452  0.18288629  1
  Y  Y37  1  0.83695029  0.34087233  0.18296091  1
  Y  Y38  1  0.15960761  0.64955930  0.02099428  1
  Y  Y39  1  0.65923660  0.64877585  0.02369470  1
  Y  Y40  1  0.16799551  0.67613713  0.52057954  1
  Y  Y41  1  0.65850171  0.67353950  0.52144704  1
  Si  Si42  1  0.34972971  0.72418287  0.25140665  1
  Si  Si43  1  0.85046847  0.72443170  0.25139444  1
  Si  Si44  1  0.00072158  0.30295050  0.25528548  1
  Si  Si45  1  0.50118195  0.30404911  0.25503636  1
  Si  Si46  1  0.00215572  0.69729730  0.75445765  1
  Si  Si47  1  0.50096130  0.69869211  0.75617287  1
  Si  Si48  1  0.35058698  0.97762556  0.74888053  1
  Si  Si49  1  0.84591552  0.97167331  0.75331823  1
  Si  Si50  1  0.18035729  0.05146224  0.58905458  1
  Si  Si51  1  0.68434339  0.05752198  0.58850023  1
  Si  Si52  1  0.83421780  0.63606027  0.58302218  1
  Si  Si53  1  0.18013867  0.30868033  0.08858158  1
  Si  Si54  1  0.67968117  0.30981363  0.08992941  1
  Si  Si55  1  0.01643749  0.38469851  0.91732828  1
  Si  Si56  1  0.51424224  0.38431464  0.91908462  1
  Si  Si57  1  0.16821557  0.96539953  0.91652750  1
  Si  Si58  1  0.66819016  0.96742387  0.91922638  1
  Si  Si59  1  0.16807797  0.36922083  0.41761617  1
  Si  Si60  1  0.66751877  0.36874911  0.42080819  1
  Si  Si61  1  0.01538201  0.64581856  0.42037808  1
  Si  Si62  1  0.51295176  0.64663410  0.41708267  1
  Ge  Ge63  1  0.98791042  0.94010536  0.64983429  1
  Ge  Ge64  1  0.49871917  0.95843784  0.65470606  1
  Ge  Ge65  1  0.99324391  0.03856976  0.15021638  1
  Ge  Ge66  1  0.49593381  0.03492044  0.15162000  1
  Ge  Ge67  1  0.31813635  0.27652126  0.97823713  1
  Ge  Ge68  1  0.81591673  0.30926912  0.97243357  1
  Ge  Ge69  1  0.31757867  0.33820843  0.47543885  1
  Ge  Ge70  1  0.82072182  0.37226071  0.47989835  1
  Ge  Ge71  1  0.15650304  0.60857964  0.31306704  1
  Ge  Ge72  1  0.65623400  0.61149889  0.31365667  1
  Ge  Ge73  1  0.15622894  0.70379727  0.81228838  1
  Ge  Ge74  1  0.65533431  0.70580341  0.81413326  1
  S  S75  1  0.14676343  0.98003231  0.24517864  1
  S  S76  1  0.64685873  0.97927809  0.24537236  1
  S  S77  1  0.14516924  0.31532029  0.74814543  1
  S  S78  1  0.64215920  0.30215748  0.74462470  1
  S  S79  1  0.48011408  0.30603881  0.57912514  1
  S  S80  1  0.98165176  0.31268023  0.57725005  1
  S  S81  1  0.34306089  0.63908205  0.57890044  1
  S  S82  1  0.48256112  0.66301331  0.08164933  1
  S  S83  1  0.98224445  0.65913523  0.08052477  1
  S  S84  1  0.34110470  0.04404166  0.08156778  1
  S  S85  1  0.84134593  0.04277094  0.08029022  1
  S  S86  1  0.30888651  0.64149095  0.91601828  1
  S  S87  1  0.81182760  0.64225359  0.91794880  1
  S  S88  1  0.31194658  0.98228806  0.41494092  1
  S  S89  1  0.80968671  0.97295927  0.41552054  1
  O  O90  1  0.11154220  0.00495536  0.30334122  1
  O  O91  1  0.61166916  0.00415775  0.30360905  1
  O  O92  1  0.40335721  0.78731140  0.30863671  1
  O  O93  1  0.90448961  0.78573734  0.30853491  1
  O  O94  1  0.49296775  0.20932425  0.31642710  1
  O  O95  1  0.99373923  0.20844391  0.31640156  1
  O  O96  1  0.11131326  0.23121581  0.80856899  1
  O  O97  1  0.59878813  0.20182496  0.79970829  1
  O  O98  1  0.49419069  0.78506614  0.81514060  1
  O  O99  1  0.99904804  0.78790538  0.81411146  1
  O  O100  1  0.41418825  0.03514406  0.79984598  1
  O  O101  1  0.89405825  0.99904750  0.81219062  1
  O  O102  1  0.40478179  0.94955553  0.68677243  1
  O  O103  1  0.90262718  0.95528582  0.69104336  1
  O  O104  1  0.09363939  0.21142214  0.70189520  1
  O  O105  1  0.59509418  0.21102749  0.69193127  1
  O  O106  1  0.01439966  0.81286694  0.69257247  1
  O  O107  1  0.52023079  0.82210415  0.69494226  1
  O  O108  1  0.40705147  0.86227765  0.19264134  1
  O  O109  1  0.90789511  0.86282029  0.19279256  1
  O  O110  1  0.01900173  0.21295879  0.19606077  1
  O  O111  1  0.51806524  0.21032949  0.19636380  1
  O  O112  1  0.09468696  0.97563851  0.19741926  1
  O  O113  1  0.59402991  0.97394435  0.19782954  1
  O  O114  1  0.43482001  0.30954296  0.63570433  1
  O  O115  1  0.93484289  0.32217334  0.63176473  1
  O  O116  1  0.22982951  0.12920402  0.64635102  1
  O  O117  1  0.73139752  0.12817880  0.64709209  1
  O  O118  1  0.33136611  0.53242212  0.63029590  1
  O  O119  1  0.81975061  0.50511613  0.63397877  1
  O  O120  1  0.43949012  0.56816328  0.13929269  1
  O  O121  1  0.93754625  0.56415259  0.13753237  1
  O  O122  1  0.32940552  0.12347855  0.13379809  1
  O  O123  1  0.83105012  0.12700270  0.13208929  1
  O  O124  1  0.22610060  0.31584090  0.14679590  1
  O  O125  1  0.72425541  0.31354433  0.14840848  1
  O  O126  1  0.23684050  0.28426530  0.02648482  1
  O  O127  1  0.73765465  0.28782896  0.02892907  1
  O  O128  1  0.44027986  0.56572852  0.03084241  1
  O  O129  1  0.94065719  0.56420810  0.02865901  1
  O  O130  1  0.35336676  0.14626229  0.02472583  1
  O  O131  1  0.85227940  0.13487075  0.02323884  1
  O  O132  1  0.23762934  0.18538509  0.52711748  1
  O  O133  1  0.73586455  0.20632637  0.53007802  1
  O  O134  1  0.35002595  0.56097335  0.52084979  1
  O  O135  1  0.85155408  0.56477509  0.51701593  1
  O  O136  1  0.43963396  0.31970170  0.52695435  1
  O  O137  1  0.93848523  0.31355879  0.52450241  1
  O  O138  1  0.26985403  0.65243134  0.97340662  1
  O  O139  1  0.77100897  0.65328795  0.97444527  1
  O  O140  1  0.07806349  0.45019276  0.96963355  1
  O  O141  1  0.56970771  0.47091854  0.97240704  1
  O  O142  1  0.15391242  0.84006363  0.96944093  1
  O  O143  1  0.66932035  0.85448575  0.97143520  1
  O  O144  1  0.27185621  0.89332876  0.47225032  1
  O  O145  1  0.77186739  0.88660704  0.47425894  1
  O  O146  1  0.16640055  0.48088770  0.47033038  1
  O  O147  1  0.66340098  0.46371880  0.47886617  1
  O  O148  1  0.06409437  0.67083430  0.47881499  1
  O  O149  1  0.56755201  0.67766668  0.47147261  1
  O  O150  1  0.06954178  0.61156494  0.35974041  1
  O  O151  1  0.56281324  0.60828518  0.35518103  1
  O  O152  1  0.26562977  0.89694314  0.36398707  1
  O  O153  1  0.76084673  0.87680428  0.36610175  1
  O  O154  1  0.18580327  0.47778311  0.35257587  1
  O  O155  1  0.68232512  0.48370039  0.35781657  1
  O  O156  1  0.06628291  0.53187067  0.85904836  1
  O  O157  1  0.56380002  0.52163222  0.85595373  1
  O  O158  1  0.18035206  0.89293975  0.85031322  1
  O  O159  1  0.68544274  0.89245818  0.85372154  1
  O  O160  1  0.26258996  0.64276020  0.86492974  1
  O  O161  1  0.76732867  0.63129584  0.86586838  1
  O  O162  1  0.99344465  0.79003398  0.40902616  1
  O  O163  1  0.48693931  0.78587201  0.40750076  1
  O  O164  1  0.39860585  0.00100948  0.41268907  1
  O  O165  1  0.89641032  0.98810024  0.41260955  1
  O  O166  1  0.08497985  0.18577794  0.41828263  1
  O  O167  1  0.58513925  0.18444918  0.41836231  1
  O  O168  1  0.99267046  0.19474299  0.90671732  1
  O  O169  1  0.49273631  0.19776926  0.91036609  1
  O  O170  1  0.09112622  0.00772670  0.91664560  1
  O  O171  1  0.58492075  0.98471825  0.91873274  1
  O  O172  1  0.39784817  0.78206530  0.91389080  1
  O  O173  1  0.90041645  0.79216144  0.91504536  1
  O  O174  1  0.48719344  0.15513046  0.57723483  1
  O  O175  1  0.98357785  0.15516167  0.57916352  1
  O  O176  1  0.08349191  0.03757240  0.59584175  1
  O  O177  1  0.58512732  0.03945842  0.59506434  1
  O  O178  1  0.42575306  0.80186079  0.58075042  1
  O  O179  1  0.92729139  0.81395527  0.58851635  1
  O  O180  1  0.48214879  0.82200879  0.08126640  1
  O  O181  1  0.98257558  0.81813699  0.08040739  1
  O  O182  1  0.42335755  0.04275955  0.08334679  1
  O  O183  1  0.92502173  0.04167598  0.08468397  1
  O  O184  1  0.08229317  0.12998575  0.09385134  1
  O  O185  1  0.58185826  0.13122470  0.09393142  1
  O  O186  1  0.33028250  0.12743354  0.73814320  1
  O  O187  1  0.82375884  0.11653625  0.74148914  1
  O  O188  1  0.23330002  0.33772005  0.74305499  1
  O  O189  1  0.72865659  0.32634062  0.74374901  1
  O  O190  1  0.42842065  0.50520744  0.74970059  1
  O  O191  1  0.92445490  0.51034929  0.75136529  1
  O  O192  1  0.33089811  0.53565990  0.23925470  1
  O  O193  1  0.83189782  0.53628053  0.23866913  1
  O  O194  1  0.42767913  0.35052564  0.24870776  1
  O  O195  1  0.92720759  0.34937051  0.24917651  1
  O  O196  1  0.23581124  0.12387018  0.24020756  1
  O  O197  1  0.73580530  0.12209054  0.24017291  1
  O  O198  1  0.30997310  0.47999768  0.91525574  1
  O  O199  1  0.82233490  0.48825171  0.92034506  1
  O  O200  1  0.41856991  0.38227880  0.93041028  1
  O  O201  1  0.92184527  0.38136895  0.93108202  1
  O  O202  1  0.25926124  0.15024336  0.91991809  1
  O  O203  1  0.76144594  0.15490883  0.91847997  1
  O  O204  1  0.32226431  0.15382320  0.41679063  1
  O  O205  1  0.82088543  0.14131519  0.41506844  1
  O  O206  1  0.26038995  0.36788455  0.41881399  1
  O  O207  1  0.76143268  0.37274691  0.41844804  1
  O  O208  1  0.41863879  0.45860930  0.42818559  1
  O  O209  1  0.91987667  0.45930130  0.42713853  1
  O  O210  1  0.16708219  0.46611959  0.08103438  1
  O  O211  1  0.66611310  0.46681330  0.08370847  1
  O  O212  1  0.07003237  0.68634105  0.08316648  1
  O  O213  1  0.57127076  0.69311603  0.08395673  1
  O  O214  1  0.26821109  0.87258774  0.07873414  1
  O  O215  1  0.76993930  0.86859739  0.08111663  1
  O  O216  1  0.16042747  0.86261482  0.57917023  1
  O  O217  1  0.67442373  0.87864874  0.57775420  1
  O  O218  1  0.27055498  0.66952145  0.57952335  1
  O  O219  1  0.75786064  0.67677182  0.58254946  1
  O  O220  1  0.06819440  0.46298607  0.57911630  1
  O  O221  1  0.56812249  0.45602386  0.58329512  1
  O  O222  1  0.14516988  0.81866540  0.24703461  1
  O  O223  1  0.64548600  0.81819175  0.24698982  1
  O  O224  1  0.25364223  0.71198759  0.26055824  1
  O  O225  1  0.75373961  0.70970951  0.26106212  1
  O  O226  1  0.09612086  0.48585053  0.25269679  1
  O  O227  1  0.59706310  0.48540606  0.25265871  1
  O  O228  1  0.15105783  0.47943568  0.74762536  1
  O  O229  1  0.64308072  0.46194818  0.74460068  1
  O  O230  1  0.09837815  0.71066732  0.75065679  1
  O  O231  1  0.59627821  0.70735817  0.75270390  1
  O  O232  1  0.25633509  0.79878748  0.76077534  1
  O  O233  1  0.75123809  0.78562228  0.76127256  1
