# generated using pymatgen
data_Na8Mg2In2Si3(SO8)3
_symmetry_space_group_name_H-M   'P 1'
_cell_length_a   9.28211814
_cell_length_b   9.20786996
_cell_length_c   22.40607118
_cell_angle_alpha   91.36793827
_cell_angle_beta   89.57361600
_cell_angle_gamma   120.24620336
_symmetry_Int_Tables_number   1
_chemical_formula_structural   Na8Mg2In2Si3(SO8)3
_chemical_formula_sum   'Na24 Mg6 In6 Si9 S9 O72'
_cell_volume   1653.82634680
_cell_formula_units_Z   3
loop_
 _symmetry_equiv_pos_site_id
 _symmetry_equiv_pos_as_xyz
  1  'x, y, z'
loop_
 _atom_site_type_symbol
 _atom_site_label
 _atom_site_symmetry_multiplicity
 _atom_site_fract_x
 _atom_site_fract_y
 _atom_site_fract_z
 _atom_site_occupancy
  Na  Na0  1  0.63610768  0.01828416  0.26142056  1
  Na  Na1  1  0.34781878  0.34310434  0.25418860  1
  Na  Na2  1  0.00702278  0.62978785  0.24293647  1
  Na  Na3  1  0.62410376  0.62899296  0.73239435  1
  Na  Na4  1  0.99250628  0.34746392  0.73578343  1
  Na  Na5  1  0.38784493  0.02298499  0.75099988  1
  Na  Na6  1  0.30238514  0.34990569  0.59345024  1
  Na  Na7  1  0.01535335  0.67758562  0.58603632  1
  Na  Na8  1  0.67327438  0.96052348  0.58092298  1
  Na  Na9  1  0.28293383  0.94543966  0.08397304  1
  Na  Na10  1  0.67823126  0.69454097  0.08146199  1
  Na  Na11  1  0.03011335  0.34668127  0.09554690  1
  Na  Na12  1  0.98242312  0.68562212  0.91873200  1
  Na  Na13  1  0.68616797  0.02648928  0.89923953  1
  Na  Na14  1  0.32543276  0.27785068  0.90301559  1
  Na  Na15  1  0.95019871  0.27824924  0.41877010  1
  Na  Na16  1  0.34140967  0.03000176  0.40849220  1
  Na  Na17  1  0.69735644  0.68224189  0.43065407  1
  Na  Na18  1  0.97249021  0.99720620  0.50389906  1
  Na  Na19  1  0.01134422  0.98556698  0.99670354  1
  Na  Na20  1  0.64682354  0.31545312  0.82173687  1
  Na  Na21  1  0.66501688  0.30813469  0.33120917  1
  Na  Na22  1  0.30581341  0.66457463  0.17073858  1
  Na  Na23  1  0.34402271  0.65497657  0.66224130  1
  Mg  Mg24  1  0.00116450  0.01174386  0.34792383  1
  Mg  Mg25  1  0.01053226  0.01273544  0.84215751  1
  Mg  Mg26  1  0.67251957  0.33752815  0.68271408  1
  Mg  Mg27  1  0.67930137  0.33196086  0.18858404  1
  Mg  Mg28  1  0.31496667  0.67426940  0.01696729  1
  Mg  Mg29  1  0.35096627  0.66812265  0.52198645  1
  In  In30  1  0.99055944  0.01043127  0.65128240  1
  In  In31  1  0.01165689  0.99884723  0.15812525  1
  In  In32  1  0.66722251  0.33262184  0.98611390  1
  In  In33  1  0.67553397  0.32790410  0.49151159  1
  In  In34  1  0.33252875  0.67597880  0.31772201  1
  In  In35  1  0.34214237  0.67748618  0.81496893  1
  Si  Si36  1  0.30475512  0.00386493  0.25093791  1
  Si  Si37  1  0.00019089  0.29886902  0.25128851  1
  Si  Si38  1  0.30408089  0.30027460  0.75267406  1
  Si  Si39  1  0.70136862  0.00196323  0.75332113  1
  Si  Si40  1  0.97568358  0.34105024  0.58334100  1
  Si  Si41  1  0.66924077  0.62932586  0.58471038  1
  Si  Si42  1  0.96111990  0.63023822  0.08514482  1
  Si  Si43  1  0.32998777  0.96776697  0.92115087  1
  Si  Si44  1  0.63330425  0.96489621  0.41878190  1
  S  S45  1  0.70281494  0.70014804  0.24977455  1
  S  S46  1  0.99706963  0.70451935  0.75232416  1
  S  S47  1  0.36718211  0.03282379  0.58361352  1
  S  S48  1  0.66515129  0.03077345  0.08325954  1
  S  S49  1  0.36913741  0.33849597  0.08308780  1
  S  S50  1  0.62734232  0.66486253  0.92074813  1
  S  S51  1  0.03980629  0.36975981  0.91919846  1
  S  S52  1  0.33177341  0.36973321  0.41629097  1
  S  S53  1  0.03320522  0.66825308  0.41682820  1
  O  O54  1  0.20514381  0.02401679  0.30766857  1
  O  O55  1  0.81143494  0.78799241  0.30146870  1
  O  O56  1  0.96991051  0.17693212  0.30614199  1
  O  O57  1  0.22056910  0.18641826  0.81112227  1
  O  O58  1  0.98140720  0.79009275  0.80711324  1
  O  O59  1  0.81099454  0.01866419  0.81293635  1
  O  O60  1  0.77376846  0.95287033  0.69393167  1
  O  O61  1  0.19045907  0.21583230  0.69221908  1
  O  O62  1  0.02728158  0.80733791  0.69842606  1
  O  O63  1  0.77046043  0.80125467  0.19378794  1
  O  O64  1  0.03146873  0.22169407  0.18681518  1
  O  O65  1  0.19371043  0.95624420  0.18776119  1
  O  O66  1  0.87871022  0.36272289  0.64057185  1
  O  O67  1  0.47625118  0.12019228  0.63553389  1
  O  O68  1  0.64175357  0.50789290  0.63974424  1
  O  O69  1  0.86157749  0.50943622  0.14007976  1
  O  O70  1  0.63951728  0.11627113  0.13549001  1
  O  O71  1  0.47068930  0.35608349  0.13608171  1
  O  O72  1  0.44242181  0.30782412  0.02749273  1
  O  O73  1  0.85005632  0.55561820  0.02182041  1
  O  O74  1  0.69220509  0.13019896  0.02775955  1
  O  O75  1  0.43449205  0.13419080  0.52774691  1
  O  O76  1  0.69287458  0.54846630  0.52007385  1
  O  O77  1  0.86222338  0.29235351  0.52094418  1
  O  O78  1  0.54063279  0.67847003  0.97519730  1
  O  O79  1  0.14340054  0.45523375  0.97339047  1
  O  O80  1  0.30821054  0.85925312  0.98022197  1
  O  O81  1  0.53489081  0.84519671  0.47407729  1
  O  O82  1  0.31301719  0.45842632  0.46842709  1
  O  O83  1  0.13640899  0.68563771  0.46893780  1
  O  O84  1  0.10401558  0.63621787  0.36040438  1
  O  O85  1  0.52451974  0.89026075  0.35542379  1
  O  O86  1  0.35503055  0.46691297  0.36023714  1
  O  O87  1  0.11657580  0.47081524  0.86545413  1
  O  O88  1  0.36840237  0.88584677  0.86136392  1
  O  O89  1  0.52558709  0.63835247  0.86641232  1
  O  O90  1  0.02313021  0.82452960  0.41189936  1
  O  O91  1  0.81905797  0.98231735  0.41311915  1
  O  O92  1  0.17963596  0.19940541  0.41200513  1
  O  O93  1  0.01889710  0.19896015  0.91508603  1
  O  O94  1  0.16214984  0.98425868  0.91461837  1
  O  O95  1  0.79520050  0.81926756  0.91771727  1
  O  O96  1  0.00338638  0.17662300  0.58436908  1
  O  O97  1  0.19705885  0.00881024  0.59011363  1
  O  O98  1  0.84776162  0.81317554  0.58668271  1
  O  O99  1  0.97820042  0.82151553  0.08750261  1
  O  O100  1  0.81756917  0.01555134  0.08853971  1
  O  O101  1  0.19593624  0.18926522  0.08482979  1
  O  O102  1  0.69242798  0.17433983  0.74709178  1
  O  O103  1  0.49198231  0.32893767  0.74591136  1
  O  O104  1  0.84321158  0.53792558  0.74740423  1
  O  O105  1  0.68713612  0.53260490  0.24267331  1
  O  O106  1  0.84055680  0.32749480  0.24687408  1
  O  O107  1  0.48669491  0.17725982  0.24442600  1
  O  O108  1  0.64848900  0.51299635  0.92155286  1
  O  O109  1  0.86989112  0.35323797  0.92359438  1
  O  O110  1  0.50523642  0.16036390  0.92293967  1
  O  O111  1  0.64550107  0.15463739  0.42065372  1
  O  O112  1  0.48253883  0.35088063  0.41990430  1
  O  O113  1  0.86037449  0.51874960  0.41878576  1
  O  O114  1  0.36038108  0.49589010  0.07776562  1
  O  O115  1  0.14617795  0.64568818  0.08105265  1
  O  O116  1  0.51624953  0.85834971  0.07722368  1
  O  O117  1  0.35283052  0.86586350  0.57631048  1
  O  O118  1  0.50876263  0.65797874  0.58130285  1
  O  O119  1  0.15725635  0.51455375  0.57684501  1
  O  O120  1  0.33012557  0.83800597  0.25192892  1
  O  O121  1  0.53200776  0.67602831  0.25542579  1
  O  O122  1  0.17765609  0.48399582  0.25492856  1
  O  O123  1  0.30681363  0.48367066  0.75672107  1
  O  O124  1  0.14382548  0.67887880  0.75677632  1
  O  O125  1  0.50731135  0.83785349  0.75206588  1
