# generated using pymatgen
data_Ba3LaMgIn(WO6)2
_symmetry_space_group_name_H-M   'P 1'
_cell_length_a   10.36419235
_cell_length_b   10.36419278
_cell_length_c   10.36419202
_cell_angle_alpha   33.19944916
_cell_angle_beta   33.19944824
_cell_angle_gamma   33.19945308
_symmetry_Int_Tables_number   1
_chemical_formula_structural   Ba3LaMgIn(WO6)2
_chemical_formula_sum   'Ba3 La1 Mg1 In1 W2 O12'
_cell_volume   297.13294018
_cell_formula_units_Z   1
loop_
 _symmetry_equiv_pos_site_id
 _symmetry_equiv_pos_as_xyz
  1  'x, y, z'
loop_
 _atom_site_type_symbol
 _atom_site_label
 _atom_site_symmetry_multiplicity
 _atom_site_fract_x
 _atom_site_fract_y
 _atom_site_fract_z
 _atom_site_occupancy
  Ba  Ba0  1  0.28957200  0.28957200  0.28957200  1
  Ba  Ba1  1  0.72084700  0.72084700  0.72084700  1
  Ba  Ba2  1  0.86982800  0.86982800  0.86982800  1
  La  La3  1  0.15230200  0.15230200  0.15230200  1
  Mg  Mg4  1  0.49853000  0.49853000  0.49853000  1
  In  In5  1  0.00088100  0.00088100  0.00088100  1
  W  W6  1  0.41109300  0.41109300  0.41109300  1
  W  W7  1  0.58778000  0.58778000  0.58778000  1
  O  O8  1  0.21341200  0.69266300  0.21341200  1
  O  O9  1  0.21341200  0.21341200  0.69266300  1
  O  O10  1  0.69266300  0.21341200  0.21341200  1
  O  O11  1  0.14282500  0.61086700  0.61086700  1
  O  O12  1  0.61086700  0.14282500  0.61086700  1
  O  O13  1  0.61086700  0.61086700  0.14282500  1
  O  O14  1  0.38099300  0.86355000  0.38099300  1
  O  O15  1  0.38099300  0.38099300  0.86355000  1
  O  O16  1  0.86355000  0.38099300  0.38099300  1
  O  O17  1  0.28875200  0.78541800  0.78541800  1
  O  O18  1  0.78541800  0.28875200  0.78541800  1
  O  O19  1  0.78541800  0.78541800  0.28875200  1
