# generated using pymatgen
data_Na5Al3Si3Ge(SO8)3
_symmetry_space_group_name_H-M   'P 1'
_cell_length_a   8.69718437
_cell_length_b   8.65397837
_cell_length_c   21.69313771
_cell_angle_alpha   91.30656674
_cell_angle_beta   90.36455569
_cell_angle_gamma   120.39272858
_symmetry_Int_Tables_number   1
_chemical_formula_structural   Na5Al3Si3Ge(SO8)3
_chemical_formula_sum   'Na15 Al9 Si9 Ge3 S9 O72'
_cell_volume   1407.69535363
_cell_formula_units_Z   3
loop_
 _symmetry_equiv_pos_site_id
 _symmetry_equiv_pos_as_xyz
  1  'x, y, z'
loop_
 _atom_site_type_symbol
 _atom_site_label
 _atom_site_symmetry_multiplicity
 _atom_site_fract_x
 _atom_site_fract_y
 _atom_site_fract_z
 _atom_site_occupancy
  Na  Na0  1  0.64168246  0.00233410  0.25712994  1
  Na  Na1  1  0.00389618  0.62618225  0.24918906  1
  Na  Na2  1  0.63245480  0.64002936  0.74401112  1
  Na  Na3  1  0.36591787  0.01096111  0.75670775  1
  Na  Na4  1  0.66821739  0.95853389  0.58680373  1
  Na  Na5  1  0.97044100  0.67520309  0.92265422  1
  Na  Na6  1  0.69938893  0.02760880  0.91196277  1
  Na  Na7  1  0.96749412  0.30854180  0.40780194  1
  Na  Na8  1  0.70645699  0.68187258  0.42510610  1
  Na  Na9  1  0.01270628  0.98371946  0.50265665  1
  Na  Na10  1  0.01401347  0.99278441  0.00082796  1
  Na  Na11  1  0.64969420  0.32608034  0.83236800  1
  Na  Na12  1  0.65630875  0.32249400  0.33291503  1
  Na  Na13  1  0.30789578  0.63368671  0.16195419  1
  Na  Na14  1  0.32048828  0.63347511  0.66551712  1
  Al  Al15  1  0.98999184  0.99969357  0.35610266  1
  Al  Al16  1  0.00626591  0.01168003  0.85436740  1
  Al  Al17  1  0.98580586  0.99072868  0.65087662  1
  Al  Al18  1  0.00606550  0.00272122  0.14316624  1
  Al  Al19  1  0.64946860  0.33386857  0.69042254  1
  Al  Al20  1  0.69246583  0.34164584  0.18354158  1
  Al  Al21  1  0.32959811  0.68633497  0.01830724  1
  Al  Al22  1  0.34392205  0.67666338  0.51877366  1
  Al  Al23  1  0.31723136  0.65735854  0.31725758  1
  Si  Si24  1  0.00890779  0.28697026  0.24959831  1
  Si  Si25  1  0.27328576  0.28505809  0.75025340  1
  Si  Si26  1  0.71832615  0.01387991  0.75027517  1
  Si  Si27  1  0.66401752  0.62128395  0.58546074  1
  Si  Si28  1  0.96664499  0.62969488  0.08492956  1
  Si  Si29  1  0.62050864  0.66958953  0.92019583  1
  Si  Si30  1  0.33041494  0.95980615  0.91765829  1
  Si  Si31  1  0.61447103  0.95547921  0.41742914  1
  Si  Si32  1  0.05456210  0.67963397  0.41719405  1
  Ge  Ge33  1  0.64911752  0.34696981  0.98087258  1
  Ge  Ge34  1  0.68577750  0.34540848  0.47944385  1
  Ge  Ge35  1  0.36300730  0.67659942  0.81285817  1
  S  S36  1  0.28810054  0.00770846  0.24879607  1
  S  S37  1  0.70534862  0.70324846  0.24854690  1
  S  S38  1  0.99728280  0.70826561  0.74966437  1
  S  S39  1  0.96167766  0.33860079  0.58385066  1
  S  S40  1  0.37552072  0.04706895  0.58270432  1
  S  S41  1  0.66786963  0.04286799  0.08414066  1
  S  S42  1  0.38126278  0.33151497  0.08657019  1
  S  S43  1  0.05691821  0.38381325  0.91774657  1
  S  S44  1  0.33271445  0.37805363  0.41607038  1
  O  O45  1  0.20564730  0.02839739  0.30529059  1
  O  O46  1  0.81820681  0.78149498  0.30670911  1
  O  O47  1  0.96864053  0.16390984  0.31076528  1
  O  O48  1  0.19322422  0.15399615  0.80755205  1
  O  O49  1  0.96276009  0.78348043  0.80680575  1
  O  O50  1  0.82789932  0.03012758  0.81322736  1
  O  O51  1  0.78974554  0.95786932  0.68920193  1
  O  O52  1  0.15933878  0.18837352  0.68758938  1
  O  O53  1  0.02536425  0.82046017  0.69528981  1
  O  O54  1  0.79272460  0.81492169  0.19528127  1
  O  O55  1  0.02495661  0.18192344  0.19008291  1
  O  O56  1  0.17320053  0.97019596  0.19338976  1
  O  O57  1  0.86717557  0.35732731  0.63609695  1
  O  O58  1  0.48874966  0.13030437  0.63940810  1
  O  O59  1  0.64457097  0.50266487  0.64416677  1
  O  O60  1  0.87565324  0.51473427  0.14634453  1
  O  O61  1  0.64436036  0.12970840  0.14130079  1
  O  O62  1  0.49817286  0.34709080  0.13903854  1
  O  O63  1  0.44620516  0.28898894  0.02660833  1
  O  O64  1  0.83116241  0.52795509  0.02253897  1
  O  O65  1  0.69076619  0.15018237  0.02878202  1
  O  O66  1  0.46150450  0.15477010  0.52720841  1
  O  O67  1  0.69021083  0.52849132  0.52028542  1
  O  O68  1  0.84849064  0.29733661  0.52323772  1
  O  O69  1  0.51635418  0.69787080  0.97617525  1
  O  O70  1  0.15911050  0.46565205  0.97513213  1
  O  O71  1  0.28281218  0.82776120  0.97393583  1
  O  O72  1  0.53946305  0.83205116  0.47717493  1
  O  O73  1  0.30353068  0.45689179  0.47273439  1
  O  O74  1  0.17147407  0.69071778  0.47650912  1
  O  O75  1  0.12048121  0.62358671  0.35448022  1
  O  O76  1  0.49706928  0.86108174  0.35414335  1
  O  O77  1  0.36308682  0.49148328  0.36183441  1
  O  O78  1  0.13371379  0.49819918  0.86314614  1
  O  O79  1  0.37971874  0.87560163  0.85503271  1
  O  O80  1  0.51270740  0.62902098  0.85307427  1
  O  O81  1  0.02278168  0.84854179  0.40811419  1
  O  O82  1  0.81862969  0.98897156  0.41059576  1
  O  O83  1  0.17257830  0.19786728  0.40847722  1
  O  O84  1  0.03783419  0.20416209  0.91236632  1
  O  O85  1  0.15961700  0.98187236  0.90757194  1
  O  O86  1  0.82071772  0.84548544  0.91364612  1
  O  O87  1  0.97806432  0.17635128  0.58587377  1
  O  O88  1  0.19725821  0.02415132  0.58768808  1
  O  O89  1  0.84610623  0.82306774  0.58852420  1
  O  O90  1  0.98000307  0.82579646  0.09033466  1
  O  O91  1  0.82785189  0.02480752  0.08963736  1
  O  O92  1  0.20019362  0.17289519  0.09055467  1
  O  O93  1  0.68529141  0.18194406  0.74049931  1
  O  O94  1  0.48094480  0.32325324  0.74461698  1
  O  O95  1  0.83890867  0.52665020  0.74171152  1
  O  O96  1  0.68195775  0.52000586  0.24262723  1
  O  O97  1  0.82501875  0.30848346  0.24475946  1
  O  O98  1  0.46931546  0.16877695  0.24315248  1
  O  O99  1  0.64595104  0.49107896  0.92231248  1
  O  O100  1  0.87065794  0.35590622  0.92068701  1
  O  O101  1  0.52519258  0.15304425  0.92765254  1
  O  O102  1  0.63523388  0.15839915  0.42508424  1
  O  O103  1  0.49408329  0.36049703  0.41975003  1
  O  O104  1  0.84539391  0.49636788  0.42183256  1
  O  O105  1  0.37621616  0.49678246  0.08170011  1
  O  O106  1  0.15779651  0.64070396  0.07600920  1
  O  O107  1  0.50430449  0.86353695  0.08018111  1
  O  O108  1  0.36357774  0.86777569  0.57806435  1
  O  O109  1  0.48760752  0.64498563  0.57723784  1
  O  O110  1  0.13624527  0.50189335  0.57724726  1
  O  O111  1  0.31234353  0.84643976  0.25194427  1
  O  O112  1  0.52958307  0.68991679  0.25497170  1
  O  O113  1  0.18385199  0.49137684  0.25570947  1
  O  O114  1  0.29098581  0.48667343  0.75676773  1
  O  O115  1  0.16057894  0.69622496  0.75496221  1
  O  O116  1  0.51016148  0.82907310  0.75288080  1
