# generated using pymatgen
data_Na10Ca4Al4Si3(S3O16)3
_symmetry_space_group_name_H-M   'P 1'
_cell_length_a   18.10142719
_cell_length_b   9.08237632
_cell_length_c   22.31976973
_cell_angle_alpha   89.80558032
_cell_angle_beta   87.45551844
_cell_angle_gamma   120.23439133
_symmetry_Int_Tables_number   1
_chemical_formula_structural   Na10Ca4Al4Si3(S3O16)3
_chemical_formula_sum   'Na30 Ca12 Al12 Si9 S27 O144'
_cell_volume   3165.77700974
_cell_formula_units_Z   3
loop_
 _symmetry_equiv_pos_site_id
 _symmetry_equiv_pos_as_xyz
  1  'x, y, z'
loop_
 _atom_site_type_symbol
 _atom_site_label
 _atom_site_symmetry_multiplicity
 _atom_site_fract_x
 _atom_site_fract_y
 _atom_site_fract_z
 _atom_site_occupancy
  Na  Na0  1  0.18898767  0.37196363  0.24644089  1
  Na  Na1  1  0.68881722  0.37351926  0.24523536  1
  Na  Na2  1  0.98660678  0.65236199  0.25568493  1
  Na  Na3  1  0.48956316  0.64038101  0.26367781  1
  Na  Na4  1  0.33275915  0.66201215  0.74257791  1
  Na  Na5  1  0.82681163  0.65350067  0.74512396  1
  Na  Na6  1  0.98854718  0.33372639  0.75386020  1
  Na  Na7  1  0.18414451  0.00042928  0.74146054  1
  Na  Na8  1  0.68546767  0.00277294  0.74052802  1
  Na  Na9  1  0.51814587  0.70721576  0.57357641  1
  Na  Na10  1  0.31952426  0.97593465  0.59101937  1
  Na  Na11  1  0.81742164  0.96766939  0.58895289  1
  Na  Na12  1  0.15577662  0.98096390  0.08131769  1
  Na  Na13  1  0.65570762  0.98126320  0.07928312  1
  Na  Na14  1  0.32244881  0.67754248  0.09430835  1
  Na  Na15  1  0.82173154  0.67421824  0.09481505  1
  Na  Na16  1  0.65414965  0.99350943  0.42666197  1
  Na  Na17  1  0.35678318  0.67022793  0.40773898  1
  Na  Na18  1  0.02607763  0.01348392  0.50389755  1
  Na  Na19  1  0.51095254  0.01203235  0.50278671  1
  Na  Na20  1  0.01345986  0.03755957  0.00356684  1
  Na  Na21  1  0.51329370  0.04006303  0.00435324  1
  Na  Na22  1  0.35112281  0.30459776  0.83201248  1
  Na  Na23  1  0.83520407  0.30991825  0.83501917  1
  Na  Na24  1  0.33504087  0.32640626  0.33566392  1
  Na  Na25  1  0.84083925  0.35860775  0.33444735  1
  Na  Na26  1  0.16897345  0.64697982  0.16887139  1
  Na  Na27  1  0.67103181  0.65431863  0.17051822  1
  Na  Na28  1  0.16020529  0.68047571  0.66466477  1
  Na  Na29  1  0.65626698  0.65786418  0.66600617  1
  Ca  Ca30  1  0.99853383  0.99174293  0.35574667  1
  Ca  Ca31  1  0.50046431  0.00220348  0.35241864  1
  Ca  Ca32  1  0.99946467  0.00350318  0.85663152  1
  Ca  Ca33  1  0.49749174  0.00398079  0.85749720  1
  Ca  Ca34  1  0.33356217  0.32802780  0.68487069  1
  Ca  Ca35  1  0.83246682  0.32942924  0.68001568  1
  Ca  Ca36  1  0.33377614  0.33437688  0.18335622  1
  Ca  Ca37  1  0.83442458  0.33765950  0.18316483  1
  Ca  Ca38  1  0.16247169  0.65002311  0.01809439  1
  Ca  Ca39  1  0.66252923  0.64930324  0.01762420  1
  Ca  Ca40  1  0.16079691  0.66777699  0.52151718  1
  Ca  Ca41  1  0.66859044  0.66843037  0.51567486  1
  Al  Al42  1  0.99337379  0.98220483  0.64377638  1
  Al  Al43  1  0.50575682  0.03443875  0.65000760  1
  Al  Al44  1  0.98558458  0.02322375  0.14700811  1
  Al  Al45  1  0.49819576  0.01715871  0.15370008  1
  Al  Al46  1  0.32284913  0.32066442  0.98407878  1
  Al  Al47  1  0.82154163  0.32145998  0.98227613  1
  Al  Al48  1  0.33239928  0.32380150  0.48233536  1
  Al  Al49  1  0.82908057  0.33603514  0.48732153  1
  Al  Al50  1  0.18071003  0.69009473  0.31615963  1
  Al  Al51  1  0.67858214  0.67958892  0.32627445  1
  Al  Al52  1  0.18295510  0.67585860  0.82376194  1
  Al  Al53  1  0.66774649  0.67233324  0.81648944  1
  Si  Si54  1  0.35106235  0.71652072  0.25111146  1
  Si  Si55  1  0.84976269  0.72052771  0.25053696  1
  Si  Si56  1  0.35037592  0.98719363  0.75250304  1
  Si  Si57  1  0.85145715  0.98807987  0.74987836  1
  Si  Si58  1  0.18042553  0.04988507  0.58725624  1
  Si  Si59  1  0.67768923  0.04208480  0.58744164  1
  Si  Si60  1  0.17714530  0.31275636  0.09045062  1
  Si  Si61  1  0.67758918  0.31398381  0.08953696  1
  Si  Si62  1  0.51486472  0.64372826  0.42013873  1
  S  S63  1  0.14811881  0.97580893  0.25110900  1
  S  S64  1  0.64552081  0.97987192  0.24756821  1
  S  S65  1  0.00554099  0.30132632  0.24980003  1
  S  S66  1  0.50572931  0.30221484  0.24743266  1
  S  S67  1  0.14455092  0.31109749  0.75018256  1
  S  S68  1  0.64200741  0.31206986  0.74934559  1
  S  S69  1  0.00450117  0.71414192  0.74785323  1
  S  S70  1  0.50997170  0.71360912  0.75225575  1
  S  S71  1  0.48020095  0.31533683  0.58065969  1
  S  S72  1  0.97440504  0.30691702  0.58161768  1
  S  S73  1  0.33948719  0.63876218  0.58052601  1
  S  S74  1  0.84395194  0.64038557  0.58122514  1
  S  S75  1  0.47338496  0.63490459  0.07670442  1
  S  S76  1  0.97389255  0.63625984  0.07683493  1
  S  S77  1  0.34091407  0.05019624  0.07628497  1
  S  S78  1  0.84067521  0.05182771  0.07657981  1
  S  S79  1  0.31060599  0.63098720  0.91859704  1
  S  S80  1  0.80904645  0.63023818  0.91630240  1
  S  S81  1  0.01261871  0.38956414  0.91558639  1
  S  S82  1  0.51327950  0.39143232  0.91646123  1
  S  S83  1  0.17980315  0.97335261  0.91780299  1
  S  S84  1  0.67814813  0.97270603  0.91744671  1
  S  S85  1  0.30601541  0.97307308  0.41624795  1
  S  S86  1  0.81376547  0.98714742  0.41908354  1
  S  S87  1  0.17270783  0.38673313  0.41257685  1
  S  S88  1  0.68104152  0.37944737  0.41657530  1
  S  S89  1  0.01034898  0.63455955  0.41728868  1
  O  O90  1  0.11242887  0.02144385  0.30331453  1
  O  O91  1  0.61083359  0.00922329  0.30430048  1
  O  O92  1  0.40296411  0.78862677  0.31051891  1
  O  O93  1  0.91628237  0.79948441  0.30168747  1
  O  O94  1  0.49809626  0.21197970  0.30330476  1
  O  O95  1  0.99742215  0.20720342  0.30444908  1
  O  O96  1  0.11615725  0.19795626  0.80393963  1
  O  O97  1  0.60973640  0.20072020  0.80284019  1
  O  O98  1  0.50041566  0.79246728  0.80649915  1
  O  O99  1  0.99523657  0.78788637  0.80382519  1
  O  O100  1  0.39997761  0.99063891  0.80939908  1
  O  O101  1  0.91646536  0.03121007  0.80161271  1
  O  O102  1  0.40324779  0.96489654  0.69055352  1
  O  O103  1  0.89759246  0.95264435  0.68728210  1
  O  O104  1  0.09042363  0.22551980  0.69937246  1
  O  O105  1  0.59007287  0.22513876  0.69639831  1
  O  O106  1  0.01156957  0.82262704  0.69450835  1
  O  O107  1  0.52345598  0.82044184  0.69714507  1
  O  O108  1  0.40552672  0.84095636  0.18956734  1
  O  O109  1  0.89763417  0.84076444  0.18567197  1
  O  O110  1  0.01054418  0.20669769  0.19513303  1
  O  O111  1  0.50828902  0.20278075  0.19394490  1
  O  O112  1  0.09727218  0.94837719  0.19771221  1
  O  O113  1  0.59154306  0.97225130  0.19657162  1
  O  O114  1  0.44649567  0.35208374  0.63614864  1
  O  O115  1  0.94727217  0.33278968  0.64233255  1
  O  O116  1  0.23091108  0.11336778  0.64830552  1
  O  O117  1  0.73072292  0.10990231  0.64674218  1
  O  O118  1  0.33543310  0.55554691  0.63842776  1
  O  O119  1  0.83462275  0.55789653  0.64017213  1
  O  O120  1  0.44426654  0.55309627  0.13663996  1
  O  O121  1  0.94537376  0.55726010  0.13746796  1
  O  O122  1  0.32750457  0.12193377  0.13110076  1
  O  O123  1  0.82763887  0.12240871  0.13160303  1
  O  O124  1  0.22598269  0.33939107  0.15119615  1
  O  O125  1  0.72689097  0.33996785  0.14993282  1
  O  O126  1  0.23179176  0.27928022  0.03339343  1
  O  O127  1  0.73182968  0.27948850  0.03233665  1
  O  O128  1  0.41838249  0.51928545  0.02936306  1
  O  O129  1  0.91874691  0.51801030  0.03021699  1
  O  O130  1  0.34947042  0.15697260  0.02177261  1
  O  O131  1  0.85032929  0.15702144  0.02206516  1
  O  O132  1  0.24271059  0.18019125  0.52922006  1
  O  O133  1  0.73390368  0.16847950  0.52712311  1
  O  O134  1  0.34501406  0.53964712  0.52861019  1
  O  O135  1  0.84860550  0.53656512  0.53084062  1
  O  O136  1  0.42572558  0.29419955  0.52953223  1
  O  O137  1  0.91564419  0.30616841  0.53562084  1
  O  O138  1  0.27418949  0.65613191  0.97441933  1
  O  O139  1  0.77300356  0.65326863  0.97299811  1
  O  O140  1  0.05576831  0.46408821  0.97018980  1
  O  O141  1  0.55446310  0.45945657  0.97227563  1
  O  O142  1  0.16785588  0.88220654  0.97471583  1
  O  O143  1  0.66647092  0.87902583  0.97371509  1
  O  O144  1  0.27324841  0.87783314  0.47335694  1
  O  O145  1  0.78156783  0.90330215  0.47836069  1
  O  O146  1  0.16680878  0.46623899  0.46744565  1
  O  O147  1  0.66632559  0.44977198  0.47085502  1
  O  O148  1  0.05921942  0.65009093  0.46925141  1
  O  O149  1  0.56543119  0.68021956  0.48052633  1
  O  O150  1  0.05447716  0.62018774  0.36029267  1
  O  O151  1  0.57665706  0.63576450  0.36139800  1
  O  O152  1  0.24940647  0.87148147  0.36607283  1
  O  O153  1  0.75439042  0.87592512  0.37159475  1
  O  O154  1  0.17779137  0.49546780  0.35782274  1
  O  O155  1  0.68699798  0.48241838  0.36120572  1
  O  O156  1  0.06540865  0.50264604  0.86085106  1
  O  O157  1  0.56739478  0.50893774  0.86339366  1
  O  O158  1  0.18595132  0.87148048  0.86515613  1
  O  O159  1  0.68503334  0.87652720  0.86386291  1
  O  O160  1  0.25608317  0.62198757  0.86618487  1
  O  O161  1  0.75582087  0.61850882  0.86415648  1
  O  O162  1  0.99784144  0.78228451  0.41385257  1
  O  O163  1  0.50283498  0.81114551  0.41331891  1
  O  O164  1  0.39341737  0.00494932  0.40585115  1
  O  O165  1  0.90128489  0.02533668  0.40855300  1
  O  O166  1  0.09950235  0.21263345  0.41004777  1
  O  O167  1  0.61080646  0.20017082  0.41164931  1
  O  O168  1  0.00170638  0.21798569  0.91112053  1
  O  O169  1  0.50243772  0.22095915  0.90990686  1
  O  O170  1  0.10785681  0.00289331  0.91090862  1
  O  O171  1  0.60713447  0.00553968  0.91164877  1
  O  O172  1  0.39885326  0.76920962  0.90938487  1
  O  O173  1  0.89746265  0.77021950  0.90770034  1
  O  O174  1  0.47597280  0.14498066  0.58768563  1
  O  O175  1  0.96634025  0.13389099  0.58045310  1
  O  O176  1  0.08575615  0.04068721  0.59454995  1
  O  O177  1  0.58186278  0.02864068  0.59569014  1
  O  O178  1  0.42005970  0.80922686  0.57668637  1
  O  O179  1  0.92551139  0.80965205  0.57906835  1
  O  O180  1  0.46797107  0.79352310  0.07381536  1
  O  O181  1  0.96795625  0.79420586  0.07303088  1
  O  O182  1  0.41872166  0.03457714  0.07865424  1
  O  O183  1  0.92073365  0.03964789  0.07999995  1
  O  O184  1  0.08099646  0.12875132  0.09708457  1
  O  O185  1  0.58222961  0.12986050  0.09571041  1
  O  O186  1  0.32933696  0.13999512  0.74980902  1
  O  O187  1  0.83332277  0.14735205  0.74729013  1
  O  O188  1  0.23660305  0.36970775  0.73869922  1
  O  O189  1  0.73283951  0.35836514  0.73841400  1
  O  O190  1  0.43333016  0.54251350  0.74757568  1
  O  O191  1  0.92817397  0.53940454  0.74468224  1
  O  O192  1  0.33733627  0.52371149  0.24711106  1
  O  O193  1  0.83390681  0.52581385  0.24542933  1
  O  O194  1  0.43428452  0.33608898  0.24519502  1
  O  O195  1  0.93401583  0.33528294  0.24639152  1
  O  O196  1  0.23875951  0.10714737  0.24274749  1
  O  O197  1  0.73489240  0.11780530  0.24043204  1
  O  O198  1  0.30825461  0.46358301  0.92143719  1
  O  O199  1  0.80918867  0.46342295  0.92048677  1
  O  O200  1  0.42793691  0.38130639  0.91814881  1
  O  O201  1  0.92683773  0.37791899  0.91725438  1
  O  O202  1  0.26247312  0.14139737  0.91805767  1
  O  O203  1  0.76157066  0.14056629  0.91883129  1
  O  O204  1  0.30652171  0.13752710  0.41824182  1
  O  O205  1  0.80891359  0.14773927  0.41757441  1
  O  O206  1  0.25455260  0.38214369  0.40998380  1
  O  O207  1  0.76375082  0.37807394  0.41948806  1
  O  O208  1  0.41637617  0.46966250  0.42788775  1
  O  O209  1  0.92333238  0.47183536  0.42490576  1
  O  O210  1  0.17030102  0.48293366  0.08248560  1
  O  O211  1  0.67108128  0.48463411  0.08226965  1
  O  O212  1  0.06508142  0.68686886  0.06934582  1
  O  O213  1  0.56490723  0.68645648  0.06905854  1
  O  O214  1  0.26450089  0.87495656  0.07261795  1
  O  O215  1  0.76646028  0.87580367  0.07242307  1
  O  O216  1  0.16866527  0.85956827  0.58094697  1
  O  O217  1  0.66365741  0.84855370  0.58226703  1
  O  O218  1  0.26555709  0.66622767  0.57900814  1
  O  O219  1  0.77117978  0.66939915  0.57623581  1
  O  O220  1  0.06348836  0.43783408  0.57101784  1
  O  O221  1  0.56989741  0.44825818  0.57271635  1
  O  O222  1  0.14165249  0.80287720  0.26321308  1
  O  O223  1  0.64119142  0.81116949  0.25034060  1
  O  O224  1  0.25400032  0.69777416  0.25740699  1
  O  O225  1  0.75291244  0.70060619  0.26524736  1
  O  O226  1  0.08773502  0.46837075  0.24726477  1
  O  O227  1  0.58794714  0.46698823  0.24402232  1
  O  O228  1  0.13881478  0.47064977  0.76142752  1
  O  O229  1  0.64148298  0.47552572  0.75736268  1
  O  O230  1  0.08324293  0.70100331  0.74706835  1
  O  O231  1  0.59068494  0.70085818  0.75605155  1
  O  O232  1  0.25215722  0.79969710  0.75971336  1
  O  O233  1  0.75556592  0.80558479  0.76221386  1
