# generated using pymatgen
data_Na4Mg(FeO2)4
_symmetry_space_group_name_H-M   'P 1'
_cell_length_a   5.97961615
_cell_length_b   5.83561475
_cell_length_c   6.96447847
_cell_angle_alpha   89.40610539
_cell_angle_beta   89.02375161
_cell_angle_gamma   87.17662177
_symmetry_Int_Tables_number   1
_chemical_formula_structural   Na4Mg(FeO2)4
_chemical_formula_sum   'Na4 Mg1 Fe4 O8'
_cell_volume   242.68236229
_cell_formula_units_Z   1
loop_
 _symmetry_equiv_pos_site_id
 _symmetry_equiv_pos_as_xyz
  1  'x, y, z'
loop_
 _atom_site_type_symbol
 _atom_site_label
 _atom_site_symmetry_multiplicity
 _atom_site_fract_x
 _atom_site_fract_y
 _atom_site_fract_z
 _atom_site_occupancy
  Na  Na0  1  0.49026655  0.87524033  0.38164704  1
  Na  Na1  1  0.00266681  0.07552444  0.59480119  1
  Na  Na2  1  0.11128306  0.71293191  0.87633109  1
  Na  Na3  1  0.37759472  0.39116046  0.13746860  1
  Mg  Mg4  1  0.78576938  0.38245539  0.88158435  1
  Fe  Fe5  1  0.97467298  0.56449378  0.37378799  1
  Fe  Fe6  1  0.46367484  0.38374955  0.61215027  1
  Fe  Fe7  1  0.52660872  0.91353063  0.88223501  1
  Fe  Fe8  1  0.01052009  0.06333681  0.14772623  1
  O  O9  1  0.87614526  0.87506106  0.34735977  1
  O  O10  1  0.38909477  0.06189575  0.66590026  1
  O  O11  1  0.50209654  0.58045630  0.87209779  1
  O  O12  1  0.96285474  0.42862815  0.11473940  1
  O  O13  1  0.28757969  0.54864458  0.42123605  1
  O  O14  1  0.83228966  0.43747554  0.59888589  1
  O  O15  1  0.81766029  0.03638784  0.89725030  1
  O  O16  1  0.33540991  0.00236046  0.09294875  1
