# generated using pymatgen
data_NaHO
_symmetry_space_group_name_H-M   'P 1'
_cell_length_a   3.37789285
_cell_length_b   3.37206360
_cell_length_c   5.60694632
_cell_angle_alpha   90.00000000
_cell_angle_beta   106.10298053
_cell_angle_gamma   90.00000000
_symmetry_Int_Tables_number   1
_chemical_formula_structural   NaHO
_chemical_formula_sum   'Na2 H2 O2'
_cell_volume   61.35996095
_cell_formula_units_Z   2
loop_
 _symmetry_equiv_pos_site_id
 _symmetry_equiv_pos_as_xyz
  1  'x, y, z'
loop_
 _atom_site_type_symbol
 _atom_site_label
 _atom_site_symmetry_multiplicity
 _atom_site_fract_x
 _atom_site_fract_y
 _atom_site_fract_z
 _atom_site_occupancy
  Na  Na0  1  0.66702716  0.25000000  0.81837155  1
  Na  Na1  1  0.33297284  0.75000000  0.18162845  1
  H  H2  1  0.95947182  0.25000000  0.41905505  1
  H  H3  1  0.04052818  0.75000000  0.58094495  1
  O  O4  1  0.14622684  0.75000000  0.75947481  1
  O  O5  1  0.85377316  0.25000000  0.24052519  1
