# generated using pymatgen
data_Na2HfMgSi(SO6)2
_symmetry_space_group_name_H-M   'P 1'
_cell_length_a   8.96927672
_cell_length_b   8.96208075
_cell_length_c   22.71793515
_cell_angle_alpha   89.73813477
_cell_angle_beta   90.00000000
_cell_angle_gamma   120.02656444
_symmetry_Int_Tables_number   1
_chemical_formula_structural   Na2HfMgSi(SO6)2
_chemical_formula_sum   'Na12 Hf6 Mg6 Si6 S12 O72'
_cell_volume   1581.04196454
_cell_formula_units_Z   6
loop_
 _symmetry_equiv_pos_site_id
 _symmetry_equiv_pos_as_xyz
  1  'x, y, z'
loop_
 _atom_site_type_symbol
 _atom_site_label
 _atom_site_symmetry_multiplicity
 _atom_site_fract_x
 _atom_site_fract_y
 _atom_site_fract_z
 _atom_site_occupancy
  Na  Na0  1  0.99957028  0.63731081  0.23767743  1
  Na  Na1  1  0.63774053  0.63731081  0.73767743  1
  Na  Na2  1  0.65395579  0.95375830  0.57498638  1
  Na  Na3  1  0.29980350  0.95375830  0.07498638  1
  Na  Na4  1  0.69032320  0.02586072  0.90572985  1
  Na  Na5  1  0.33553652  0.02586072  0.40572985  1
  Na  Na6  1  0.97087816  0.98303475  0.49195924  1
  Na  Na7  1  0.01215659  0.98303475  0.99195924  1
  Na  Na8  1  0.65273816  0.30304663  0.82577641  1
  Na  Na9  1  0.65030947  0.30304663  0.32577641  1
  Na  Na10  1  0.32476594  0.65648267  0.16038399  1
  Na  Na11  1  0.33171572  0.65648267  0.66038399  1
  Hf  Hf12  1  0.99176096  0.99353010  0.64746784  1
  Hf  Hf13  1  0.00176914  0.99353010  0.14746784  1
  Hf  Hf14  1  0.67150208  0.34261834  0.98094122  1
  Hf  Hf15  1  0.67111726  0.34261834  0.48094122  1
  Hf  Hf16  1  0.34664734  0.68393432  0.31444683  1
  Hf  Hf17  1  0.33728598  0.68393432  0.81444683  1
  Mg  Mg18  1  0.99777587  0.00564794  0.35169492  1
  Mg  Mg19  1  0.00787207  0.00564794  0.85169492  1
  Mg  Mg20  1  0.66442812  0.32691851  0.68522283  1
  Mg  Mg21  1  0.66249139  0.32691851  0.18522283  1
  Mg  Mg22  1  0.31344645  0.66579717  0.01830952  1
  Mg  Mg23  1  0.35234971  0.66579717  0.51830952  1
  Si  Si24  1  0.30077605  0.01109696  0.25429321  1
  Si  Si25  1  0.71032092  0.01109696  0.75429321  1
  Si  Si26  1  0.65896802  0.62173262  0.58943262  1
  Si  Si27  1  0.96276560  0.62173262  0.08943262  1
  Si  Si28  1  0.32625817  0.96676533  0.92108500  1
  Si  Si29  1  0.64050617  0.96676533  0.42108500  1
  S  S30  1  0.70810950  0.70792911  0.25161942  1
  S  S31  1  0.99947518  0.29154743  0.25124973  1
  S  S32  1  0.29207225  0.29154743  0.75124973  1
  S  S33  1  -0.00018038  0.70792911  0.75161942  1
  S  S34  1  0.96218905  0.33961849  0.58428187  1
  S  S35  1  0.37294964  0.04226859  0.58317300  1
  S  S36  1  0.66931995  0.04226859  0.08317300  1
  S  S37  1  0.37743044  0.33961849  0.08428187  1
  S  S38  1  0.61941466  0.66447780  0.91791558  1
  S  S39  1  0.04370036  0.37459664  0.91824010  1
  S  S40  1  0.33089528  0.37459664  0.41824010  1
  S  S41  1  0.04506214  0.66447780  0.41791558  1
  O  O42  1  0.20591643  0.01871234  0.31335832  1
  O  O43  1  0.81391357  0.79458010  0.30287505  1
  O  O44  1  0.97943768  0.18788522  0.30345110  1
  O  O45  1  0.20844754  0.18788522  0.80345110  1
  O  O46  1  0.98066652  0.79458010  0.80287505  1
  O  O47  1  0.81279591  0.01871234  0.81335832  1
  O  O48  1  0.80535966  0.97427038  0.69591332  1
  O  O49  1  0.19140621  0.20946250  0.69662878  1
  O  O50  1  0.03179826  0.81639315  0.69702452  1
  O  O51  1  0.78459489  0.81639315  0.19702452  1
  O  O52  1  0.01805628  0.20946250  0.19662878  1
  O  O53  1  0.16891072  0.97427038  0.19591332  1
  O  O54  1  0.87958102  0.35717048  0.63673662  1
  O  O55  1  0.48710970  0.12422457  0.63333944  1
  O  O56  1  0.65145718  0.52128831  0.64881349  1
  O  O57  1  0.86983213  0.52128831  0.14881349  1
  O  O58  1  0.63711588  0.12422457  0.13333944  1
  O  O59  1  0.47759046  0.35717048  0.13673662  1
  O  O60  1  0.45442386  0.30030667  0.03116823  1
  O  O61  1  0.83982643  0.52453163  0.03105837  1
  O  O62  1  0.69067461  0.14429819  0.02754410  1
  O  O63  1  0.45362458  0.14429819  0.52754410  1
  O  O64  1  0.68470620  0.52453163  0.53105837  1
  O  O65  1  0.84588380  0.30030667  0.53116823  1
  O  O66  1  0.52826060  0.68062130  0.96851172  1
  O  O67  1  0.14615407  0.45572074  0.97055015  1
  O  O68  1  0.31612489  0.86398014  0.98049582  1
  O  O69  1  0.54785425  0.86398014  0.48049582  1
  O  O70  1  0.30956567  0.45572074  0.47055015  1
  O  O71  1  0.15235969  0.68062130  0.46851172  1
  O  O72  1  0.12052323  0.63761829  0.36233022  1
  O  O73  1  0.50315225  0.86706399  0.36400670  1
  O  O74  1  0.35220472  0.47735007  0.36397507  1
  O  O75  1  0.12514435  0.47735007  0.86397507  1
  O  O76  1  0.36391074  0.86706399  0.86400670  1
  O  O77  1  0.51709405  0.63761829  0.86233022  1
  O  O78  1  0.02953828  0.81990455  0.41271595  1
  O  O79  1  0.82697572  0.98985055  0.41006181  1
  O  O80  1  0.18627035  0.19735865  0.41318257  1
  O  O81  1  0.01108830  0.19735865  0.91318257  1
  O  O82  1  0.16287483  0.98985055  0.91006181  1
  O  O83  1  0.79036628  0.81990455  0.91271595  1
  O  O84  1  0.97823138  0.17882204  0.58892150  1
  O  O85  1  0.20472305  0.03664858  0.58916419  1
  O  O86  1  0.83942003  0.82282371  0.58901249  1
  O  O87  1  0.98340368  0.82282371  0.08901249  1
  O  O88  1  0.83192553  0.03664858  0.08916419  1
  O  O89  1  0.20059067  0.17882204  0.08892150  1
  O  O90  1  0.68026781  0.17039869  0.74352347  1
  O  O91  1  0.46899412  0.32100239  0.74660214  1
  O  O92  1  0.84550007  0.53821799  0.74550209  1
  O  O93  1  0.69271891  0.53821799  0.24550209  1
  O  O94  1  0.85200926  0.32100239  0.24660214  1
  O  O95  1  0.49013188  0.17039869  0.24352347  1
  O  O96  1  0.64039994  0.50881499  0.92207427  1
  O  O97  1  0.86755705  0.36089180  0.92201916  1
  O  O98  1  0.51487007  0.15518369  0.92222126  1
  O  O99  1  0.64031462  0.15518369  0.42222126  1
  O  O100  1  0.49333576  0.36089180  0.42201916  1
  O  O101  1  0.86841606  0.50881499  0.42207427  1
  O  O102  1  0.35794949  0.48973757  0.07451312  1
  O  O103  1  0.15690126  0.65393250  0.08292125  1
  O  O104  1  0.52298843  0.86581788  0.07729816  1
  O  O105  1  0.34282845  0.86581788  0.57729816  1
  O  O106  1  0.49703023  0.65393250  0.58292125  1
  O  O107  1  0.13178709  0.48973757  0.57451312  1
  O  O108  1  0.30217112  0.82031907  0.25562968  1
  O  O109  1  0.53077219  0.68527483  0.25608097  1
  O  O110  1  0.16064777  0.46624923  0.25488790  1
  O  O111  1  0.30560047  0.46624923  0.75488790  1
  O  O112  1  0.15450164  0.68527483  0.75608097  1
  O  O113  1  0.51814694  0.82031907  0.75562968  1
