# generated using pymatgen
data_NbSbF10
_symmetry_space_group_name_H-M   'P 1'
_cell_length_a   5.65148103
_cell_length_b   7.22029835
_cell_length_c   9.27414007
_cell_angle_alpha   87.26052910
_cell_angle_beta   106.20585413
_cell_angle_gamma   100.47357517
_symmetry_Int_Tables_number   1
_chemical_formula_structural   NbSbF10
_chemical_formula_sum   'Nb2 Sb2 F20'
_cell_volume   357.34140588
_cell_formula_units_Z   2
loop_
 _symmetry_equiv_pos_site_id
 _symmetry_equiv_pos_as_xyz
  1  'x, y, z'
loop_
 _atom_site_type_symbol
 _atom_site_label
 _atom_site_symmetry_multiplicity
 _atom_site_fract_x
 _atom_site_fract_y
 _atom_site_fract_z
 _atom_site_occupancy
  Nb  Nb0  1  0.33102610  0.36161984  0.21812808  1
  Nb  Nb1  1  0.66897390  0.63838016  0.78187192  1
  Sb  Sb2  1  0.97004896  0.76576046  0.31713158  1
  Sb  Sb3  1  0.02995104  0.23423954  0.68286842  1
  F  F4  1  0.00485816  0.23528546  0.16839325  1
  F  F5  1  0.99514184  0.76471454  0.83160675  1
  F  F6  1  0.48967784  0.19677035  0.15152323  1
  F  F7  1  0.51032216  0.80322965  0.84847677  1
  F  F8  1  0.10652766  0.22005572  0.89286727  1
  F  F9  1  0.89347234  0.77994428  0.10713273  1
  F  F10  1  0.95275114  0.28808495  0.47790036  1
  F  F11  1  0.04724886  0.71191505  0.52209964  1
  F  F12  1  0.75389996  0.03977127  0.66106801  1
  F  F13  1  0.24610004  0.96022873  0.33893199  1
  F  F14  1  0.25881246  0.08383149  0.67152651  1
  F  F15  1  0.74118754  0.91616851  0.32847349  1
  F  F16  1  0.30043926  0.45544776  0.71337615  1
  F  F17  1  0.69956074  0.54455224  0.28662385  1
  F  F18  1  0.82036154  0.41790975  0.69725938  1
  F  F19  1  0.17963846  0.58209025  0.30274062  1
  F  F20  1  0.69076409  0.45647514  0.93437795  1
  F  F21  1  0.30923591  0.54352486  0.06562205  1
  F  F22  1  0.56969131  0.67318016  0.57468204  1
  F  F23  1  0.43030869  0.32681984  0.42531796  1
