# generated using pymatgen
data_Na3Hf3InSi3(SO8)3
_symmetry_space_group_name_H-M   'P 1'
_cell_length_a   9.01242590
_cell_length_b   9.06700054
_cell_length_c   22.92709456
_cell_angle_alpha   89.84340859
_cell_angle_beta   90.17535347
_cell_angle_gamma   120.13320722
_symmetry_Int_Tables_number   1
_chemical_formula_structural   Na3Hf3InSi3(SO8)3
_chemical_formula_sum   'Na9 Hf9 In3 Si9 S9 O72'
_cell_volume   1620.30973058
_cell_formula_units_Z   3
loop_
 _symmetry_equiv_pos_site_id
 _symmetry_equiv_pos_as_xyz
  1  'x, y, z'
loop_
 _atom_site_type_symbol
 _atom_site_label
 _atom_site_symmetry_multiplicity
 _atom_site_fract_x
 _atom_site_fract_y
 _atom_site_fract_z
 _atom_site_occupancy
  Na  Na0  1  0.34763003  0.35415182  0.23592357  1
  Na  Na1  1  0.63817327  0.62398921  0.75766902  1
  Na  Na2  1  0.97179291  0.28912758  0.41574885  1
  Na  Na3  1  0.99085212  0.01255886  0.49717835  1
  Na  Na4  1  0.99080371  0.96917261  0.00386108  1
  Na  Na5  1  0.66260849  0.34403981  0.82956014  1
  Na  Na6  1  0.66696617  0.30482246  0.32790355  1
  Na  Na7  1  0.26408464  0.63689256  0.16114132  1
  Na  Na8  1  0.25391610  0.62014917  0.66706506  1
  Hf  Hf9  1  0.01074549  0.99492386  0.85374578  1
  Hf  Hf10  1  0.01323164  0.01397759  0.64600374  1
  Hf  Hf11  1  0.00558539  0.01067144  0.14498395  1
  Hf  Hf12  1  0.66686017  0.35615560  0.98169319  1
  Hf  Hf13  1  0.66251361  0.31994869  0.47807338  1
  Hf  Hf14  1  0.34232723  0.65977123  0.02205320  1
  Hf  Hf15  1  0.33336547  0.65533745  0.51828125  1
  Hf  Hf16  1  0.33898238  0.66267997  0.31378407  1
  Hf  Hf17  1  0.32831021  0.65541695  0.81053321  1
  In  In18  1  0.99275252  0.01232852  0.35378226  1
  In  In19  1  0.67887849  0.33973173  0.68735888  1
  In  In20  1  0.69400715  0.35507581  0.17944675  1
  Si  Si21  1  0.99141747  0.29957425  0.25328717  1
  Si  Si22  1  0.29662643  0.29086356  0.75057099  1
  Si  Si23  1  0.00637792  0.71292650  0.74782358  1
  Si  Si24  1  0.96178402  0.33189088  0.58275154  1
  Si  Si25  1  0.97201763  0.64105270  0.08254037  1
  Si  Si26  1  0.37784279  0.33549783  0.08847761  1
  Si  Si27  1  0.63330306  0.67399965  0.91360730  1
  Si  Si28  1  0.62183893  0.95396297  0.41769520  1
  Si  Si29  1  0.34009684  0.37142193  0.41404099  1
  S  S30  1  0.28545306  0.99326093  0.25066785  1
  S  S31  1  0.70566691  0.70840167  0.25192649  1
  S  S32  1  0.71315071  0.99858355  0.75202082  1
  S  S33  1  0.37132809  0.03679313  0.58367287  1
  S  S34  1  0.66844990  0.62898326  0.58396523  1
  S  S35  1  0.66799176  0.04501691  0.08120135  1
  S  S36  1  0.04031603  0.37342584  0.91729101  1
  S  S37  1  0.34265650  0.95861932  0.91647092  1
  S  S38  1  0.04363558  0.66588349  0.41701176  1
  O  O39  1  0.19687263  0.00326877  0.30334348  1
  O  O40  1  0.80542307  0.78555366  0.30554843  1
  O  O41  1  0.97990032  0.21521619  0.31741229  1
  O  O42  1  0.19641565  0.18482265  0.80874085  1
  O  O43  1  0.98356455  0.81080994  0.80496417  1
  O  O44  1  0.81597712  0.01420642  0.80467717  1
  O  O45  1  0.79635442  0.98015748  0.69880676  1
  O  O46  1  0.18038513  0.20269767  0.69219645  1
  O  O47  1  0.01332851  0.82280729  0.69019567  1
  O  O48  1  0.79741159  0.80282623  0.19896424  1
  O  O49  1  0.01584412  0.18394451  0.20205599  1
  O  O50  1  0.18308403  0.97638940  0.19709913  1
  O  O51  1  0.87614818  0.35416645  0.64167037  1
  O  O52  1  0.46655562  0.11455752  0.63753905  1
  O  O53  1  0.63935263  0.54027554  0.64069684  1
  O  O54  1  0.91882914  0.52770592  0.14168328  1
  O  O55  1  0.63343523  0.11061928  0.13481498  1
  O  O56  1  0.47540918  0.35330846  0.15023165  1
  O  O57  1  0.47772772  0.31197681  0.03264548  1
  O  O58  1  0.84709168  0.53565193  0.02674217  1
  O  O59  1  0.69338309  0.15193403  0.02918724  1
  O  O60  1  0.46112501  0.14442548  0.53163795  1
  O  O61  1  0.67850828  0.52752980  0.53539800  1
  O  O62  1  0.85234862  0.32114924  0.52350052  1
  O  O63  1  0.52272230  0.68348000  0.96796969  1
  O  O64  1  0.14117599  0.46306854  0.96944844  1
  O  O65  1  0.31958336  0.85596370  0.96861353  1
  O  O66  1  0.51501676  0.85200273  0.47530654  1
  O  O67  1  0.30418279  0.47315282  0.46702681  1
  O  O68  1  0.14239641  0.68470080  0.47078201  1
  O  O69  1  0.12834428  0.63900581  0.36536570  1
  O  O70  1  0.50805261  0.86207058  0.35915577  1
  O  O71  1  0.35253814  0.47793029  0.35361084  1
  O  O72  1  0.12407462  0.48014101  0.86427097  1
  O  O73  1  0.34841118  0.86908828  0.86312780  1
  O  O74  1  0.52558971  0.65780309  0.85332543  1
  O  O75  1  0.02162599  0.81343486  0.41051103  1
  O  O76  1  0.81130482  0.97227630  0.41879573  1
  O  O77  1  0.17312779  0.18010424  0.41543353  1
  O  O78  1  0.03161214  0.20689081  0.91273150  1
  O  O79  1  0.19120497  0.98530474  0.91306764  1
  O  O80  1  0.82537782  0.84474872  0.91322970  1
  O  O81  1  0.97469663  0.15638051  0.58559573  1
  O  O82  1  0.19914685  0.02392558  0.58453668  1
  O  O83  1  0.82617167  0.79924541  0.58472015  1
  O  O84  1  0.96576745  0.81753050  0.09028832  1
  O  O85  1  0.82393048  0.02861251  0.08799496  1
  O  O86  1  0.18242488  0.16874991  0.09046350  1
  O  O87  1  0.68703193  0.14526025  0.75026678  1
  O  O88  1  0.48789950  0.31488452  0.74654024  1
  O  O89  1  0.83296798  0.52584520  0.75041663  1
  O  O90  1  0.66326759  0.52744677  0.25044039  1
  O  O91  1  0.81937119  0.31376956  0.24741950  1
  O  O92  1  0.45401749  0.15161658  0.24776723  1
  O  O93  1  0.64724982  0.49857030  0.91873977  1
  O  O94  1  0.86468430  0.34725925  0.92082725  1
  O  O95  1  0.50152329  0.12798474  0.91992513  1
  O  O96  1  0.65537466  0.15299368  0.42024468  1
  O  O97  1  0.51917765  0.37258014  0.42412252  1
  O  O98  1  0.87348002  0.50460319  0.42119705  1
  O  O99  1  0.35489614  0.50394222  0.07930327  1
  O  O100  1  0.16705593  0.68173226  0.06851699  1
  O  O101  1  0.52043366  0.86990861  0.07234939  1
  O  O102  1  0.34580665  0.86343499  0.57748786  1
  O  O103  1  0.51834851  0.65451473  0.57541331  1
  O  O104  1  0.15499200  0.50179359  0.57797342  1
  O  O105  1  0.30474341  0.83981179  0.25281109  1
  O  O106  1  0.53773302  0.70658194  0.25282704  1
  O  O107  1  0.17436200  0.48816445  0.25132349  1
  O  O108  1  0.32055851  0.48563006  0.75437429  1
  O  O109  1  0.18237379  0.70318949  0.75519552  1
  O  O110  1  0.54338800  0.83715503  0.75524639  1
