# generated using pymatgen
data_FeSeCl7
_symmetry_space_group_name_H-M   'P 1'
_cell_length_a   6.40545263
_cell_length_b   8.32638524
_cell_length_c   9.90748033
_cell_angle_alpha   85.65871016
_cell_angle_beta   76.94466990
_cell_angle_gamma   83.16015565
_symmetry_Int_Tables_number   1
_chemical_formula_structural   FeSeCl7
_chemical_formula_sum   'Fe2 Se2 Cl14'
_cell_volume   510.43579688
_cell_formula_units_Z   2
loop_
 _symmetry_equiv_pos_site_id
 _symmetry_equiv_pos_as_xyz
  1  'x, y, z'
loop_
 _atom_site_type_symbol
 _atom_site_label
 _atom_site_symmetry_multiplicity
 _atom_site_fract_x
 _atom_site_fract_y
 _atom_site_fract_z
 _atom_site_occupancy
  Fe  Fe0  1  0.49708581  0.12586033  0.12514834  1
  Fe  Fe1  1  0.75561137  0.56180348  0.55306321  1
  Se  Se2  1  0.95844718  0.51062814  0.07729995  1
  Se  Se3  1  0.17823379  0.95066641  0.54809926  1
  Cl  Cl4  1  0.93070378  0.04658636  0.43907562  1
  Cl  Cl5  1  0.98143952  0.93542222  0.75543113  1
  Cl  Cl6  1  0.31143183  0.17164810  0.56829514  1
  Cl  Cl7  1  0.70922604  0.35446400  0.69794812  1
  Cl  Cl8  1  0.83572524  0.18362764  0.07607233  1
  Cl  Cl9  1  0.28064982  0.33668990  0.21343401  1
  Cl  Cl10  1  0.48088770  0.92083817  0.28290706  1
  Cl  Cl11  1  0.41875930  0.04326289  0.94343087  1
  Cl  Cl12  1  0.07382039  0.73284976  0.11655317  1
  Cl  Cl13  1  0.17736108  0.46712192  0.88051162  1
  Cl  Cl14  1  0.68128987  0.61770659  -0.00035564  1
  Cl  Cl15  1  0.09378186  0.61919748  0.51106795  1
  Cl  Cl16  1  0.54083713  0.76989957  0.64974429  1
  Cl  Cl17  1  0.67831030  0.50152903  0.35756756  1
