# generated using pymatgen
data_La5C2Br9
_symmetry_space_group_name_H-M   'P 1'
_cell_length_a   10.00679136
_cell_length_b   11.38827436
_cell_length_c   16.73781158
_cell_angle_alpha   90.00000000
_cell_angle_beta   90.00000000
_cell_angle_gamma   90.00000000
_symmetry_Int_Tables_number   1
_chemical_formula_structural   La5C2Br9
_chemical_formula_sum   'La20 C8 Br36'
_cell_volume   1907.44243825
_cell_formula_units_Z   4
loop_
 _symmetry_equiv_pos_site_id
 _symmetry_equiv_pos_as_xyz
  1  'x, y, z'
loop_
 _atom_site_type_symbol
 _atom_site_label
 _atom_site_symmetry_multiplicity
 _atom_site_fract_x
 _atom_site_fract_y
 _atom_site_fract_z
 _atom_site_occupancy
  La  La0  1  0.54706722  0.30884696  0.55055538  1
  La  La1  1  0.04706722  0.69115304  0.44944462  1
  La  La2  1  0.95293278  0.80884696  0.94944462  1
  La  La3  1  0.45293278  0.19115304  0.05055538  1
  La  La4  1  0.45293278  0.69115304  0.44944462  1
  La  La5  1  0.95293278  0.30884696  0.55055538  1
  La  La6  1  0.04706722  0.19115304  0.05055538  1
  La  La7  1  0.54706722  0.80884696  0.94944462  1
  La  La8  1  0.25000000  0.96359739  0.56576038  1
  La  La9  1  0.75000000  0.03640261  0.43423962  1
  La  La10  1  0.25000000  0.46359739  0.93423962  1
  La  La11  1  0.75000000  0.53640261  0.06576038  1
  La  La12  1  0.25000000  0.63560819  0.64788085  1
  La  La13  1  0.75000000  0.36439181  0.35211915  1
  La  La14  1  0.25000000  0.13560819  0.85211915  1
  La  La15  1  0.75000000  0.86439181  0.14788085  1
  La  La16  1  0.25000000  0.93031573  0.34128452  1
  La  La17  1  0.75000000  0.06968427  0.65871548  1
  La  La18  1  0.25000000  0.43031573  0.15871548  1
  La  La19  1  0.75000000  0.56968427  0.84128452  1
  C  C20  1  0.25000000  0.74594573  0.52815366  1
  C  C21  1  0.75000000  0.25405427  0.47184634  1
  C  C22  1  0.25000000  0.24594573  0.97184634  1
  C  C23  1  0.75000000  0.75405427  0.02815366  1
  C  C24  1  0.25000000  0.82083413  0.45667666  1
  C  C25  1  0.75000000  0.17916587  0.54332334  1
  C  C26  1  0.25000000  0.32083413  0.04332334  1
  C  C27  1  0.75000000  0.67916587  0.95667666  1
  Br  Br28  1  0.53457864  0.56875975  0.60997646  1
  Br  Br29  1  0.03457864  0.43124025  0.39002354  1
  Br  Br30  1  0.96542136  0.06875975  0.89002354  1
  Br  Br31  1  0.46542136  0.93124025  0.10997646  1
  Br  Br32  1  0.46542136  0.43124025  0.39002354  1
  Br  Br33  1  0.96542136  0.56875975  0.60997646  1
  Br  Br34  1  0.03457864  0.93124025  0.10997646  1
  Br  Br35  1  0.53457864  0.06875975  0.89002354  1
  Br  Br36  1  0.42762422  0.11435826  0.43962051  1
  Br  Br37  1  0.92762422  0.88564174  0.56037949  1
  Br  Br38  1  0.07237578  0.61435826  0.06037949  1
  Br  Br39  1  0.57237578  0.38564174  0.93962051  1
  Br  Br40  1  0.57237578  0.88564174  0.56037949  1
  Br  Br41  1  0.07237578  0.11435826  0.43962051  1
  Br  Br42  1  0.92762422  0.38564174  0.93962051  1
  Br  Br43  1  0.42762422  0.61435826  0.06037949  1
  Br  Br44  1  0.44848408  0.13279376  0.67639606  1
  Br  Br45  1  0.94848408  0.86720624  0.32360394  1
  Br  Br46  1  0.05151592  0.63279376  0.82360394  1
  Br  Br47  1  0.55151592  0.36720624  0.17639606  1
  Br  Br48  1  0.55151592  0.86720624  0.32360394  1
  Br  Br49  1  0.05151592  0.13279376  0.67639606  1
  Br  Br50  1  0.94848408  0.36720624  0.17639606  1
  Br  Br51  1  0.44848408  0.63279376  0.82360394  1
  Br  Br52  1  0.25000000  0.86944936  0.72875188  1
  Br  Br53  1  0.75000000  0.13055064  0.27124812  1
  Br  Br54  1  0.25000000  0.36944936  0.77124812  1
  Br  Br55  1  0.75000000  0.63055064  0.22875188  1
  Br  Br56  1  0.25000000  0.65919289  0.29193876  1
  Br  Br57  1  0.75000000  0.34080711  0.70806124  1
  Br  Br58  1  0.25000000  0.15919289  0.20806124  1
  Br  Br59  1  0.75000000  0.84080711  0.79193876  1
  Br  Br60  1  0.25000000  0.38443422  0.56075355  1
  Br  Br61  1  0.75000000  0.61556578  0.43924645  1
  Br  Br62  1  0.25000000  0.88443422  0.93924645  1
  Br  Br63  1  0.75000000  0.11556578  0.06075355  1
