# generated using pymatgen
data_MgFe4(HO2)4
_symmetry_space_group_name_H-M   'P 1'
_cell_length_a   10.33601953
_cell_length_b   3.06562918
_cell_length_c   5.64572284
_cell_angle_alpha   90.00000000
_cell_angle_beta   90.50303900
_cell_angle_gamma   90.00000000
_symmetry_Int_Tables_number   1
_chemical_formula_structural   MgFe4(HO2)4
_chemical_formula_sum   'Mg1 Fe4 H4 O8'
_cell_volume   178.88575465
_cell_formula_units_Z   1
loop_
 _symmetry_equiv_pos_site_id
 _symmetry_equiv_pos_as_xyz
  1  'x, y, z'
loop_
 _atom_site_type_symbol
 _atom_site_label
 _atom_site_symmetry_multiplicity
 _atom_site_fract_x
 _atom_site_fract_y
 _atom_site_fract_z
 _atom_site_occupancy
  Mg  Mg0  1  0.22432159  0.75000000  0.20290835  1
  Fe  Fe1  1  0.67513146  0.25000000  0.73481311  1
  Fe  Fe2  1  0.09019818  0.25000000  0.73794890  1
  Fe  Fe3  1  0.41854997  0.75000000  0.52687420  1
  Fe  Fe4  1  0.88883235  0.75000000  0.02271537  1
  H  H5  1  0.40483471  0.25000000  0.92188766  1
  H  H6  1  0.87135966  0.25000000  0.43195430  1
  H  H7  1  0.64740672  0.75000000  0.15631216  1
  H  H8  1  0.03113605  0.75000000  0.40385157  1
  O  O9  1  0.34751156  0.25000000  0.29821280  1
  O  O10  1  0.89569880  0.25000000  0.26346023  1
  O  O11  1  0.68649781  0.75000000  0.99837934  1
  O  O12  1  0.11455273  0.75000000  0.48892555  1
  O  O13  1  0.36989721  0.25000000  0.75908550  1
  O  O14  1  0.87706622  0.25000000  0.78346115  1
  O  O15  1  0.59575311  0.75000000  0.52821535  1
  O  O16  1  0.08625187  0.75000000  0.97710546  1
