# generated using pymatgen
data_Pb7(BrF6)2
_symmetry_space_group_name_H-M   'P 1'
_cell_length_a   10.33931960
_cell_length_b   10.33899947
_cell_length_c   4.00567685
_cell_angle_alpha   89.99999708
_cell_angle_beta   89.99999918
_cell_angle_gamma   120.00130934
_symmetry_Int_Tables_number   1
_chemical_formula_structural   Pb7(BrF6)2
_chemical_formula_sum   'Pb7 Br2 F12'
_cell_volume   370.82694682
_cell_formula_units_Z   1
loop_
 _symmetry_equiv_pos_site_id
 _symmetry_equiv_pos_as_xyz
  1  'x, y, z'
loop_
 _atom_site_type_symbol
 _atom_site_label
 _atom_site_symmetry_multiplicity
 _atom_site_fract_x
 _atom_site_fract_y
 _atom_site_fract_z
 _atom_site_occupancy
  Pb  Pb0  1  0.58998036  0.69082146  0.00000001  1
  Pb  Pb1  1  0.71290986  0.10637418  0.50000014  1
  Pb  Pb2  1  0.89361696  0.60654496  0.49999992  1
  Pb  Pb3  1  0.39347608  0.28708631  0.50000005  1
  Pb  Pb4  1  0.10085441  0.41004519  0.00000016  1
  Pb  Pb5  1  0.30917504  0.89913753  -0.00000015  1
  Pb  Pb6  1  0.00002180  0.00004366  -0.00000009  1
  Br  Br7  1  0.66664770  0.33333415  0.00000013  1
  Br  Br8  1  0.33333596  0.66664946  0.50000020  1
  F  F9  1  0.42587397  0.03985364  0.49999976  1
  F  F10  1  0.61397894  0.57411945  0.50000016  1
  F  F11  1  0.96014333  0.38601168  0.49999984  1
  F  F12  1  0.12609434  0.20576700  0.50000031  1
  F  F13  1  0.07967484  0.87389864  0.49999972  1
  F  F14  1  0.79422396  0.92032844  0.50000008  1
  F  F15  1  0.56730095  0.95009300  -0.00000010  1
  F  F16  1  0.04990494  0.61719792  0.00000011  1
  F  F17  1  0.38278946  0.43268925  -0.00000010  1
  F  F18  1  0.27609241  0.11589539  0.00000025  1
  F  F19  1  0.83980659  0.72391305  -0.00000025  1
  F  F20  1  0.88410009  0.16019363  -0.00000016  1
