# generated using pymatgen
data_Na6Sc4Si5Sn4S7O48
_symmetry_space_group_name_H-M   'P 1'
_cell_length_a   17.87709377
_cell_length_b   8.91733804
_cell_length_c   23.06800849
_cell_angle_alpha   89.99914177
_cell_angle_beta   89.97164498
_cell_angle_gamma   119.98766296
_symmetry_Int_Tables_number   1
_chemical_formula_structural   Na6Sc4Si5Sn4S7O48
_chemical_formula_sum   'Na18 Sc12 Si15 Sn12 S21 O144'
_cell_volume   3185.12723954
_cell_formula_units_Z   3
loop_
 _symmetry_equiv_pos_site_id
 _symmetry_equiv_pos_as_xyz
  1  'x, y, z'
loop_
 _atom_site_type_symbol
 _atom_site_label
 _atom_site_symmetry_multiplicity
 _atom_site_fract_x
 _atom_site_fract_y
 _atom_site_fract_z
 _atom_site_occupancy
  Na  Na0  1  0.99975872  0.62905340  0.25430370  1
  Na  Na1  1  0.49755414  0.62953465  0.25125226  1
  Na  Na2  1  0.99756839  0.36830994  0.75083594  1
  Na  Na3  1  0.50148198  0.36276921  0.75286657  1
  Na  Na4  1  0.66392123  0.30463889  0.91766344  1
  Na  Na5  1  0.16564724  0.02253149  0.42690117  1
  Na  Na6  1  0.99947395  0.99456160  0.50619600  1
  Na  Na7  1  0.50637080  0.99946604  0.50353442  1
  Na  Na8  1  0.00480453  0.01072598  0.99848010  1
  Na  Na9  1  0.50095986  0.00939806  0.99977379  1
  Na  Na10  1  0.32948378  0.32303687  0.83797952  1
  Na  Na11  1  0.83347550  0.33444294  0.82261542  1
  Na  Na12  1  0.34309359  0.34620666  0.32799037  1
  Na  Na13  1  0.82534267  0.33065365  0.34032960  1
  Na  Na14  1  0.18263567  0.66200484  0.16478797  1
  Na  Na15  1  0.66991435  0.65279786  0.16247648  1
  Na  Na16  1  0.17130235  0.68974628  0.66563422  1
  Na  Na17  1  0.68073366  0.69011969  0.67140692  1
  Sc  Sc18  1  0.99693018  0.98944074  0.35701203  1
  Sc  Sc19  1  0.50204324  0.01205070  0.85375281  1
  Sc  Sc20  1  0.32470923  0.33306380  0.67936860  1
  Sc  Sc21  1  0.82370440  0.31163242  0.69165621  1
  Sc  Sc22  1  0.33082033  0.34723060  0.18744645  1
  Sc  Sc23  1  0.82273145  0.31494277  0.17794419  1
  Sc  Sc24  1  0.82953524  0.31857123  0.98688420  1
  Sc  Sc25  1  0.33165217  0.34533007  0.48973467  1
  Sc  Sc26  1  0.17033784  0.66579295  0.31453193  1
  Sc  Sc27  1  0.66563555  0.64593683  0.31441157  1
  Sc  Sc28  1  0.16745701  0.68683922  0.81407997  1
  Sc  Sc29  1  0.66807392  0.66146490  0.81057629  1
  Si  Si30  1  0.35606527  0.71821617  0.25062586  1
  Si  Si31  1  0.49858634  0.29662121  0.24921650  1
  Si  Si32  1  0.64330440  0.28833989  0.75046289  1
  Si  Si33  1  0.00091807  0.70133762  0.74888359  1
  Si  Si34  1  0.85727728  0.99555397  0.75082591  1
  Si  Si35  1  0.18151904  0.04012788  0.58228102  1
  Si  Si36  1  0.68968737  0.03783825  0.58133258  1
  Si  Si37  1  0.33318317  0.63505434  0.58381462  1
  Si  Si38  1  0.83065698  0.03209371  0.08263063  1
  Si  Si39  1  0.19007489  0.34164773  0.08222023  1
  Si  Si40  1  0.68135415  0.32587929  0.08196688  1
  Si  Si41  1  0.51941774  0.37952569  0.91638085  1
  Si  Si42  1  0.16286804  0.95922002  0.91795637  1
  Si  Si43  1  0.66402145  0.36730463  0.41781122  1
  Si  Si44  1  0.02044693  0.65753176  0.41507473  1
  Sn  Sn45  1  0.50058467  0.01378801  0.35056806  1
  Sn  Sn46  1  0.00050137  0.98552216  0.84993468  1
  Sn  Sn47  1  0.00174859  0.98795536  0.65038166  1
  Sn  Sn48  1  0.50689782  0.99849865  0.64445676  1
  Sn  Sn49  1  0.00196110  0.01427022  0.14197701  1
  Sn  Sn50  1  0.50098113  0.01451500  0.14902898  1
  Sn  Sn51  1  0.32812670  0.32289634  0.97911671  1
  Sn  Sn52  1  0.82908643  0.33560219  0.48080001  1
  Sn  Sn53  1  0.16497475  0.66494250  0.01586739  1
  Sn  Sn54  1  0.66688589  0.65791704  0.02109828  1
  Sn  Sn55  1  0.16615661  0.67682520  0.52344503  1
  Sn  Sn56  1  0.66393852  0.66179359  0.51786421  1
  S  S57  1  0.14233364  0.99916653  0.25019154  1
  S  S58  1  0.64870851  0.00263811  0.25142781  1
  S  S59  1  0.85730050  0.71329944  0.24849103  1
  S  S60  1  0.99918460  0.29098175  0.25109990  1
  S  S61  1  0.14893338  0.29497729  0.75149238  1
  S  S62  1  0.49749434  0.70450237  0.75102063  1
  S  S63  1  0.35555775  -0.00004225  0.74821263  1
  S  S64  1  0.48066926  0.33413323  0.58434933  1
  S  S65  1  0.97754508  0.32872845  0.58283209  1
  S  S66  1  0.83336249  0.62753098  0.58296701  1
  S  S67  1  0.47818046  0.62811435  0.08323909  1
  S  S68  1  0.98174762  0.62731822  0.08576617  1
  S  S69  1  0.33226185  0.03871221  0.08343105  1
  S  S70  1  0.31294519  0.66713241  0.91614801  1
  S  S71  1  0.81495335  0.66911108  0.91759355  1
  S  S72  1  0.01865919  0.36972537  0.91523424  1
  S  S73  1  0.66681824  0.95566112  0.91702889  1
  S  S74  1  0.31443508  0.96037222  0.41701083  1
  S  S75  1  0.81205952  0.95835906  0.41577317  1
  S  S76  1  0.16754205  0.37499578  0.41657584  1
  S  S77  1  0.51840626  0.66740961  0.41481869  1
  O  O78  1  0.10201680  0.02264170  0.30312398  1
  O  O79  1  0.60931342  0.03043545  0.30421910  1
  O  O80  1  0.42179391  0.79876550  0.30739653  1
  O  O81  1  0.91200452  0.79866541  0.30030664  1
  O  O82  1  0.48107971  0.18144335  0.30796189  1
  O  O83  1  0.98921731  0.18448311  0.30223346  1
  O  O84  1  0.10958447  0.18785870  0.80419670  1
  O  O85  1  0.59910335  0.17549937  0.80976151  1
  O  O86  1  0.48410540  0.78646251  0.80219089  1
  O  O87  1  0.98310751  0.78088034  0.80780722  1
  O  O88  1  0.40864593  0.02290852  0.80045456  1
  O  O89  1  0.92390891  0.04654499  0.80749135  1
  O  O90  1  0.39416942  0.97428092  0.69514124  1
  O  O91  1  0.90158693  0.96992693  0.69118589  1
  O  O92  1  0.09374426  0.21937424  0.69899174  1
  O  O93  1  0.57466208  0.19876378  0.69529514  1
  O  O94  1  0.02677830  0.82827942  0.69233363  1
  O  O95  1  0.50831448  0.80475676  0.69691501  1
  O  O96  1  0.40103154  0.83017262  0.19138038  1
  O  O97  1  0.89967956  0.81856270  0.19562239  1
  O  O98  1  0.01235839  0.21257729  0.19740951  1
  O  O99  1  0.52367912  0.22152139  0.19260608  1
  O  O100  1  0.08372576  0.96493092  0.19880879  1
  O  O101  1  0.59329915  0.96794397  0.19919829  1
  O  O102  1  0.44190377  0.35722731  0.63764443  1
  O  O103  1  0.94103603  0.35836635  0.63500341  1
  O  O104  1  0.24211114  0.13244778  0.63804735  1
  O  O105  1  0.74709440  0.12075936  0.63782017  1
  O  O106  1  0.31906208  0.51709894  0.64062519  1
  O  O107  1  0.82445405  0.52592839  0.63391723  1
  O  O108  1  0.44119313  0.52489030  0.13661405  1
  O  O109  1  0.94310429  0.52749350  0.13971046  1
  O  O110  1  0.32269531  0.12126573  0.13535333  1
  O  O111  1  0.81890397  0.11919967  0.14139895  1
  O  O112  1  0.24555368  0.37114589  0.14025881  1
  O  O113  1  0.74113029  0.35486576  0.13910502  1
  O  O114  1  0.23210494  0.30942550  0.02443275  1
  O  O115  1  0.72555391  0.30537787  0.02245769  1
  O  O116  1  0.42467562  0.54466009  0.03119894  1
  O  O117  1  0.92885862  0.54628897  0.03417036  1
  O  O118  1  0.34652064  0.14255422  0.02986985  1
  O  O119  1  0.85076054  0.15577422  0.02640775  1
  O  O120  1  0.22373462  0.14481961  0.52109580  1
  O  O121  1  0.73033956  0.15145362  0.52173896  1
  O  O122  1  0.35220515  0.55230458  0.52609082  1
  O  O123  1  0.84855197  0.55530063  0.52820921  1
  O  O124  1  0.42870502  0.31594536  0.53214830  1
  O  O125  1  0.92561790  0.30657651  0.52927490  1
  O  O126  1  0.27519113  0.69555456  0.97065813  1
  O  O127  1  0.77700862  0.69786257  0.97119468  1
  O  O128  1  0.07273440  0.44828051  0.96915222  1
  O  O129  1  0.58575675  0.46484674  0.97222279  1
  O  O130  1  0.14731446  0.84079431  0.97724446  1
  O  O131  1  0.65670924  0.85536299  0.97095996  1
  O  O132  1  0.27494713  0.85469636  0.46980712  1
  O  O133  1  0.77459512  0.85352741  0.46912894  1
  O  O134  1  0.15423287  0.45229910  0.46909798  1
  O  O135  1  0.64850556  0.45695969  0.47579603  1
  O  O136  1  0.08872583  0.70832590  0.46924817  1
  O  O137  1  0.57235798  0.69511716  0.46771944  1
  O  O138  1  0.06145760  0.63553122  0.35444286  1
  O  O139  1  0.56153415  0.65177966  0.36213554  1
  O  O140  1  0.25919154  0.87625357  0.36543574  1
  O  O141  1  0.75906310  0.87764071  0.36427919  1
  O  O142  1  0.17915056  0.48020730  0.36431749  1
  O  O143  1  0.67860970  0.48633461  0.36095788  1
  O  O144  1  0.06261824  0.47292374  0.86332263  1
  O  O145  1  0.56063763  0.48747601  0.85734990  1
  O  O146  1  0.17735823  0.86797799  0.86216702  1
  O  O147  1  0.67834618  0.87382903  0.86580967  1
  O  O148  1  0.25836603  0.64003203  0.86552759  1
  O  O149  1  0.76014804  0.64195583  0.86662204  1
  O  O150  1  0.01393843  0.83769508  0.40979954  1
  O  O151  1  0.50908101  0.82411881  0.41161730  1
  O  O152  1  0.40010238  0.97372472  0.41239235  1
  O  O153  1  0.89980418  0.97767466  0.41007266  1
  O  O154  1  0.08945724  0.19811289  0.40993325  1
  O  O155  1  0.57735814  0.17191887  0.41325338  1
  O  O156  1  0.00918077  0.19462462  0.91232695  1
  O  O157  1  0.51109323  0.18606991  0.91374422  1
  O  O158  1  0.07676586  0.98248127  0.91377932  1
  O  O159  1  0.58808679  0.97354488  0.91354188  1
  O  O160  1  0.39947022  0.82020468  0.91089098  1
  O  O161  1  0.90128249  0.82689236  0.91329619  1
  O  O162  1  0.48874199  0.17715542  0.58677995  1
  O  O163  1  0.98649943  0.17193308  0.58639977  1
  O  O164  1  0.08603279  0.02985645  0.58614722  1
  O  O165  1  0.59294907  0.01792651  0.58484257  1
  O  O166  1  0.41631865  0.83192004  0.59042570  1
  O  O167  1  0.90964271  0.80678216  0.58526706  1
  O  O168  1  0.48623961  0.80179994  0.08810929  1
  O  O169  1  0.99193908  0.80413497  0.09078593  1
  O  O170  1  0.40870554  0.01330987  0.08606338  1
  O  O171  1  0.91508356  0.00213255  0.08772794  1
  O  O172  1  0.09399153  0.16351286  0.08720307  1
  O  O173  1  0.58601680  0.14355294  0.08623055  1
  O  O174  1  0.35038267  0.16172001  0.74420216  1
  O  O175  1  0.85328733  0.17279066  0.74620299  1
  O  O176  1  0.23478611  0.31014368  0.74581734  1
  O  O177  1  0.73728715  0.30903327  0.74565804  1
  O  O178  1  0.42218038  0.52526187  0.74552434  1
  O  O179  1  0.91792720  0.51163696  0.74145195  1
  O  O180  1  0.34840557  0.52783079  0.24619364  1
  O  O181  1  0.85215473  0.54193356  0.24448209  1
  O  O182  1  0.41367328  0.31831474  0.24267998  1
  O  O183  1  0.92303396  0.31457260  0.24573000  1
  O  O184  1  0.22777615  0.15028816  0.24343067  1
  O  O185  1  0.73485408  0.16021460  0.24592855  1
  O  O186  1  0.32139100  0.50989286  0.92194612  1
  O  O187  1  0.82291698  0.51190412  0.92333134  1
  O  O188  1  0.42498857  0.36621710  0.92637571  1
  O  O189  1  0.93439698  0.36047143  0.92149207  1
  O  O190  1  0.25006842  0.15021654  0.92104067  1
  O  O191  1  0.74313233  0.13539248  0.92143093  1
  O  O192  1  0.32202807  0.13299126  0.42169192  1
  O  O193  1  0.82333267  0.13410946  0.42112022  1
  O  O194  1  0.24363204  0.34988010  0.42034757  1
  O  O195  1  0.75162209  0.35223578  0.42099678  1
  O  O196  1  0.43330905  0.50808929  0.42021182  1
  O  O197  1  0.92597001  0.48647820  0.42530699  1
  O  O198  1  0.17616775  0.51265569  0.07462955  1
  O  O199  1  0.67059613  0.49816150  0.08084775  1
  O  O200  1  0.06962228  0.64683249  0.08093832  1
  O  O201  1  0.56565116  0.64927529  0.07711253  1
  O  O202  1  0.25253936  0.86432337  0.07783544  1
  O  O203  1  0.74119996  0.84567521  0.07608900  1
  O  O204  1  0.17005997  0.84506614  0.58122160  1
  O  O205  1  0.67731856  0.83931348  0.57398352  1
  O  O206  1  0.24246589  0.63934825  0.57560344  1
  O  O207  1  0.75340406  0.64099294  0.57672142  1
  O  O208  1  0.06611400  0.48319500  0.57570721  1
  O  O209  1  0.56893769  0.49177723  0.57979916  1
  O  O210  1  0.14772669  0.83814303  0.25454245  1
  O  O211  1  0.65709433  0.84747410  0.25825078  1
  O  O212  1  0.26068567  0.69925596  0.25736750  1
  O  O213  1  0.77199825  0.69754992  0.25367360  1
  O  O214  1  0.07774067  0.46644082  0.25451753  1
  O  O215  1  0.58225719  0.49585774  0.25535825  1
  O  O216  1  0.15693307  0.46656154  0.75831810  1
  O  O217  1  0.64645730  0.47521337  0.75319719  1
  O  O218  1  0.08545605  0.67273575  0.75507426  1
  O  O219  1  0.57648302  0.69082707  0.75510605  1
  O  O220  1  0.26879792  0.84606578  0.75404491  1
  O  O221  1  0.76249177  0.82753420  0.75779368  1
