# generated using pymatgen
data_NaHf4P5SO24
_symmetry_space_group_name_H-M   'P 1'
_cell_length_a   8.86581633
_cell_length_b   8.87233378
_cell_length_c   23.04037111
_cell_angle_alpha   90.02727004
_cell_angle_beta   89.93050519
_cell_angle_gamma   120.01654420
_symmetry_Int_Tables_number   1
_chemical_formula_structural   NaHf4P5SO24
_chemical_formula_sum   'Na3 Hf12 P15 S3 O72'
_cell_volume   1569.29269564
_cell_formula_units_Z   3
loop_
 _symmetry_equiv_pos_site_id
 _symmetry_equiv_pos_as_xyz
  1  'x, y, z'
loop_
 _atom_site_type_symbol
 _atom_site_label
 _atom_site_symmetry_multiplicity
 _atom_site_fract_x
 _atom_site_fract_y
 _atom_site_fract_z
 _atom_site_occupancy
  Na  Na0  1  0.66977890  0.33694725  0.83429458  1
  Na  Na1  1  0.66703273  0.33381330  0.33144458  1
  Na  Na2  1  0.33345694  0.66717241  0.16721909  1
  Hf  Hf3  1  0.00061748  0.00007091  0.35498933  1
  Hf  Hf4  1  0.99359321  0.99983852  0.85559207  1
  Hf  Hf5  1  0.00577620  0.99956091  0.64727808  1
  Hf  Hf6  1  0.99937207  0.00005869  0.14419783  1
  Hf  Hf7  1  0.66162960  0.32608377  0.68893896  1
  Hf  Hf8  1  0.66647163  0.33268089  0.18693822  1
  Hf  Hf9  1  0.67261339  0.33930801  0.98261529  1
  Hf  Hf10  1  0.65875129  0.32762051  0.47678640  1
  Hf  Hf11  1  0.33536170  0.66034206  0.02173045  1
  Hf  Hf12  1  0.33335586  0.67244756  0.51852214  1
  Hf  Hf13  1  0.33292066  0.66605725  0.31224807  1
  Hf  Hf14  1  0.33133276  0.65912100  0.80991971  1
  P  P15  1  0.28806988  0.00004477  0.24983239  1
  P  P16  1  0.71221715  0.71168038  0.24995626  1
  P  P17  1  0.99952596  0.28771387  0.24995652  1
  P  P18  1  0.28690394  0.28626037  0.75053106  1
  P  P19  1  -0.00016251  0.71102692  0.75060651  1
  P  P20  1  0.71129748  0.99825797  0.74970670  1
  P  P21  1  0.37707511  0.04316689  0.58324285  1
  P  P22  1  0.95821965  0.62477961  0.08407825  1
  P  P23  1  0.66638797  0.04343862  0.08334552  1
  P  P24  1  0.37707203  0.33111810  0.08363423  1
  P  P25  1  0.62117789  0.66468179  0.91622814  1
  P  P26  1  0.04378068  0.37827857  0.91636468  1
  P  P27  1  0.62348399  0.95448111  0.41621359  1
  P  P28  1  0.33086196  0.37806806  0.41686477  1
  P  P29  1  0.04316999  0.66680040  0.41646983  1
  S  S30  1  0.95618728  0.33310720  0.58323286  1
  S  S31  1  0.66640869  0.62273189  0.58335671  1
  S  S32  1  0.33337177  0.95574247  0.91634008  1
  O  O33  1  0.20545371  0.02894683  0.30443450  1
  O  O34  1  0.82359816  0.79471050  0.30447658  1
  O  O35  1  0.97086884  0.17630962  0.30448928  1
  O  O36  1  0.20564980  0.17226099  0.80423624  1
  O  O37  1  0.96884328  0.79567750  0.80409628  1
  O  O38  1  0.82679722  0.03255226  0.80367862  1
  O  O39  1  0.79708315  0.97295062  0.69531429  1
  O  O40  1  0.17564995  0.20388084  0.69574689  1
  O  O41  1  0.02668456  0.82346658  0.69585798  1
  O  O42  1  0.79461158  0.82378686  0.19577122  1
  O  O43  1  0.02945896  0.20554127  0.19576168  1
  O  O44  1  0.17605223  0.97060748  0.19571800  1
  O  O45  1  0.87512531  0.36266504  0.63525483  1
  O  O46  1  0.49394330  0.13241333  0.63671231  1
  O  O47  1  0.63938748  0.51322179  0.63528509  1
  O  O48  1  0.87265349  0.50682890  0.13718831  1
  O  O49  1  0.63466358  0.12798086  0.13710119  1
  O  O50  1  0.49362941  0.36560542  0.13723350  1
  O  O51  1  0.46278084  0.30564341  0.02894103  1
  O  O52  1  0.84426836  0.53895209  0.02954907  1
  O  O53  1  0.69315765  0.15683038  0.02898596  1
  O  O54  1  0.46575231  0.16106408  0.53016878  1
  O  O55  1  0.69676767  0.54224997  0.53161719  1
  O  O56  1  0.84639998  0.30554361  0.53159963  1
  O  O57  1  0.53717382  0.69538984  0.97015540  1
  O  O58  1  0.15724246  0.46460859  0.97022764  1
  O  O59  1  0.30562885  0.84900249  0.96862814  1
  O  O60  1  0.53733065  0.84305061  0.47102358  1
  O  O61  1  0.30720651  0.46465790  0.47161271  1
  O  O62  1  0.15644303  0.69298425  0.47102156  1
  O  O63  1  0.12710407  0.63358443  0.36311047  1
  O  O64  1  0.50611142  0.87283275  0.36299098  1
  O  O65  1  0.36617409  0.49397397  0.36307587  1
  O  O66  1  0.12924440  0.49386348  0.86251879  1
  O  O67  1  0.36301340  0.87653362  0.86420506  1
  O  O68  1  0.50688121  0.63781309  0.86242423  1
  O  O69  1  0.02399948  0.82640473  0.40810360  1
  O  O70  1  0.80317074  0.97617222  0.40815601  1
  O  O71  1  0.17381425  0.19769040  0.40812174  1
  O  O72  1  0.02615809  0.19884577  0.90689745  1
  O  O73  1  0.17890017  0.97479048  0.90809128  1
  O  O74  1  0.80217248  0.82515836  0.90702916  1
  O  O75  1  0.97326440  0.17769956  0.59196360  1
  O  O76  1  0.19732297  0.02502479  0.59302059  1
  O  O77  1  0.82098079  0.79644527  0.59189134  1
  O  O78  1  0.97568451  0.80266087  0.09228988  1
  O  O79  1  0.82605461  0.02432035  0.09226751  1
  O  O80  1  0.19748363  0.17329044  0.09223724  1
  O  O81  1  0.69284136  0.16307947  0.74191044  1
  O  O82  1  0.47161654  0.31007321  0.74161715  1
  O  O83  1  0.83742112  0.52848263  0.74069672  1
  O  O84  1  0.69028791  0.52784093  0.24289737  1
  O  O85  1  0.83754553  0.30973093  0.24297096  1
  O  O86  1  0.47204281  0.16234496  0.24292782  1
  O  O87  1  0.64098198  0.50170596  0.92355290  1
  O  O88  1  0.85944965  0.35561229  0.92351054  1
  O  O89  1  0.48983393  0.13178002  0.92318498  1
  O  O90  1  0.64283372  0.13755536  0.42534819  1
  O  O91  1  0.49604563  0.35977707  0.42508786  1
  O  O92  1  0.86148174  0.50338685  0.42642849  1
  O  O93  1  0.35840912  0.49537696  0.07597989  1
  O  O94  1  0.13954761  0.64345609  0.07474046  1
  O  O95  1  0.50239069  0.86186898  0.07489176  1
  O  O96  1  0.35805749  0.86328921  0.57402415  1
  O  O97  1  0.51103132  0.64008267  0.57516455  1
  O  O98  1  0.12998647  0.48758682  0.57517591  1
  O  O99  1  0.30960182  0.83783130  0.25749577  1
  O  O100  1  0.52836486  0.69045976  0.25752404  1
  O  O101  1  0.16206682  0.47157774  0.25746977  1
  O  O102  1  0.30893778  0.46758226  0.75833345  1
  O  O103  1  0.16058073  0.69230690  0.75956979  1
  O  O104  1  0.53035615  0.84155408  0.75987200  1
