# generated using pymatgen
data_MgV2Bi2(PbO5)2
_symmetry_space_group_name_H-M   'P 1'
_cell_length_a   6.31734824
_cell_length_b   9.24730632
_cell_length_c   7.94147233
_cell_angle_alpha   126.57515017
_cell_angle_beta   113.43723254
_cell_angle_gamma   89.99999776
_symmetry_Int_Tables_number   1
_chemical_formula_structural   MgV2Bi2(PbO5)2
_chemical_formula_sum   'Mg1 V2 Bi2 Pb2 O10'
_cell_volume   323.66476458
_cell_formula_units_Z   1
loop_
 _symmetry_equiv_pos_site_id
 _symmetry_equiv_pos_as_xyz
  1  'x, y, z'
loop_
 _atom_site_type_symbol
 _atom_site_label
 _atom_site_symmetry_multiplicity
 _atom_site_fract_x
 _atom_site_fract_y
 _atom_site_fract_z
 _atom_site_occupancy
  Mg  Mg0  1  0.50000000  0.00000000  0.00000000  1
  V  V1  1  0.18288800  0.66909400  0.36577800  1
  V  V2  1  0.81711200  0.33090600  0.63422200  1
  Bi  Bi3  1  0.43592800  0.28592400  0.87185700  1
  Bi  Bi4  1  0.56407200  0.71407600  0.12814300  1
  Pb  Pb5  1  0.14224700  0.23382300  0.28449400  1
  Pb  Pb6  1  0.85775300  0.76617700  0.71550600  1
  O  O7  1  0.20609100  0.00000000  0.00000000  1
  O  O8  1  0.79390900  0.00000000  0.00000000  1
  O  O9  1  0.67999600  0.27566300  0.35999200  1
  O  O10  1  0.32000400  0.72433700  0.64000800  1
  O  O11  1  0.57530100  0.23279400  0.64060600  1
  O  O12  1  0.93469500  0.76720600  0.35939400  1
  O  O13  1  0.92511600  0.57256900  0.85023200  1
  O  O14  1  0.07488400  0.42743100  0.14976800  1
  O  O15  1  0.06530500  0.23279400  0.64060600  1
  O  O16  1  0.42469900  0.76720600  0.35939400  1
