# generated using pymatgen
data_La2SiGe2S5O24
_symmetry_space_group_name_H-M   'P 1'
_cell_length_a   9.01661712
_cell_length_b   9.05729227
_cell_length_c   23.31347625
_cell_angle_alpha   89.47377609
_cell_angle_beta   90.08079958
_cell_angle_gamma   120.20828787
_symmetry_Int_Tables_number   1
_chemical_formula_structural   La2SiGe2S5O24
_chemical_formula_sum   'La6 Si3 Ge6 S15 O72'
_cell_volume   1645.29210636
_cell_formula_units_Z   3
loop_
 _symmetry_equiv_pos_site_id
 _symmetry_equiv_pos_as_xyz
  1  'x, y, z'
loop_
 _atom_site_type_symbol
 _atom_site_label
 _atom_site_symmetry_multiplicity
 _atom_site_fract_x
 _atom_site_fract_y
 _atom_site_fract_z
 _atom_site_occupancy
  La  La0  1  0.99156212  0.00179821  0.37058190  1
  La  La1  1  0.00469361  0.00302928  0.86496344  1
  La  La2  1  0.67781055  0.33766963  0.67425611  1
  La  La3  1  0.65513121  0.33431745  0.18422651  1
  La  La4  1  0.65280134  0.33048400  0.99317728  1
  La  La5  1  0.32955306  0.66390583  0.79983069  1
  Si  Si6  1  0.99153156  0.33968960  0.58006302  1
  Si  Si7  1  0.33969952  0.33532878  0.08454646  1
  Si  Si8  1  0.58309737  0.94423939  0.42160686  1
  Ge  Ge9  1  0.00250795  0.00784643  0.63682025  1
  Ge  Ge10  1  0.00337324  0.00832321  0.14764835  1
  Ge  Ge11  1  0.70853487  0.30290383  0.47765814  1
  Ge  Ge12  1  0.33025284  0.65886884  0.02394121  1
  Ge  Ge13  1  0.34044821  0.66268975  0.52038045  1
  Ge  Ge14  1  0.34939426  0.68376734  0.31750393  1
  S  S15  1  0.27364096  0.96493534  0.25261846  1
  S  S16  1  0.69466048  0.72465692  0.25162106  1
  S  S17  1  0.02827975  0.30706772  0.25061039  1
  S  S18  1  0.27278520  0.27220050  0.73931277  1
  S  S19  1  0.99946537  0.73425096  0.73973103  1
  S  S20  1  0.73038560  0.99855560  0.74032100  1
  S  S21  1  0.35089444  0.01866535  0.57810223  1
  S  S22  1  0.67275393  0.65397666  0.57824744  1
  S  S23  1  0.99698998  0.66565309  0.08479628  1
  S  S24  1  0.66584694  0.00186350  0.08460150  1
  S  S25  1  0.60560712  0.66768941  0.92424586  1
  S  S26  1  0.05506690  0.39227888  0.92492620  1
  S  S27  1  0.33608150  0.93545225  0.92541868  1
  S  S28  1  0.36775246  0.41506511  0.41942768  1
  S  S29  1  0.04335476  0.63321282  0.42086620  1
  O  O30  1  0.19564337  0.99423983  0.30268482  1
  O  O31  1  0.80386278  0.80510545  0.30119623  1
  O  O32  1  0.99545059  0.19721049  0.30114767  1
  O  O33  1  0.19219374  0.18276902  0.79367461  1
  O  O34  1  0.99505297  0.81611068  0.79360820  1
  O  O35  1  0.81983686  0.00687471  0.79428011  1
  O  O36  1  0.82137843  0.98918023  0.68812537  1
  O  O37  1  0.16932711  0.18110141  0.68768399  1
  O  O38  1  0.01304113  0.83695109  0.68662095  1
  O  O39  1  0.77092503  0.82986911  0.19743542  1
  O  O40  1  0.05582890  0.22478522  0.19783537  1
  O  O41  1  0.17001558  0.94042931  0.19892762  1
  O  O42  1  0.91889158  0.39275630  0.63352277  1
  O  O43  1  0.45388344  0.08420740  0.63096801  1
  O  O44  1  0.63249104  0.55155983  0.63163394  1
  O  O45  1  0.92203689  0.54674142  0.13356212  1
  O  O46  1  0.62914728  0.07912789  0.13356325  1
  O  O47  1  0.47589443  0.38074065  0.13629908  1
  O  O48  1  0.41009898  0.28279095  0.02894287  1
  O  O49  1  0.88956456  0.59722173  0.03313253  1
  O  O50  1  0.71316053  0.11317088  0.03335397  1
  O  O51  1  0.43581696  0.13925795  0.52919571  1
  O  O52  1  0.70991596  0.57659872  0.52978879  1
  O  O53  1  0.84393445  0.28220186  0.52579567  1
  O  O54  1  0.51190244  0.67615006  0.97589661  1
  O  O55  1  0.15830393  0.48881453  0.97592589  1
  O  O56  1  0.32719475  0.83394886  0.97826905  1
  O  O57  1  0.48831925  0.83123714  0.47785120  1
  O  O58  1  0.32894944  0.48711792  0.47066606  1
  O  O59  1  0.14524089  0.65458371  0.47210957  1
  O  O60  1  0.11136217  0.59879721  0.36745575  1
  O  O61  1  0.46915166  0.86601503  0.36169311  1
  O  O62  1  0.39410319  0.52421946  0.36474365  1
  O  O63  1  0.13553146  0.48135122  0.87051743  1
  O  O64  1  0.34128167  0.85338972  0.87184489  1
  O  O65  1  0.51597591  0.65816465  0.87032512  1
  O  O66  1  0.02041412  0.78082642  0.41497592  1
  O  O67  1  0.77007190  0.96713945  0.41781349  1
  O  O68  1  0.21237019  0.24702236  0.41206407  1
  O  O69  1  0.04770151  0.22567098  0.92651926  1
  O  O70  1  0.17957239  0.94828503  0.92707284  1
  O  O71  1  0.77448360  0.82573331  0.92530747  1
  O  O72  1  0.00346258  0.16635290  0.59081673  1
  O  O73  1  0.17655122  0.00436603  0.58676920  1
  O  O74  1  0.82610965  0.83165962  0.58791761  1
  O  O75  1  0.01216134  0.83577879  0.09770153  1
  O  O76  1  0.81415420  0.97275123  0.09727327  1
  O  O77  1  0.15150507  0.16261708  0.10061375  1
  O  O78  1  0.71085270  0.14956681  0.73767028  1
  O  O79  1  0.44251728  0.28975190  0.73595720  1
  O  O80  1  0.84308369  0.56641349  0.73817116  1
  O  O81  1  0.66722151  0.55227700  0.24446512  1
  O  O82  1  0.88122620  0.33118412  0.24007938  1
  O  O83  1  0.45024058  0.10685469  0.24411587  1
  O  O84  1  0.62585079  0.51732597  0.92796214  1
  O  O85  1  0.88441766  0.37212353  0.92922764  1
  O  O86  1  0.49167147  0.10369182  0.92807891  1
  O  O87  1  0.60690251  0.14005198  0.42861238  1
  O  O88  1  0.52158142  0.40344391  0.42638863  1
  O  O89  1  0.86192855  0.47461788  0.42739902  1
  O  O90  1  0.31297970  0.49996917  0.07132870  1
  O  O91  1  0.17449589  0.69783114  0.07340768  1
  O  O92  1  0.51274203  0.83061858  0.07321052  1
  O  O93  1  0.31821543  0.84298263  0.56825338  1
  O  O94  1  0.51971338  0.67621482  0.56891062  1
  O  O95  1  0.17850148  0.50225624  0.56275237  1
  O  O96  1  0.27789950  0.79788864  0.26029632  1
  O  O97  1  0.52115032  0.71383233  0.25979852  1
  O  O98  1  0.19023582  0.47753018  0.25830985  1
  O  O99  1  0.28411676  0.44078453  0.73898980  1
  O  O100  1  0.15471954  0.71853444  0.73922332  1
  O  O101  1  0.56051157  0.84087371  0.74021730  1
