# generated using pymatgen
data_NaCaHfP(SO6)2
_symmetry_space_group_name_H-M   'P 1'
_cell_length_a   9.08694271
_cell_length_b   9.06882009
_cell_length_c   23.02688160
_cell_angle_alpha   89.70525972
_cell_angle_beta   90.00000000
_cell_angle_gamma   120.06612667
_symmetry_Int_Tables_number   1
_chemical_formula_structural   NaCaHfP(SO6)2
_chemical_formula_sum   'Na6 Ca6 Hf6 P6 S12 O72'
_cell_volume   1642.24100644
_cell_formula_units_Z   6
loop_
 _symmetry_equiv_pos_site_id
 _symmetry_equiv_pos_as_xyz
  1  'x, y, z'
loop_
 _atom_site_type_symbol
 _atom_site_label
 _atom_site_symmetry_multiplicity
 _atom_site_fract_x
 _atom_site_fract_y
 _atom_site_fract_z
 _atom_site_occupancy
  Na  Na0  1  0.96394595  0.97229555  0.50335344  1
  Na  Na1  1  0.00834960  0.97229555  0.00335344  1
  Na  Na2  1  0.64426988  0.29575212  0.83737229  1
  Na  Na3  1  0.65148324  0.29575212  0.33737229  1
  Na  Na4  1  0.31892041  0.68714573  0.17119261  1
  Na  Na5  1  0.36822432  0.68714573  0.67119261  1
  Ca  Ca6  1  0.99138511  0.99551792  0.64534572  1
  Ca  Ca7  1  0.00413281  0.99551792  0.14534572  1
  Ca  Ca8  1  0.66450286  0.33271036  0.97880728  1
  Ca  Ca9  1  0.66820850  0.33271036  0.47880728  1
  Ca  Ca10  1  0.33784834  0.67657288  0.31202231  1
  Ca  Ca11  1  0.33872354  0.67657288  0.81202231  1
  Hf  Hf12  1  0.00552728  0.00007189  0.35183600  1
  Hf  Hf13  1  0.99454461  0.00007189  0.85183600  1
  Hf  Hf14  1  0.66846208  0.33579479  0.68518026  1
  Hf  Hf15  1  0.66733372  0.33579479  0.18518026  1
  Hf  Hf16  1  0.32338828  0.67359001  0.01852976  1
  Hf  Hf17  1  0.35020073  0.67359001  0.51852976  1
  P  P18  1  0.30410638  0.01467832  0.24819200  1
  P  P19  1  0.71057195  0.01467832  0.74819200  1
  P  P20  1  0.65658435  0.62103015  0.58091711  1
  P  P21  1  0.96444680  0.62103015  0.08091711  1
  P  P22  1  0.31792698  0.95909655  0.91443497  1
  P  P23  1  0.64116857  0.95909655  0.41443497  1
  S  S24  1  0.71278582  0.69735632  0.25018928  1
  S  S25  1  0.98586411  0.28629645  0.24888690  1
  S  S26  1  0.30043234  0.28629645  0.74888690  1
  S  S27  1  0.98457051  0.69735632  0.75018928  1
  S  S28  1  0.97301487  0.35292061  0.58300212  1
  S  S29  1  0.37984239  0.03125594  0.58356925  1
  S  S30  1  0.65141455  0.03125594  0.08356925  1
  S  S31  1  0.37990674  0.35292061  0.08300212  1
  S  S32  1  0.63157540  0.68097450  0.91684105  1
  S  S33  1  0.04712106  0.36570581  0.91565503  1
  S  S34  1  0.31858375  0.36570581  0.41565503  1
  S  S35  1  0.04939810  0.68097450  0.41684105  1
  O  O36  1  0.20597848  0.02908847  0.30395658  1
  O  O37  1  0.82135016  0.78930145  0.30268057  1
  O  O38  1  0.96829781  0.17845861  0.30219911  1
  O  O39  1  0.21016080  0.17845861  0.80219911  1
  O  O40  1  0.96795128  0.78930145  0.80268057  1
  O  O41  1  0.82310999  0.02908847  0.80395658  1
  O  O42  1  0.79795192  0.00280918  0.69426834  1
  O  O43  1  0.20665776  0.20726585  0.69639027  1
  O  O44  1  0.01398396  0.79860763  0.69781417  1
  O  O45  1  0.78462367  0.79860763  0.19781417  1
  O  O46  1  0.00060809  0.20726585  0.19639027  1
  O  O47  1  0.20485726  0.00280918  0.19426834  1
  O  O48  1  0.87896264  0.36478909  0.63614721  1
  O  O49  1  0.48911772  0.12162196  0.63608280  1
  O  O50  1  0.63862068  0.50850253  0.63694344  1
  O  O51  1  0.86988285  0.50850253  0.13694344  1
  O  O52  1  0.63250523  0.12162196  0.13608280  1
  O  O53  1  0.48582745  0.36478909  0.13614721  1
  O  O54  1  0.45482409  0.32657963  0.03130809  1
  O  O55  1  0.86745714  0.53533328  0.02676053  1
  O  O56  1  0.66933312  0.12639686  0.03067227  1
  O  O57  1  0.45706473  0.12639686  0.53067227  1
  O  O58  1  0.66787714  0.53533328  0.52676053  1
  O  O59  1  0.87175655  0.32657963  0.53130809  1
  O  O60  1  0.54048107  0.69627688  0.96946184  1
  O  O61  1  0.15318373  0.45526218  0.96905123  1
  O  O62  1  0.30155990  0.84441743  0.97074781  1
  O  O63  1  0.54285653  0.84441743  0.47074781  1
  O  O64  1  0.30207745  0.45526218  0.46905123  1
  O  O65  1  0.15579482  0.69627688  0.46946184  1
  O  O66  1  0.12317306  0.65864773  0.36420381  1
  O  O67  1  0.53740016  0.87492361  0.36129998  1
  O  O68  1  0.33396270  0.46143610  0.36338115  1
  O  O69  1  0.12747240  0.46143610  0.86338115  1
  O  O70  1  0.33752245  0.87492361  0.86129998  1
  O  O71  1  0.53547368  0.65864773  0.86420381  1
  O  O72  1  0.04798485  0.84795283  0.41340307  1
  O  O73  1  0.81567507  0.95995374  0.41168339  1
  O  O74  1  0.15414264  0.19532405  0.41348669  1
  O  O75  1  0.04118141  0.19532405  0.91348669  1
  O  O76  1  0.14427866  0.95995374  0.91168339  1
  O  O77  1  0.79996798  0.84795283  0.91340307  1
  O  O78  1  0.01145443  0.21539257  0.58955735  1
  O  O79  1  0.20777933  0.00086567  0.59057887  1
  O  O80  1  0.80446257  0.80283383  0.58510244  1
  O  O81  1  0.99837126  0.80283383  0.08510244  1
  O  O82  1  0.79308634  0.00086567  0.09057887  1
  O  O83  1  0.20393814  0.21539257  0.08955735  1
  O  O84  1  0.70422709  0.18646386  0.74616382  1
  O  O85  1  0.47102626  0.29305431  0.74667851  1
  O  O86  1  0.81556940  0.53245557  0.74604076  1
  O  O87  1  0.71688718  0.53245557  0.24604076  1
  O  O88  1  0.82202905  0.29305431  0.24667851  1
  O  O89  1  0.48223777  0.18646386  0.24616382  1
  O  O90  1  0.66901211  0.54307126  0.92322687  1
  O  O91  1  0.87387761  0.33446093  0.92119316  1
  O  O92  1  0.46511858  0.14091761  0.92024758  1
  O  O93  1  0.67580004  0.14091761  0.42024758  1
  O  O94  1  0.46058432  0.33446093  0.42119316  1
  O  O95  1  0.87406015  0.54307126  0.42322687  1
  O  O96  1  0.38264260  0.52039226  0.07923718  1
  O  O97  1  0.14411713  0.62823360  0.07890611  1
  O  O98  1  0.48693881  0.86091362  0.08085180  1
  O  O99  1  0.37397381  0.86091362  0.58085180  1
  O  O100  1  0.48411548  0.62823360  0.57890611  1
  O  O101  1  0.13774866  0.52039226  0.57923718  1
  O  O102  1  0.33478823  0.86502013  0.25220308  1
  O  O103  1  0.53735531  0.65525483  0.25762275  1
  O  O104  1  0.12935701  0.45895492  0.25512000  1
  O  O105  1  0.32959691  0.45895492  0.75512000  1
  O  O106  1  0.11789853  0.65525483  0.75762275  1
  O  O107  1  0.53023091  0.86502013  0.75220308  1
