# generated using pymatgen
data_Na5La2Ti2SiP5O24
_symmetry_space_group_name_H-M   'P 1'
_cell_length_a   9.27556256
_cell_length_b   9.31348899
_cell_length_c   23.00405824
_cell_angle_alpha   90.02778733
_cell_angle_beta   89.77631447
_cell_angle_gamma   120.64084183
_symmetry_Int_Tables_number   1
_chemical_formula_structural   Na5La2Ti2SiP5O24
_chemical_formula_sum   'Na15 La6 Ti6 Si3 P15 O72'
_cell_volume   1709.79060335
_cell_formula_units_Z   3
loop_
 _symmetry_equiv_pos_site_id
 _symmetry_equiv_pos_as_xyz
  1  'x, y, z'
loop_
 _atom_site_type_symbol
 _atom_site_label
 _atom_site_symmetry_multiplicity
 _atom_site_fract_x
 _atom_site_fract_y
 _atom_site_fract_z
 _atom_site_occupancy
  Na  Na0  1  0.99732403  0.65185156  0.24736308  1
  Na  Na1  1  0.62492847  0.62839654  0.74433502  1
  Na  Na2  1  0.37031083  0.99528021  0.75223786  1
  Na  Na3  1  0.66878978  0.97161826  0.58691077  1
  Na  Na4  1  0.31054472  0.98166420  0.08370337  1
  Na  Na5  1  0.67821323  0.69768188  0.07896166  1
  Na  Na6  1  0.02636675  0.33226921  0.08349224  1
  Na  Na7  1  0.95884216  0.30091147  0.42316695  1
  Na  Na8  1  0.34627602  0.04054953  0.42401260  1
  Na  Na9  1  0.00763061  0.98597561  0.50670574  1
  Na  Na10  1  0.00319876  0.98928214  0.98943500  1
  Na  Na11  1  0.68658557  0.34430892  0.83074172  1
  Na  Na12  1  0.64386500  0.32930608  0.32554853  1
  Na  Na13  1  0.35029044  0.66814551  0.16478210  1
  Na  Na14  1  0.31093509  0.64057071  0.65948204  1
  La  La15  1  0.99223156  0.99556035  0.35052121  1
  La  La16  1  0.99977919  0.00419989  0.15774737  1
  La  La17  1  0.66657819  0.34002272  0.97548534  1
  La  La18  1  0.66167405  0.34738083  0.50031629  1
  La  La19  1  0.35032690  0.66633566  0.31573816  1
  La  La20  1  0.32028776  0.65595351  0.80785366  1
  Ti  Ti21  1  0.98545499  0.00205189  0.85066305  1
  Ti  Ti22  1  0.00540597  0.00140833  0.65034292  1
  Ti  Ti23  1  0.67040353  0.31598910  0.68013090  1
  Ti  Ti24  1  0.67213763  0.33102282  0.17898348  1
  Ti  Ti25  1  0.31961618  0.66581646  0.00916768  1
  Ti  Ti26  1  0.33467989  0.66976830  0.52286103  1
  Si  Si27  1  0.72944132  0.02254869  0.74618402  1
  Si  Si28  1  0.35298684  0.01819198  0.58432505  1
  Si  Si29  1  0.97497068  0.63032347  0.08241411  1
  P  P30  1  0.32912143  0.01516643  0.24729808  1
  P  P31  1  0.68644682  0.66254917  0.23928732  1
  P  P32  1  0.98084335  0.31480802  0.24651331  1
  P  P33  1  0.29156588  0.26796227  0.74794102  1
  P  P34  1  0.97730983  0.71626114  0.74885016  1
  P  P35  1  0.97459033  0.33049609  0.58524220  1
  P  P36  1  0.66681722  0.64513501  0.59108978  1
  P  P37  1  0.65114003  0.02982642  0.08245722  1
  P  P38  1  0.38065830  0.35054884  0.08436375  1
  P  P39  1  0.63572348  0.69414402  0.91280712  1
  P  P40  1  0.04877350  0.35119369  0.91601853  1
  P  P41  1  0.30239420  0.94531126  0.91210294  1
  P  P42  1  0.63165913  0.96396564  0.42828600  1
  P  P43  1  0.32613220  0.37020915  0.42681630  1
  P  P44  1  0.05118463  0.67130425  0.42290234  1
  O  O45  1  0.24171116  0.03115523  0.30350741  1
  O  O46  1  0.80425319  0.76454703  0.29120709  1
  O  O47  1  0.97065050  0.21152156  0.30142247  1
  O  O48  1  0.19891468  0.16663088  0.80355798  1
  O  O49  1  0.96106653  0.80686459  0.80418077  1
  O  O50  1  0.84139206  0.03810730  0.80609102  1
  O  O51  1  0.83434753  0.01223256  0.69220794  1
  O  O52  1  0.18474022  0.17271725  0.69478155  1
  O  O53  1  0.98302421  0.82086672  0.69586454  1
  O  O54  1  0.76141396  0.75370642  0.18178293  1
  O  O55  1  0.00461673  0.24103421  0.19026794  1
  O  O56  1  0.21707955  0.98414502  0.19378927  1
  O  O57  1  0.86164624  0.35468664  0.63321723  1
  O  O58  1  0.50909729  0.14182249  0.63429727  1
  O  O59  1  0.64475747  0.51778691  0.63987289  1
  O  O60  1  0.87313020  0.49856164  0.13927916  1
  O  O61  1  0.63648631  0.13186444  0.13534447  1
  O  O62  1  0.50002280  0.35960876  0.13535977  1
  O  O63  1  0.43617191  0.30051192  0.02949105  1
  O  O64  1  0.84664044  0.55906793  0.02951469  1
  O  O65  1  0.69098868  0.13718242  0.02864280  1
  O  O66  1  0.40995505  0.11410137  0.52303254  1
  O  O67  1  0.71105503  0.59916224  0.53266829  1
  O  O68  1  0.87310106  0.28276235  0.52851368  1
  O  O69  1  0.53137874  0.70061945  0.96698066  1
  O  O70  1  0.16163539  0.45834795  0.97070971  1
  O  O71  1  0.29777327  0.82315325  0.96536195  1
  O  O72  1  0.52701324  0.85246329  0.48192735  1
  O  O73  1  0.33478902  0.48836524  0.47777746  1
  O  O74  1  0.17271207  0.67392965  0.47284744  1
  O  O75  1  0.12196249  0.66427677  0.36320559  1
  O  O76  1  0.53820525  0.88508485  0.37179174  1
  O  O77  1  0.32874323  0.44914617  0.36823528  1
  O  O78  1  0.12378653  0.45134545  0.86110826  1
  O  O79  1  0.32410028  0.87526144  0.85502154  1
  O  O80  1  0.54508700  0.67590016  0.85553669  1
  O  O81  1  0.04994201  0.83664791  0.42784609  1
  O  O82  1  0.80662132  0.98124247  0.42882582  1
  O  O83  1  0.15657464  0.20091012  0.43116754  1
  O  O84  1  0.05107033  0.18501983  0.91294565  1
  O  O85  1  0.13558270  0.94316335  0.91378184  1
  O  O86  1  0.80974050  0.86248805  0.91033096  1
  O  O87  1  0.99783820  0.18171145  0.59952796  1
  O  O88  1  0.16998798  0.99052000  0.60144017  1
  O  O89  1  0.81325507  0.82778938  0.60199649  1
  O  O90  1  0.02570019  0.82402350  0.09110637  1
  O  O91  1  0.79540266  0.99395578  0.09104949  1
  O  O92  1  0.19524286  0.21201501  0.09385710  1
  O  O93  1  0.70477940  0.18950961  0.73743838  1
  O  O94  1  0.46714903  0.27972454  0.74338651  1
  O  O95  1  0.82040309  0.53792524  0.74518444  1
  O  O96  1  0.68861606  0.49701090  0.23946013  1
  O  O97  1  0.81384776  0.31612241  0.24293646  1
  O  O98  1  0.49821365  0.17790025  0.23917806  1
  O  O99  1  0.66621018  0.54777856  0.91718548  1
  O  O100  1  0.87034411  0.31755118  0.92137028  1
  O  O101  1  0.45477062  0.11853391  0.92035272  1
  O  O102  1  0.65048459  0.13879925  0.43094587  1
  O  O103  1  0.47373831  0.33812279  0.42715753  1
  O  O104  1  0.87951265  0.51167667  0.42934403  1
  O  O105  1  0.38841997  0.52159750  0.07937695  1
  O  O106  1  0.15280228  0.62594233  0.06960128  1
  O  O107  1  0.48095606  0.86057831  0.07787748  1
  O  O108  1  0.35307590  0.83929406  0.58048578  1
  O  O109  1  0.50419867  0.65693697  0.58613746  1
  O  O110  1  0.14457652  0.49546671  0.58043194  1
  O  O111  1  0.34929707  0.86077627  0.24992692  1
  O  O112  1  0.50784993  0.62975074  0.24397372  1
  O  O113  1  0.12574420  0.49848345  0.24959917  1
  O  O114  1  0.32511461  0.44816442  0.74544260  1
  O  O115  1  0.14158542  0.71290608  0.74680048  1
  O  O116  1  0.54149965  0.85891824  0.74520937  1
