# generated using pymatgen
data_MgCr4(PbO4)4
_symmetry_space_group_name_H-M   'P 1'
_cell_length_a   6.98255132
_cell_length_b   7.37112148
_cell_length_c   7.94330360
_cell_angle_alpha   90.22149189
_cell_angle_beta   89.54429907
_cell_angle_gamma   103.46230649
_symmetry_Int_Tables_number   1
_chemical_formula_structural   MgCr4(PbO4)4
_chemical_formula_sum   'Mg1 Cr4 Pb4 O16'
_cell_volume   397.58886126
_cell_formula_units_Z   1
loop_
 _symmetry_equiv_pos_site_id
 _symmetry_equiv_pos_as_xyz
  1  'x, y, z'
loop_
 _atom_site_type_symbol
 _atom_site_label
 _atom_site_symmetry_multiplicity
 _atom_site_fract_x
 _atom_site_fract_y
 _atom_site_fract_z
 _atom_site_occupancy
  Mg  Mg0  1  0.50003000  0.00000600  0.49998800  1
  Cr  Cr1  1  0.38162900  0.67491900  0.32646600  1
  Cr  Cr2  1  0.87805800  0.20013000  0.17038000  1
  Cr  Cr3  1  0.12191800  0.79987200  0.82960800  1
  Cr  Cr4  1  0.61839300  0.32504200  0.67355600  1
  Pb  Pb5  1  0.90879800  0.71296300  0.38398600  1
  Pb  Pb6  1  0.60381000  0.77540200  0.89547300  1
  Pb  Pb7  1  0.09120200  0.28706400  0.61601300  1
  Pb  Pb8  1  0.39617700  0.22463600  0.10449400  1
  O  O9  1  0.31109300  0.88716500  0.31438600  1
  O  O10  1  0.20936100  0.61427000  0.79000200  1
  O  O11  1  0.68894200  0.11280100  0.68564000  1
  O  O12  1  0.79063500  0.38573200  0.20998400  1
  O  O13  1  0.17802900  0.52253100  0.40300500  1
  O  O14  1  0.31608400  0.96225100  0.90125200  1
  O  O15  1  0.82197600  0.47745100  0.59700900  1
  O  O16  1  0.68388700  0.03777400  0.09871900  1
  O  O17  1  0.06019100  0.24365400  0.02834000  1
  O  O18  1  0.42938500  0.24897200  0.52363600  1
  O  O19  1  0.93979400  0.75634700  0.97166100  1
  O  O20  1  0.57065300  0.75101900  0.47639100  1
  O  O21  1  0.95685900  0.12166600  0.34941200  1
  O  O22  1  0.51787500  0.38609900  0.85498600  1
  O  O23  1  0.04307900  0.87831100  0.65058800  1
  O  O24  1  0.48214000  0.61392400  0.14502400  1
