# generated using pymatgen
data_Na2Sc2Ta2Si3(SO8)3
_symmetry_space_group_name_H-M   'P 1'
_cell_length_a   8.86420855
_cell_length_b   8.87609527
_cell_length_c   23.17048190
_cell_angle_alpha   90.52684173
_cell_angle_beta   90.24255701
_cell_angle_gamma   119.73599857
_symmetry_Int_Tables_number   1
_chemical_formula_structural   Na2Sc2Ta2Si3(SO8)3
_chemical_formula_sum   'Na6 Sc6 Ta6 Si9 S9 O72'
_cell_volume   1582.83694662
_cell_formula_units_Z   3
loop_
 _symmetry_equiv_pos_site_id
 _symmetry_equiv_pos_as_xyz
  1  'x, y, z'
loop_
 _atom_site_type_symbol
 _atom_site_label
 _atom_site_symmetry_multiplicity
 _atom_site_fract_x
 _atom_site_fract_y
 _atom_site_fract_z
 _atom_site_occupancy
  Na  Na0  1  0.98450502  0.98099993  0.49013850  1
  Na  Na1  1  0.00952468  0.99107461  0.99734205  1
  Na  Na2  1  0.65101292  0.31507131  0.82384606  1
  Na  Na3  1  0.66810159  0.31682890  0.32783975  1
  Na  Na4  1  0.31428537  0.66007986  0.16913309  1
  Na  Na5  1  0.34766385  0.66230058  0.65874916  1
  Sc  Sc6  1  0.00045078  0.00517468  0.35440153  1
  Sc  Sc7  1  0.01400528  0.01273333  0.85091722  1
  Sc  Sc8  1  0.65063407  0.33298487  0.68750315  1
  Sc  Sc9  1  0.68504319  0.33556146  0.19008886  1
  Sc  Sc10  1  0.31914340  0.67609404  0.02060299  1
  Sc  Sc11  1  0.34993665  0.68159973  0.51752135  1
  Ta  Ta12  1  0.98901801  0.00454105  0.64516337  1
  Ta  Ta13  1  0.00647607  0.99328812  0.15136788  1
  Ta  Ta14  1  0.66608385  0.33586373  0.97981489  1
  Ta  Ta15  1  0.67629694  0.34609487  0.47480553  1
  Ta  Ta16  1  0.31788215  0.67592188  0.31285948  1
  Ta  Ta17  1  0.34706290  0.68310740  0.80778407  1
  Si  Si18  1  0.29812096  0.00955358  0.25359225  1
  Si  Si19  1  0.00776171  0.29110935  0.25216940  1
  Si  Si20  1  0.28876463  0.28941432  0.75099253  1
  Si  Si21  1  0.72028750  0.01241266  0.75233606  1
  Si  Si22  1  0.66298396  0.62154555  0.58502995  1
  Si  Si23  1  0.95565720  0.62775118  0.08517272  1
  Si  Si24  1  0.32865891  0.95782920  0.91762520  1
  Si  Si25  1  0.62596237  0.95628092  0.41748639  1
  Si  Si26  1  0.04871271  0.67631514  0.42020919  1
  S  S27  1  0.70844013  0.71218864  0.25018398  1
  S  S28  1  0.00207212  0.71296558  0.74994831  1
  S  S29  1  0.95349404  0.33387108  0.58370586  1
  S  S30  1  0.37355859  0.04464780  0.58358513  1
  S  S31  1  0.67035868  0.04611320  0.08237185  1
  S  S32  1  0.37673367  0.33146196  0.08314030  1
  S  S33  1  0.61860853  0.66364994  0.91771617  1
  S  S34  1  0.04176279  0.37884690  0.91762780  1
  S  S35  1  0.33587658  0.38076664  0.41734201  1
  O  O36  1  0.20091034  0.02374842  0.30802444  1
  O  O37  1  0.81336441  0.78896383  0.30117083  1
  O  O38  1  0.97371992  0.17222906  0.30626320  1
  O  O39  1  0.20493476  0.17576603  0.80725033  1
  O  O40  1  0.97795902  0.78907283  0.80262401  1
  O  O41  1  0.82032282  0.01675277  0.80972463  1
  O  O42  1  0.80555831  0.97017101  0.69354660  1
  O  O43  1  0.16448617  0.19138267  0.69297919  1
  O  O44  1  0.03406625  0.82275301  0.69825166  1
  O  O45  1  0.79767498  0.82442309  0.19646250  1
  O  O46  1  0.02461647  0.18787916  0.19171349  1
  O  O47  1  0.16647621  0.96557636  0.19329696  1
  O  O48  1  0.87205049  0.35015272  0.63579141  1
  O  O49  1  0.47854980  0.12264215  0.63598321  1
  O  O50  1  0.65262434  0.51220116  0.64066222  1
  O  O51  1  0.85763399  0.50925159  0.13822988  1
  O  O52  1  0.63951875  0.12154558  0.13356997  1
  O  O53  1  0.47917156  0.35280510  0.13420582  1
  O  O54  1  0.46361402  0.30396411  0.02947830  1
  O  O55  1  0.83062473  0.52318248  0.02611173  1
  O  O56  1  0.68803510  0.15737972  0.02991432  1
  O  O57  1  0.45538655  0.15066317  0.53205902  1
  O  O58  1  0.68893326  0.52078690  0.52737740  1
  O  O59  1  0.84310989  0.30135088  0.53076146  1
  O  O60  1  0.53597895  0.68118532  0.96932957  1
  O  O61  1  0.14627669  0.45824709  0.96977345  1
  O  O62  1  0.31583259  0.84524735  0.97294840  1
  O  O63  1  0.53957551  0.84330519  0.47366838  1
  O  O64  1  0.31541713  0.45995129  0.46982763  1
  O  O65  1  0.15425042  0.68261314  0.47637810  1
  O  O66  1  0.13206666  0.63459349  0.36010427  1
  O  O67  1  0.49730817  0.85503208  0.35982082  1
  O  O68  1  0.36711013  0.48685940  0.36503970  1
  O  O69  1  0.11803251  0.48414395  0.86592036  1
  O  O70  1  0.35755767  0.85684736  0.86054545  1
  O  O71  1  0.50853990  0.63308826  0.86437422  1
  O  O72  1  0.01602995  0.83442215  0.41175302  1
  O  O73  1  0.81983272  0.99271674  0.41133956  1
  O  O74  1  0.18846570  0.20548918  0.41191453  1
  O  O75  1  0.01175973  0.20123643  0.91260208  1
  O  O76  1  0.16122741  0.98135163  0.91307234  1
  O  O77  1  0.79320313  0.81062563  0.91078015  1
  O  O78  1  0.96747494  0.16716200  0.58861147  1
  O  O79  1  0.19782363  0.03173058  0.59058438  1
  O  O80  1  0.84833061  0.81617311  0.59232197  1
  O  O81  1  0.96762710  0.82141615  0.08894491  1
  O  O82  1  0.83323397  0.03760093  0.08567509  1
  O  O83  1  0.20104761  0.16984529  0.08622793  1
  O  O84  1  0.69115333  0.17262061  0.74249300  1
  O  O85  1  0.48422234  0.32593036  0.74558125  1
  O  O86  1  0.85741035  0.53675687  0.74243389  1
  O  O87  1  0.68663041  0.53933894  0.24051026  1
  O  O88  1  0.84620477  0.32517948  0.24428880  1
  O  O89  1  0.48305673  0.17245087  0.24008978  1
  O  O90  1  0.63187490  0.49787001  0.92361641  1
  O  O91  1  0.86231729  0.36364037  0.92557804  1
  O  O92  1  0.51048332  0.15171609  0.92705844  1
  O  O93  1  0.62931382  0.14580281  0.42817031  1
  O  O94  1  0.49866472  0.36274761  0.42387578  1
  O  O95  1  0.85280799  0.49055380  0.42512605  1
  O  O96  1  0.35842049  0.48421461  0.07264496  1
  O  O97  1  0.14752606  0.64983902  0.07842423  1
  O  O98  1  0.52217394  0.86986391  0.07369266  1
  O  O99  1  0.34701625  0.86769800  0.57877610  1
  O  O100  1  0.49727307  0.64852384  0.58027012  1
  O  O101  1  0.12845999  0.47961824  0.57728753  1
  O  O102  1  0.30887548  0.82588247  0.25590709  1
  O  O103  1  0.53666235  0.70180728  0.25255175  1
  O  O104  1  0.19205080  0.47999730  0.25730344  1
  O  O105  1  0.29650994  0.48078165  0.76211557  1
  O  O106  1  0.16635207  0.69815988  0.75706515  1
  O  O107  1  0.52225284  0.82743447  0.75801502  1
