# generated using pymatgen
data_Na5Ca3GeP3(SO8)3
_symmetry_space_group_name_H-M   'P 1'
_cell_length_a   9.19956168
_cell_length_b   9.13060285
_cell_length_c   22.89648889
_cell_angle_alpha   90.84654125
_cell_angle_beta   89.98232381
_cell_angle_gamma   119.78982592
_symmetry_Int_Tables_number   1
_chemical_formula_structural   Na5Ca3GeP3(SO8)3
_chemical_formula_sum   'Na15 Ca9 Ge3 P9 S9 O72'
_cell_volume   1668.86162206
_cell_formula_units_Z   3
loop_
 _symmetry_equiv_pos_site_id
 _symmetry_equiv_pos_as_xyz
  1  'x, y, z'
loop_
 _atom_site_type_symbol
 _atom_site_label
 _atom_site_symmetry_multiplicity
 _atom_site_fract_x
 _atom_site_fract_y
 _atom_site_fract_z
 _atom_site_occupancy
  Na  Na0  1  0.99580843  0.63771845  0.26347858  1
  Na  Na1  1  0.30529165  0.34639687  0.58685132  1
  Na  Na2  1  0.03297992  0.69348821  0.57815119  1
  Na  Na3  1  0.66834697  0.95619908  0.57665607  1
  Na  Na4  1  0.66378759  0.69377408  0.07668124  1
  Na  Na5  1  0.03808488  0.34300516  0.08283803  1
  Na  Na6  1  0.99115765  0.68111385  0.90782756  1
  Na  Na7  1  0.32647973  0.29995214  0.90533031  1
  Na  Na8  1  0.68610260  0.67477491  0.42117145  1
  Na  Na9  1  0.00083104  0.00751979  0.49574040  1
  Na  Na10  1  0.99789670  0.99251147  0.99413895  1
  Na  Na11  1  0.65444781  0.31681291  0.82669238  1
  Na  Na12  1  0.64775213  0.28449816  0.33957001  1
  Na  Na13  1  0.34159752  0.68010965  0.17532425  1
  Na  Na14  1  0.32676551  0.64656167  0.67709537  1
  Ca  Ca15  1  0.00121177  0.01284199  0.35300144  1
  Ca  Ca16  1  0.99405729  0.00249306  0.84662108  1
  Ca  Ca17  1  0.00205040  0.01012778  0.65762912  1
  Ca  Ca18  1  0.00661425  0.99598628  0.14750147  1
  Ca  Ca19  1  0.66610966  0.33928206  0.68977109  1
  Ca  Ca20  1  0.65450821  0.32308218  0.18654285  1
  Ca  Ca21  1  0.33205151  0.67350793  0.01504518  1
  Ca  Ca22  1  0.32815971  0.66604687  0.50973522  1
  Ca  Ca23  1  0.33826539  0.67590118  0.32637996  1
  Ge  Ge24  1  0.67926198  0.33804655  0.97055980  1
  Ge  Ge25  1  0.70405259  0.34859409  0.48142277  1
  Ge  Ge26  1  0.33930681  0.66564088  0.82342752  1
  P  P27  1  0.31145523  0.32890096  0.75849071  1
  P  P28  1  0.95698766  0.33051409  0.58226887  1
  P  P29  1  0.67102854  0.61901067  0.57796221  1
  P  P30  1  0.94056927  0.61429511  0.07725541  1
  P  P31  1  0.62767553  0.65300614  0.92117114  1
  P  P32  1  0.03332251  0.37795612  0.91970996  1
  P  P33  1  0.35297007  0.97124886  0.91603604  1
  P  P34  1  0.64314666  0.99193431  0.42625256  1
  P  P35  1  0.01009234  0.65912749  0.41988408  1
  S  S36  1  0.29879601  0.99140981  0.25101493  1
  S  S37  1  0.69245274  0.69968358  0.24849541  1
  S  S38  1  0.00752015  0.31396213  0.24565294  1
  S  S39  1  0.02304226  0.69287788  0.75690840  1
  S  S40  1  0.66819646  0.97742323  0.75358290  1
  S  S41  1  0.37583159  0.04813290  0.58153512  1
  S  S42  1  0.67697163  0.04993056  0.07566323  1
  S  S43  1  0.37028293  0.32686172  0.07524117  1
  S  S44  1  0.35229043  0.35864553  0.42314732  1
  O  O45  1  0.20538506  0.99559776  0.30230363  1
  O  O46  1  0.79314471  0.79664617  0.30014527  1
  O  O47  1  0.00768425  0.21261166  0.29465034  1
  O  O48  1  0.21970475  0.22088518  0.81089574  1
  O  O49  1  0.00414734  0.77801445  0.80919100  1
  O  O50  1  0.77859142  0.99584675  0.80245291  1
  O  O51  1  0.73573474  0.95621496  0.69672483  1
  O  O52  1  0.21535141  0.26069625  0.69974894  1
  O  O53  1  0.03537027  0.78642651  0.70264719  1
  O  O54  1  0.77285257  0.78817125  0.19317238  1
  O  O55  1  0.00800270  0.23374603  0.18846328  1
  O  O56  1  0.21108176  0.98855081  0.19611725  1
  O  O57  1  0.87030620  0.35036851  0.63502025  1
  O  O58  1  0.46942747  0.12112053  0.63575877  1
  O  O59  1  0.64089365  0.50808926  0.62976647  1
  O  O60  1  0.85098193  0.51741916  0.13166441  1
  O  O61  1  0.66652944  0.13153694  0.12960260  1
  O  O62  1  0.46556297  0.32848946  0.12684499  1
  O  O63  1  0.45018463  0.31396853  0.01939320  1
  O  O64  1  0.82424135  0.51652938  0.01882408  1
  O  O65  1  0.68282344  0.14833388  0.02218176  1
  O  O66  1  0.46350792  0.15288716  0.52987366  1
  O  O67  1  0.69441722  0.52767446  0.51960808  1
  O  O68  1  0.84754208  0.31127077  0.52502065  1
  O  O69  1  0.56447343  0.67473668  0.97977331  1
  O  O70  1  0.11648195  0.44067250  0.97898024  1
  O  O71  1  0.32028741  0.87227284  0.97099234  1
  O  O72  1  0.56895895  0.88761891  0.48156974  1
  O  O73  1  0.33301156  0.42947142  0.47915243  1
  O  O74  1  0.10577206  0.67440674  0.47630254  1
  O  O75  1  0.09051540  0.63886164  0.36365059  1
  O  O76  1  0.53347673  0.90685852  0.37194273  1
  O  O77  1  0.37047013  0.47285905  0.37448209  1
  O  O78  1  0.13219217  0.51542952  0.87064228  1
  O  O79  1  0.37871985  0.87497047  0.86153157  1
  O  O80  1  0.49624317  0.62438239  0.87062973  1
  O  O81  1  0.96826774  0.80315392  0.41654498  1
  O  O82  1  0.82178686  0.01945234  0.41916759  1
  O  O83  1  0.20929574  0.18802765  0.41522035  1
  O  O84  1  0.01228325  0.20445799  0.90812797  1
  O  O85  1  0.20507988  0.00212376  0.90565553  1
  O  O86  1  0.80779111  0.79111493  0.91001880  1
  O  O87  1  0.96797365  0.16549299  0.58154068  1
  O  O88  1  0.20568008  0.03484114  0.58434069  1
  O  O89  1  0.83628247  0.79251908  0.58102497  1
  O  O90  1  0.94941834  0.78794696  0.07373197  1
  O  O91  1  0.83666753  0.04248006  0.07504491  1
  O  O92  1  0.19455711  0.18417579  0.07593288  1
  O  O93  1  0.63958747  0.12249389  0.75249419  1
  O  O94  1  0.49197430  0.36261854  0.75683443  1
  O  O95  1  0.88193078  0.51840996  0.75431329  1
  O  O96  1  0.68874049  0.53403722  0.24957677  1
  O  O97  1  0.85582995  0.33469657  0.25025550  1
  O  O98  1  0.47115153  0.13843117  0.25286848  1
  O  O99  1  0.62813728  0.47400204  0.91940908  1
  O  O100  1  0.85366874  0.37052748  0.91848450  1
  O  O101  1  0.52009662  0.15512601  0.92037618  1
  O  O102  1  0.64642694  0.16813925  0.43150357  1
  O  O103  1  0.51439755  0.35506386  0.42355867  1
  O  O104  1  0.83131885  0.48748517  0.42218647  1
  O  O105  1  0.36356482  0.48801278  0.07802813  1
  O  O106  1  0.11258453  0.62576185  0.07458207  1
  O  O107  1  0.53543674  0.87431296  0.07467190  1
  O  O108  1  0.34854315  0.87235399  0.57629693  1
  O  O109  1  0.51931848  0.64662887  0.57141174  1
  O  O110  1  0.13504826  0.48672334  0.57740280  1
  O  O111  1  0.30501670  0.83056640  0.25080551  1
  O  O112  1  0.52105425  0.67450944  0.25081719  1
  O  O113  1  0.15720505  0.48721075  0.24808573  1
  O  O114  1  0.31307576  0.50657217  0.76766159  1
  O  O115  1  0.18778029  0.69292805  0.76229774  1
  O  O116  1  0.50197789  0.81442276  0.76121392  1
