# generated using pymatgen
data_Lu2MgCr2O8
_symmetry_space_group_name_H-M   'P 1'
_cell_length_a   5.85752776
_cell_length_b   6.19585291
_cell_length_c   6.20188987
_cell_angle_alpha   111.40701333
_cell_angle_beta   103.84130751
_cell_angle_gamma   115.95561847
_symmetry_Int_Tables_number   1
_chemical_formula_structural   Lu2MgCr2O8
_chemical_formula_sum   'Lu2 Mg1 Cr2 O8'
_cell_volume   165.63846711
_cell_formula_units_Z   1
loop_
 _symmetry_equiv_pos_site_id
 _symmetry_equiv_pos_as_xyz
  1  'x, y, z'
loop_
 _atom_site_type_symbol
 _atom_site_label
 _atom_site_symmetry_multiplicity
 _atom_site_fract_x
 _atom_site_fract_y
 _atom_site_fract_z
 _atom_site_occupancy
  Lu  Lu0  1  0.36469100  0.63362900  0.69708900  1
  Lu  Lu1  1  0.63415800  0.33464200  0.26929600  1
  Mg  Mg2  1  0.50823300  0.76329400  0.25782000  1
  Cr  Cr3  1  0.91243000  0.15926600  0.79271000  1
  Cr  Cr4  1  0.08879900  0.87705400  0.24421500  1
  O  O5  1  0.33763600  0.25249700  0.45189800  1
  O  O6  1  0.87104300  0.25342900  0.54191300  1
  O  O7  1  0.27506000  0.33141400  0.01151600  1
  O  O8  1  0.29041300  0.84976100  0.05337100  1
  O  O9  1  0.12404100  0.67012100  0.38442200  1
  O  O10  1  0.70917200  0.76487100  0.56121200  1
  O  O11  1  0.66260500  0.11527100  0.91643600  1
  O  O12  1  0.72692600  0.73433400  0.05247700  1
