# generated using pymatgen
data_Nb2SeF14
_symmetry_space_group_name_H-M   'P 1'
_cell_length_a   17.20990945
_cell_length_b   7.48002731
_cell_length_c   8.67816443
_cell_angle_alpha   76.11270606
_cell_angle_beta   90.00000000
_cell_angle_gamma   90.00000000
_symmetry_Int_Tables_number   1
_chemical_formula_structural   Nb2SeF14
_chemical_formula_sum   'Nb8 Se4 F56'
_cell_volume   1084.49079511
_cell_formula_units_Z   4
loop_
 _symmetry_equiv_pos_site_id
 _symmetry_equiv_pos_as_xyz
  1  'x, y, z'
loop_
 _atom_site_type_symbol
 _atom_site_label
 _atom_site_symmetry_multiplicity
 _atom_site_fract_x
 _atom_site_fract_y
 _atom_site_fract_z
 _atom_site_occupancy
  Nb  Nb0  1  0.81762312  0.76656941  0.22489410  1
  Nb  Nb1  1  0.31762312  0.23343059  0.27510590  1
  Nb  Nb2  1  0.18237688  0.23343059  0.77510590  1
  Nb  Nb3  1  0.68237688  0.76656941  0.72489410  1
  Nb  Nb4  1  0.53835962  0.22294979  0.65778620  1
  Nb  Nb5  1  0.03835962  0.77705021  0.84221380  1
  Nb  Nb6  1  0.46164038  0.77705021  0.34221380  1
  Nb  Nb7  1  0.96164038  0.22294979  0.15778620  1
  Se  Se8  1  0.86360795  0.16901958  0.62888056  1
  Se  Se9  1  0.36360795  0.83098042  0.87111944  1
  Se  Se10  1  0.13639205  0.83098042  0.37111944  1
  Se  Se11  1  0.63639205  0.16901958  0.12888056  1
  F  F12  1  0.66581786  0.17749090  0.31451114  1
  F  F13  1  0.16581786  0.82250910  0.18548886  1
  F  F14  1  0.33418214  0.82250910  0.68548886  1
  F  F15  1  0.83418214  0.17749090  0.81451114  1
  F  F16  1  0.70002134  0.33508613  0.03555643  1
  F  F17  1  0.20002134  0.66491387  0.46444357  1
  F  F18  1  0.29997866  0.66491387  0.96444357  1
  F  F19  1  0.79997866  0.33508613  0.53555643  1
  F  F20  1  0.56436361  0.32424869  0.13055528  1
  F  F21  1  0.06436361  0.67575131  0.36944472  1
  F  F22  1  0.43563639  0.67575131  0.86944472  1
  F  F23  1  0.93563639  0.32424869  0.63055528  1
  F  F24  1  0.75452197  0.97709932  0.65968647  1
  F  F25  1  0.25452197  0.02290068  0.84031353  1
  F  F26  1  0.24547803  0.02290068  0.34031353  1
  F  F27  1  0.74547803  0.97709932  0.15968647  1
  F  F28  1  0.60105023  0.59620504  0.78972938  1
  F  F29  1  0.10105023  0.40379496  0.71027062  1
  F  F30  1  0.39894977  0.40379496  0.21027062  1
  F  F31  1  0.89894977  0.59620504  0.28972938  1
  F  F32  1  0.76329112  0.59652779  0.76162923  1
  F  F33  1  0.26329112  0.40347221  0.73837077  1
  F  F34  1  0.23670888  0.40347221  0.23837077  1
  F  F35  1  0.73670888  0.59652779  0.26162923  1
  F  F36  1  0.67675118  0.82509076  0.92675461  1
  F  F37  1  0.17675118  0.17490924  0.57324539  1
  F  F38  1  0.32324882  0.17490924  0.07324539  1
  F  F39  1  0.82324882  0.82509076  0.42675461  1
  F  F40  1  0.66306122  0.77525181  0.50798283  1
  F  F41  1  0.16306122  0.22474819  0.99201717  1
  F  F42  1  0.33693878  0.22474819  0.49201717  1
  F  F43  1  0.83693878  0.77525181  0.00798283  1
  F  F44  1  0.60047125  0.98412249  0.67350239  1
  F  F45  1  0.10047125  0.01587751  0.82649761  1
  F  F46  1  0.39952875  0.01587751  0.32649761  1
  F  F47  1  0.89952875  0.98412249  0.17350239  1
  F  F48  1  0.45558383  0.04770337  0.75174541  1
  F  F49  1  0.95558383  0.95229663  0.74825459  1
  F  F50  1  0.54441617  0.95229663  0.24825459  1
  F  F51  1  0.04441617  0.04770337  0.25174541  1
  F  F52  1  0.63041876  0.35203719  0.58882774  1
  F  F53  1  0.13041876  0.64796281  0.91117226  1
  F  F54  1  0.36958124  0.64796281  0.41117226  1
  F  F55  1  0.86958124  0.35203719  0.08882774  1
  F  F56  1  0.47345780  0.42174841  0.66003048  1
  F  F57  1  0.97345780  0.57825159  0.83996952  1
  F  F58  1  0.52654220  0.57825159  0.33996952  1
  F  F59  1  0.02654220  0.42174841  0.16003048  1
  F  F60  1  0.57500551  0.19014171  0.87725126  1
  F  F61  1  0.07500551  0.80985829  0.62274874  1
  F  F62  1  0.42499449  0.80985829  0.12274874  1
  F  F63  1  0.92499449  0.19014171  0.37725126  1
  F  F64  1  0.51105727  0.19779872  0.45483286  1
  F  F65  1  0.01105727  0.80220128  0.04516714  1
  F  F66  1  0.48894273  0.80220128  0.54516714  1
  F  F67  1  0.98894273  0.19779872  0.95483286  1
