# generated using pymatgen
data_Na2Ta5In3(PO4)12
_symmetry_space_group_name_H-M   'P 1'
_cell_length_a   17.60056945
_cell_length_b   8.80287317
_cell_length_c   22.82056553
_cell_angle_alpha   89.97555336
_cell_angle_beta   90.02895237
_cell_angle_gamma   119.98226518
_symmetry_Int_Tables_number   1
_chemical_formula_structural   Na2Ta5In3(PO4)12
_chemical_formula_sum   'Na6 Ta15 In9 P36 O144'
_cell_volume   3062.56784301
_cell_formula_units_Z   3
loop_
 _symmetry_equiv_pos_site_id
 _symmetry_equiv_pos_as_xyz
  1  'x, y, z'
loop_
 _atom_site_type_symbol
 _atom_site_label
 _atom_site_symmetry_multiplicity
 _atom_site_fract_x
 _atom_site_fract_y
 _atom_site_fract_z
 _atom_site_occupancy
  Na  Na0  1  0.33067887  0.32928709  0.82728333  1
  Na  Na1  1  0.83610785  0.33764320  0.82821810  1
  Na  Na2  1  0.33065275  0.32825377  0.32727421  1
  Na  Na3  1  0.83545948  0.33853956  0.32578161  1
  Na  Na4  1  0.66817300  0.66697861  0.16748564  1
  Na  Na5  1  0.16582477  0.66548652  0.66450678  1
  Ta  Ta6  1  0.50261384  0.00369340  0.35699043  1
  Ta  Ta7  1  0.00277406  0.00160037  0.85642091  1
  Ta  Ta8  1  0.49718237  0.99783597  0.85624070  1
  Ta  Ta9  1  0.99978953  0.99956211  0.64124319  1
  Ta  Ta10  1  0.50068029  0.00096806  0.64106515  1
  Ta  Ta11  1  0.00080272  0.00102117  0.14571092  1
  Ta  Ta12  1  0.49946416  0.99916882  0.14346236  1
  Ta  Ta13  1  0.33602808  0.33705339  0.98219669  1
  Ta  Ta14  1  0.83072348  0.32903394  0.98182376  1
  Ta  Ta15  1  0.32957243  0.33287380  0.47951034  1
  Ta  Ta16  1  0.83786685  0.33654464  0.48042159  1
  Ta  Ta17  1  0.16610770  0.66554994  0.02005202  1
  Ta  Ta18  1  0.66578371  0.66720792  0.51981749  1
  Ta  Ta19  1  0.16485935  0.66453338  0.30958496  1
  Ta  Ta20  1  0.66744869  0.66690320  0.80928825  1
  In  In21  1  0.99573417  0.99604708  0.35670993  1
  In  In22  1  0.33567941  0.33348286  0.68876880  1
  In  In23  1  0.83110224  0.33314438  0.68817276  1
  In  In24  1  0.33255501  0.33216488  0.18818037  1
  In  In25  1  0.83421807  0.33482759  0.18714918  1
  In  In26  1  0.66704134  0.66803023  0.01721259  1
  In  In27  1  0.16921145  0.66960910  0.51744772  1
  In  In28  1  0.66923015  0.66902896  0.31065385  1
  In  In29  1  0.16597121  0.66660622  0.81045858  1
  P  P30  1  0.14367719  -0.00001355  0.25150904  1
  P  P31  1  0.64203280  0.99812451  0.25005817  1
  P  P32  1  0.35822781  0.71697593  0.25224541  1
  P  P33  1  0.85432067  0.71065513  0.24933344  1
  P  P34  1  0.99986293  0.28722286  0.25169748  1
  P  P35  1  0.50069912  0.28503284  0.24978914  1
  P  P36  1  0.14218916  0.28461513  0.74929879  1
  P  P37  1  0.64082730  0.28252288  0.75092464  1
  P  P38  1  0.99992279  0.71633469  0.74911252  1
  P  P39  1  0.50066976  0.71800050  0.75108005  1
  P  P40  1  0.35775641  0.99790838  0.74864883  1
  P  P41  1  0.85890812  0.00139715  0.75155102  1
  P  P42  1  0.47730042  0.33389529  0.58249635  1
  P  P43  1  0.97949095  0.33750352  0.58665263  1
  P  P44  1  0.18898574  0.04219444  0.58529693  1
  P  P45  1  0.69032299  0.04476623  0.58375053  1
  P  P46  1  0.33217941  0.62106582  0.58612139  1
  P  P47  1  0.83207209  0.62116439  0.58320791  1
  P  P48  1  0.47972373  0.62315705  0.08642001  1
  P  P49  1  0.97816405  0.62573004  0.08239303  1
  P  P50  1  0.33291606  0.04234792  0.08317400  1
  P  P51  1  0.83313262  0.04045314  0.08579232  1
  P  P52  1  0.18885714  0.33388560  0.08380534  1
  P  P53  1  0.68670422  0.33369539  0.08484697  1
  P  P54  1  0.31009049  0.66311741  0.91600959  1
  P  P55  1  0.81086599  0.66216567  0.91511207  1
  P  P56  1  0.02059318  0.37763580  0.91609836  1
  P  P57  1  0.52113490  0.38057165  0.91510551  1
  P  P58  1  0.16968940  0.95907761  0.91633201  1
  P  P59  1  0.66788083  0.95748391  0.91482210  1
  P  P60  1  0.31081196  0.96023342  0.41454454  1
  P  P61  1  0.80973302  0.95690097  0.41713339  1
  P  P62  1  0.16764590  0.37883703  0.41594595  1
  P  P63  1  0.66938676  0.38027787  0.41671311  1
  P  P64  1  0.02149652  0.66303742  0.41644655  1
  P  P65  1  0.52109100  0.66304625  0.41595064  1
  O  O66  1  0.10406421  0.02900597  0.30544803  1
  O  O67  1  0.59287512  0.00898226  0.30575054  1
  O  O68  1  0.41597554  0.81394440  0.30604222  1
  O  O69  1  0.90365377  0.78980150  0.30530001  1
  O  O70  1  0.49740629  0.17608500  0.30483081  1
  O  O71  1  0.98483980  0.18227623  0.30655047  1
  O  O72  1  0.09323752  0.17661070  0.80571989  1
  O  O73  1  0.59201370  0.16941950  0.80489609  1
  O  O74  1  0.49129945  0.81181635  0.80581692  1
  O  O75  1  0.99703784  0.81802408  0.80489796  1
  O  O76  1  0.41114588  0.00546690  0.80454435  1
  O  O77  1  0.91559214  0.01874334  0.80617950  1
  O  O78  1  0.40876606  0.98885732  0.69392887  1
  O  O79  1  0.90020604  0.97547838  0.69589764  1
  O  O80  1  0.08583348  0.18292060  0.69483897  1
  O  O81  1  0.58751921  0.19907876  0.69476949  1
  O  O82  1  0.00354083  0.82326762  0.69375012  1
  O  O83  1  0.51394996  0.83046087  0.69594089  1
  O  O84  1  0.40088312  0.82570277  0.19583488  1
  O  O85  1  0.90835176  0.82794149  0.19390305  1
  O  O86  1  0.01302962  0.19635275  0.19596493  1
  O  O87  1  0.50401200  0.18428643  0.19360375  1
  O  O88  1  0.08819975  0.97783698  0.19448293  1
  O  O89  1  0.58550609  0.98808281  0.19483406  1
  O  O90  1  0.44651575  0.37891238  0.63825080  1
  O  O91  1  0.93912745  0.36637928  0.64105184  1
  O  O92  1  0.24372834  0.12119408  0.63969086  1
  O  O93  1  0.74324715  0.10668651  0.63974391  1
  O  O94  1  0.31884618  0.51592958  0.64128100  1
  O  O95  1  0.80808068  0.50972832  0.63801981  1
  O  O96  1  0.43928262  0.51096390  0.13978830  1
  O  O97  1  0.94639490  0.51336837  0.13618964  1
  O  O98  1  0.30901842  0.10892956  0.13647773  1
  O  O99  1  0.81757529  0.11985595  0.13962846  1
  O  O100  1  0.24471808  0.38269715  0.13790636  1
  O  O101  1  0.74277685  0.36371800  0.13806471  1
  O  O102  1  0.23589328  0.30511507  0.02989380  1
  O  O103  1  0.73376010  0.30732566  0.02886792  1
  O  O104  1  0.42023462  0.52878996  0.03056333  1
  O  O105  1  0.91623765  0.53207643  0.02823792  1
  O  O106  1  0.34947085  0.16540243  0.02886751  1
  O  O107  1  0.84420657  0.16102930  0.03010013  1
  O  O108  1  0.23446105  0.16088696  0.52967638  1
  O  O109  1  0.73497775  0.16783167  0.53118128  1
  O  O110  1  0.34478471  0.52828756  0.53106943  1
  O  O111  1  0.84976790  0.53271521  0.53011145  1
  O  O112  1  0.41574092  0.30036878  0.52942221  1
  O  O113  1  0.92025318  0.31039076  0.53148398  1
  O  O114  1  0.26550004  0.69279425  0.96935511  1
  O  O115  1  0.77879940  0.70530680  0.97021823  1
  O  O116  1  0.08104597  0.46894833  0.96924661  1
  O  O117  1  0.57394657  0.44320909  0.97045003  1
  O  O118  1  0.15442434  0.83848783  0.96934491  1
  O  O119  1  0.64612182  0.85116068  0.97013174  1
  O  O120  1  0.28117311  0.85728138  0.47130250  1
  O  O121  1  0.75729748  0.83627794  0.47001941  1
  O  O122  1  0.15730662  0.45602317  0.47249217  1
  O  O123  1  0.65317265  0.46895283  0.46994446  1
  O  O124  1  0.07270762  0.68801967  0.47220122  1
  O  O125  1  0.57934958  0.69142420  0.47015630  1
  O  O126  1  0.06763573  0.63195766  0.36210485  1
  O  O127  1  0.55423748  0.61756460  0.36127816  1
  O  O128  1  0.24939244  0.86980441  0.36188982  1
  O  O129  1  0.75391519  0.89423130  0.36196017  1
  O  O130  1  0.18472859  0.50382840  0.36211432  1
  O  O131  1  0.69097371  0.48881687  0.36135034  1
  O  O132  1  0.05306514  0.48899726  0.86125467  1
  O  O133  1  0.56644820  0.50174723  0.86161194  1
  O  O134  1  0.19252843  0.89451598  0.86130093  1
  O  O135  1  0.68373141  0.86609042  0.86160905  1
  O  O136  1  0.25530402  0.61780045  0.86091009  1
  O  O137  1  0.74906874  0.63141476  0.86181066  1
  O  O138  1  0.00417984  0.81080115  0.40792777  1
  O  O139  1  0.51107244  0.82793092  0.40844977  1
  O  O140  1  0.40340045  0.98831591  0.40039878  1
  O  O141  1  0.89927090  0.97579000  0.41786890  1
  O  O142  1  0.09352761  0.19666510  0.40741241  1
  O  O143  1  0.58661952  0.19546310  0.40916886  1
  O  O144  1  0.01108648  0.19321638  0.90858305  1
  O  O145  1  0.50625949  0.19507712  0.90097193  1
  O  O146  1  0.08678474  0.97754778  0.90875415  1
  O  O147  1  0.59019783  0.98781692  0.90054979  1
  O  O148  1  0.40282877  0.82779793  0.90881864  1
  O  O149  1  0.90301163  0.81858700  0.90040005  1
  O  O150  1  0.48783058  0.16902805  0.59122932  1
  O  O151  1  0.98104901  0.16111214  0.59359102  1
  O  O152  1  0.09787050  0.03407068  0.59203638  1
  O  O153  1  0.59847515  0.02807440  0.59265822  1
  O  O154  1  0.42003761  0.80395352  0.59310279  1
  O  O155  1  0.91498369  0.80347986  0.59182943  1
  O  O156  1  0.48057216  0.80065608  0.09278261  1
  O  O157  1  0.98836044  0.80897545  0.09003085  1
  O  O158  1  0.41532167  0.02541770  0.09052231  1
  O  O159  1  0.92057926  0.03647349  0.09250868  1
  O  O160  1  0.09836270  0.16908277  0.09121397  1
  O  O161  1  0.59664640  0.15910603  0.09133123  1
  O  O162  1  0.35604270  0.16993380  0.75004439  1
  O  O163  1  0.84658969  0.16014162  0.75117305  1
  O  O164  1  0.23096722  0.29271388  0.75059379  1
  O  O165  1  0.73165742  0.30347658  0.75049121  1
  O  O166  1  0.42027275  0.53688501  0.75054201  1
  O  O167  1  0.91482104  0.53915389  0.75050585  1
  O  O168  1  0.34817115  0.53480607  0.25079550  1
  O  O169  1  0.84536382  0.52895396  0.24439376  1
  O  O170  1  0.41572592  0.29187947  0.25020831  1
  O  O171  1  0.92332061  0.32018500  0.24502057  1
  O  O172  1  0.23704080  0.15425297  0.24503420  1
  O  O173  1  0.73069440  0.16620879  0.25037409  1
  O  O174  1  0.32568042  0.50716299  0.93020205  1
  O  O175  1  0.82078146  0.49596803  0.92196676  1
  O  O176  1  0.42749961  0.35872537  0.92204312  1
  O  O177  1  0.92762331  0.34849091  0.93070342  1
  O  O178  1  0.24749736  0.14635254  0.93053791  1
  O  O179  1  0.75114872  0.14304734  0.92208846  1
  O  O180  1  0.32167028  0.14748328  0.42243594  1
  O  O181  1  0.81827272  0.13982904  0.43211633  1
  O  O182  1  0.25601289  0.36891962  0.42316618  1
  O  O183  1  0.74756514  0.35106346  0.43113850  1
  O  O184  1  0.42848496  0.50580238  0.43084593  1
  O  O185  1  0.92866673  0.48647057  0.42306836  1
  O  O186  1  0.17438696  0.48915576  0.06633300  1
  O  O187  1  0.67178912  0.48662914  0.07620487  1
  O  O188  1  0.07019697  0.65216019  0.06546385  1
  O  O189  1  0.57148107  0.65493060  0.07736651  1
  O  O190  1  0.25534186  0.85868539  0.06623629  1
  O  O191  1  0.75649438  0.85752118  0.07661454  1
  O  O192  1  0.17263459  0.85765481  0.57735551  1
  O  O193  1  0.67283926  0.85781071  0.56869900  1
  O  O194  1  0.25744586  0.65783181  0.57888812  1
  O  O195  1  0.75508805  0.65161277  0.56697578  1
  O  O196  1  0.07244991  0.48710828  0.57881112  1
  O  O197  1  0.56949810  0.48791850  0.56712348  1
  O  O198  1  0.14848916  0.82646008  0.25872126  1
  O  O199  1  0.64293360  0.82617651  0.24965625  1
  O  O200  1  0.26851853  0.70818801  0.26175340  1
  O  O201  1  0.76575337  0.70609941  0.24537233  1
  O  O202  1  0.08765656  0.46959959  0.25831826  1
  O  O203  1  0.58552825  0.46096406  0.24979356  1
  O  O204  1  0.14511785  0.46086535  0.74983152  1
  O  O205  1  0.64620635  0.46416373  0.76140699  1
  O  O206  1  0.08488207  0.70922741  0.74964096  1
  O  O207  1  0.58619912  0.70764447  0.76140627  1
  O  O208  1  0.26913727  0.82965449  0.74911647  1
  O  O209  1  0.76808357  0.82887582  0.76204118  1
