# generated using pymatgen
data_Na10Ca8SiS11O48
_symmetry_space_group_name_H-M   'P 1'
_cell_length_a   18.72247026
_cell_length_b   9.32435593
_cell_length_c   23.75345526
_cell_angle_alpha   89.93733906
_cell_angle_beta   89.97070177
_cell_angle_gamma   120.03408042
_symmetry_Int_Tables_number   1
_chemical_formula_structural   Na10Ca8SiS11O48
_chemical_formula_sum   'Na30 Ca24 Si3 S33 O144'
_cell_volume   3589.95979997
_cell_formula_units_Z   3
loop_
 _symmetry_equiv_pos_site_id
 _symmetry_equiv_pos_as_xyz
  1  'x, y, z'
loop_
 _atom_site_type_symbol
 _atom_site_label
 _atom_site_symmetry_multiplicity
 _atom_site_fract_x
 _atom_site_fract_y
 _atom_site_fract_z
 _atom_site_occupancy
  Na  Na0  1  0.82106092  0.97250595  0.24571778  1
  Na  Na1  1  0.69011189  0.38496159  0.25002190  1
  Na  Na2  1  0.98957001  0.64652200  0.25492956  1
  Na  Na3  1  0.49831788  0.63363298  0.24994080  1
  Na  Na4  1  0.32182505  0.67133037  0.74521473  1
  Na  Na5  1  0.82085805  0.67037179  0.74538868  1
  Na  Na6  1  0.98605796  0.32954935  0.75462720  1
  Na  Na7  1  0.48573753  0.32923051  0.75472081  1
  Na  Na8  1  0.19287450  0.00077975  0.74994379  1
  Na  Na9  1  0.69237701  0.99947154  0.75012945  1
  Na  Na10  1  0.33634704  0.97034475  0.59258486  1
  Na  Na11  1  0.83467511  0.96862350  0.59482540  1
  Na  Na12  1  0.15519329  0.97599944  0.08277052  1
  Na  Na13  1  0.83463693  0.70351654  0.09516387  1
  Na  Na14  1  0.35160412  0.03145479  0.90760024  1
  Na  Na15  1  0.85007256  0.02892088  0.90504528  1
  Na  Na16  1  0.16835445  0.03329966  0.41665910  1
  Na  Na17  1  0.84983326  0.67288172  0.40473627  1
  Na  Na18  1  0.00851841  0.02317256  0.50301600  1
  Na  Na19  1  0.50964347  0.99570966  0.49815306  1
  Na  Na20  1  0.00983565  0.02448498  0.99715652  1
  Na  Na21  1  0.50866076  0.99504915  0.00187987  1
  Na  Na22  1  0.33561949  0.32699427  0.83327385  1
  Na  Na23  1  0.83399331  0.32392713  0.83254364  1
  Na  Na24  1  0.33505421  0.33954689  0.33509861  1
  Na  Na25  1  0.83362052  0.34189564  0.33090397  1
  Na  Na26  1  0.18061811  0.65215169  0.16723580  1
  Na  Na27  1  0.66766431  0.66362409  0.16676239  1
  Na  Na28  1  0.17278174  0.67466662  0.66714808  1
  Na  Na29  1  0.67057845  0.67364552  0.66695057  1
  Ca  Ca30  1  0.99806604  0.00298322  0.34461500  1
  Ca  Ca31  1  0.49692945  0.00257869  0.35160185  1
  Ca  Ca32  1  0.00003534  0.00113323  0.84837971  1
  Ca  Ca33  1  0.50020981  0.00241257  0.84780786  1
  Ca  Ca34  1  0.99885800  0.99684876  0.65164307  1
  Ca  Ca35  1  0.49891777  0.99783945  0.65215331  1
  Ca  Ca36  1  0.99795211  0.00591634  0.15535936  1
  Ca  Ca37  1  0.49643921  0.00189451  0.14828957  1
  Ca  Ca38  1  0.33376535  0.33413966  0.67772643  1
  Ca  Ca39  1  0.83382790  0.33474085  0.67781940  1
  Ca  Ca40  1  0.33148262  0.32935261  0.18116018  1
  Ca  Ca41  1  0.83405213  0.33429513  0.17821056  1
  Ca  Ca42  1  0.33746349  0.34765290  0.98595127  1
  Ca  Ca43  1  0.83313506  0.33750688  0.98576105  1
  Ca  Ca44  1  0.33926578  0.34911884  0.48503980  1
  Ca  Ca45  1  0.83272289  0.33010576  0.48529287  1
  Ca  Ca46  1  0.16558375  0.65360156  0.01444552  1
  Ca  Ca47  1  0.65832630  0.66117780  0.01556965  1
  Ca  Ca48  1  0.16377126  0.65275911  0.51421177  1
  Ca  Ca49  1  0.65959998  0.65850711  0.51386065  1
  Ca  Ca50  1  0.17190369  0.66186468  0.31904536  1
  Ca  Ca51  1  0.66707710  0.66752992  0.32164661  1
  Ca  Ca52  1  0.16667024  0.66563969  0.82220499  1
  Ca  Ca53  1  0.66652738  0.66462301  0.82230679  1
  Si  Si54  1  0.84318226  0.68638569  0.25017380  1
  Si  Si55  1  0.34377885  -0.00002280  0.75005380  1
  Si  Si56  1  0.84393827  0.99974786  0.75009798  1
  S  S57  1  0.15276901  0.99513943  0.25047648  1
  S  S58  1  0.64778982  0.99840014  0.24971501  1
  S  S59  1  0.35195299  0.69716229  0.24958460  1
  S  S60  1  -0.00027824  0.31241565  0.24974182  1
  S  S61  1  0.49975048  0.30409096  0.25035603  1
  S  S62  1  0.15174912  0.30309210  0.74947787  1
  S  S63  1  0.65212030  0.30372669  0.74950029  1
  S  S64  1  0.00014896  0.69643828  0.75044579  1
  S  S65  1  0.50024320  0.69628398  0.75042866  1
  S  S66  1  0.48537326  0.33058670  0.58521235  1
  S  S67  1  0.98520185  0.33112369  0.58455417  1
  S  S68  1  0.18174585  0.02571950  0.58071253  1
  S  S69  1  0.68156939  0.02445307  0.58451122  1
  S  S70  1  0.33300134  0.64534584  0.58512430  1
  S  S71  1  0.83329880  0.64546119  0.58117907  1
  S  S72  1  0.48696382  0.64081490  0.08742074  1
  S  S73  1  0.98860790  0.64556174  0.08441863  1
  S  S74  1  0.32944400  0.02773306  0.07981863  1
  S  S75  1  0.83373994  0.02217760  0.08151994  1
  S  S76  1  0.18070844  0.32598100  0.08360567  1
  S  S77  1  0.68204595  0.33792986  0.08449215  1
  S  S78  1  0.32031720  0.66902679  0.91461152  1
  S  S79  1  0.81942589  0.66950946  0.91867557  1
  S  S80  1  0.01020848  0.35494106  0.91566910  1
  S  S81  1  0.51044210  0.35436233  0.91503448  1
  S  S82  1  0.16894681  0.97470733  0.91926658  1
  S  S83  1  0.66948028  0.97546647  0.91544303  1
  S  S84  1  0.31522553  0.97131846  0.42017029  1
  S  S85  1  0.82016716  0.97055099  0.41814039  1
  S  S86  1  0.16648023  0.35280806  0.41675209  1
  S  S87  1  0.66966659  0.36313190  0.41568484  1
  S  S88  1  0.01587305  0.67185972  0.41484307  1
  S  S89  1  0.51276191  0.66807839  0.41300097  1
  O  O90  1  0.11227815  0.01235181  0.30201631  1
  O  O91  1  0.60955683  0.02462914  0.30019673  1
  O  O92  1  0.40067015  0.78422943  0.30014958  1
  O  O93  1  0.89800379  0.77549477  0.30696169  1
  O  O94  1  0.49311302  0.20922790  0.30159537  1
  O  O95  1  0.99370988  0.21474444  0.30028051  1
  O  O96  1  0.11482696  0.19784222  0.79980357  1
  O  O97  1  0.61538562  0.19848712  0.79974694  1
  O  O98  1  0.49314857  0.78005645  0.80098372  1
  O  O99  1  0.99282115  0.77992511  0.80102216  1
  O  O100  1  0.39922253  0.02226758  0.80653409  1
  O  O101  1  0.89934509  0.02134259  0.80668708  1
  O  O102  1  0.38792455  0.97726142  0.69349080  1
  O  O103  1  0.88826853  0.97740965  0.69341445  1
  O  O104  1  0.10274454  0.21928993  0.69893787  1
  O  O105  1  0.60322062  0.22029165  0.69896156  1
  O  O106  1  0.01587307  0.80177790  0.70018599  1
  O  O107  1  0.51563265  0.80143493  0.70016496  1
  O  O108  1  0.39234435  0.79325210  0.19836461  1
  O  O109  1  0.88807047  0.79725923  0.19344848  1
  O  O110  1  0.01204282  0.23760180  0.19869425  1
  O  O111  1  0.50721631  0.22055790  0.19988481  1
  O  O112  1  0.10365382  0.98520578  0.19961281  1
  O  O113  1  0.59881956  0.98390299  0.19915603  1
  O  O114  1  0.44875162  0.34362118  0.63939049  1
  O  O115  1  0.94847996  0.34261518  0.63881221  1
  O  O116  1  0.22935726  0.11192119  0.63246502  1
  O  O117  1  0.72643452  0.10397228  0.63788614  1
  O  O118  1  0.32971371  0.56297143  0.63942374  1
  O  O119  1  0.83030856  0.55742316  0.63411718  1
  O  O120  1  0.44682551  0.55308652  0.14080426  1
  O  O121  1  0.95219968  0.55774370  0.13819471  1
  O  O122  1  0.32289157  0.12036447  0.12844479  1
  O  O123  1  0.83064191  0.10395209  0.13445494  1
  O  O124  1  0.22786051  0.34005144  0.13518632  1
  O  O125  1  0.72714738  0.34882777  0.13773461  1
  O  O126  1  0.22440387  0.31544190  0.03319194  1
  O  O127  1  0.72702397  0.32338645  0.03590023  1
  O  O128  1  0.43686906  0.54721782  0.03839597  1
  O  O129  1  0.93549532  0.55093442  0.03678838  1
  O  O130  1  0.33570940  0.11788125  0.02690773  1
  O  O131  1  0.83491672  0.11759521  0.03162104  1
  O  O132  1  0.22474828  0.12424793  0.52981389  1
  O  O133  1  0.72729985  0.12929511  0.53588973  1
  O  O134  1  0.33304149  0.54584063  0.53714182  1
  O  O135  1  0.83422651  0.55215664  0.53131632  1
  O  O136  1  0.43146015  0.32056082  0.53784823  1
  O  O137  1  0.93174926  0.32197906  0.53720682  1
  O  O138  1  0.27175128  0.67956426  0.96218043  1
  O  O139  1  0.77283515  0.67731681  0.96809278  1
  O  O140  1  0.06010769  0.45412850  0.96361420  1
  O  O141  1  0.56048545  0.45311513  0.96292407  1
  O  O142  1  0.16242799  0.87592364  0.97018097  1
  O  O143  1  0.66356189  0.87094332  0.96398933  1
  O  O144  1  0.27675321  0.87938613  0.47293810  1
  O  O145  1  0.77401586  0.86999217  0.46775393  1
  O  O146  1  0.16181174  0.43707848  0.46778136  1
  O  O147  1  0.66316751  0.45402742  0.46417618  1
  O  O148  1  0.06643311  0.67663770  0.46316646  1
  O  O149  1  0.56370551  0.67461721  0.46139912  1
  O  O150  1  0.05256687  0.65724695  0.36131150  1
  O  O151  1  0.55146454  0.66026868  0.35903581  1
  O  O152  1  0.26252667  0.87850453  0.37143901  1
  O  O153  1  0.77437617  0.89030921  0.36538786  1
  O  O154  1  0.17037250  0.44545018  0.36550523  1
  O  O155  1  0.67549784  0.45329360  0.36223802  1
  O  O156  1  0.04789802  0.43635738  0.86130535  1
  O  O157  1  0.54804879  0.43682094  0.86064902  1
  O  O158  1  0.17295153  0.88733148  0.86761746  1
  O  O159  1  0.67435473  0.89597719  0.86196277  1
  O  O160  1  0.27690072  0.65606312  0.86061711  1
  O  O161  1  0.77404785  0.65803969  0.86573767  1
  O  O162  1  0.01374500  0.83134560  0.41562542  1
  O  O163  1  0.50481876  0.81928287  0.41458896  1
  O  O164  1  0.39958512  0.99667468  0.41536705  1
  O  O165  1  0.90137792  0.97430158  0.41735621  1
  O  O166  1  0.09264217  0.18090012  0.41572056  1
  O  O167  1  0.59779712  0.19279435  0.41502009  1
  O  O168  1  0.00181264  0.18647627  0.91882755  1
  O  O169  1  0.50165833  0.18596889  0.91788036  1
  O  O170  1  0.09716590  0.00054957  0.91732370  1
  O  O171  1  0.59790469  0.00147941  0.91523612  1
  O  O172  1  0.40179445  0.82654990  0.91538859  1
  O  O173  1  0.90082360  0.82838695  0.91802211  1
  O  O174  1  0.48808328  0.17276716  0.58431291  1
  O  O175  1  0.98784041  0.17273474  0.58335225  1
  O  O176  1  0.09737629  0.00129282  0.58268188  1
  O  O177  1  0.59693347  0.99818064  0.58505368  1
  O  O178  1  0.40847811  0.81327897  0.58201818  1
  O  O179  1  0.90876807  0.81444410  0.57998353  1
  O  O180  1  0.49572967  0.80885864  0.08599542  1
  O  O181  1  0.99493420  0.81312617  0.08467443  1
  O  O182  1  0.40130256  0.00318892  0.08446171  1
  O  O183  1  0.90921962  0.00461464  0.08052952  1
  O  O184  1  0.09951660  0.16623510  0.08509501  1
  O  O185  1  0.59717868  0.19442942  0.08539672  1
  O  O186  1  0.33412873  0.16833254  0.74803795  1
  O  O187  1  0.83470773  0.16855267  0.74824099  1
  O  O188  1  0.23828691  0.33639301  0.74431047  1
  O  O189  1  0.73890912  0.33790740  0.74436858  1
  O  O190  1  0.42149033  0.53411055  0.74518159  1
  O  O191  1  0.92131991  0.53455737  0.74496831  1
  O  O192  1  0.34973636  0.53337191  0.24796094  1
  O  O193  1  0.83318827  0.49910290  0.24830872  1
  O  O194  1  0.42740657  0.33061245  0.24712131  1
  O  O195  1  0.91957742  0.31309880  0.24615785  1
  O  O196  1  0.23773063  0.13852751  0.24737800  1
  O  O197  1  0.73434305  0.14039897  0.24507104  1
  O  O198  1  0.33124285  0.52304837  0.91929659  1
  O  O199  1  0.83165065  0.52462574  0.92131983  1
  O  O200  1  0.42512709  0.33138697  0.91724615  1
  O  O201  1  0.92473797  0.33037713  0.91800139  1
  O  O202  1  0.24865133  0.13633720  0.92038336  1
  O  O203  1  0.74952911  0.13723841  0.91837007  1
  O  O204  1  0.31725412  0.13459770  0.42066852  1
  O  O205  1  0.83280024  0.14048744  0.42062372  1
  O  O206  1  0.24110329  0.33193536  0.41809067  1
  O  O207  1  0.74931626  0.36072411  0.41884108  1
  O  O208  1  0.42947568  0.51620863  0.41564668  1
  O  O209  1  0.92892992  0.53147749  0.41896923  1
  O  O210  1  0.16759555  0.47049760  0.08089733  1
  O  O211  1  0.68164739  0.49836181  0.08120968  1
  O  O212  1  0.07394558  0.67305863  0.07898663  1
  O  O213  1  0.57013986  0.65567238  0.08514572  1
  O  O214  1  0.25017138  0.86317967  0.07982028  1
  O  O215  1  0.76017181  0.85038813  0.08080588  1
  O  O216  1  0.18017059  0.86315425  0.57954150  1
  O  O217  1  0.68093582  0.86280736  0.58140521  1
  O  O218  1  0.25944877  0.66942969  0.58314483  1
  O  O219  1  0.75984362  0.66957957  0.58054683  1
  O  O220  1  0.06911613  0.47641914  0.57995970  1
  O  O221  1  0.56911850  0.47640505  0.58043911  1
  O  O222  1  0.15324007  0.83512307  0.25305460  1
  O  O223  1  0.65166028  0.84149696  0.25425410  1
  O  O224  1  0.26656983  0.66982336  0.25228456  1
  O  O225  1  0.75111791  0.67221193  0.25193482  1
  O  O226  1  0.06803597  0.48765858  0.25401630  1
  O  O227  1  0.57612646  0.47304458  0.25280381  1
  O  O228  1  0.15391683  0.46532368  0.75481328  1
  O  O229  1  0.65443846  0.46605244  0.75488995  1
  O  O230  1  0.06986217  0.66251057  0.75563234  1
  O  O231  1  0.57014957  0.66271577  0.75535740  1
  O  O232  1  0.25005490  0.83165421  0.75209331  1
  O  O233  1  0.75066123  0.83083716  0.75209451  1
