# generated using pymatgen
data_P2Pb3S8
_symmetry_space_group_name_H-M   'P 1'
_cell_length_a   11.07480408
_cell_length_b   11.07480408
_cell_length_c   11.07480408
_cell_angle_alpha   90.00000000
_cell_angle_beta   90.00000000
_cell_angle_gamma   90.00000000
_symmetry_Int_Tables_number   1
_chemical_formula_structural   P2Pb3S8
_chemical_formula_sum   'P8 Pb12 S32'
_cell_volume   1358.33895608
_cell_formula_units_Z   4
loop_
 _symmetry_equiv_pos_site_id
 _symmetry_equiv_pos_as_xyz
  1  'x, y, z'
loop_
 _atom_site_type_symbol
 _atom_site_label
 _atom_site_symmetry_multiplicity
 _atom_site_fract_x
 _atom_site_fract_y
 _atom_site_fract_z
 _atom_site_occupancy
  P  P0  1  0.15226994  0.34773006  0.65226994  1
  P  P1  1  0.34773006  0.65226994  0.15226994  1
  P  P2  1  0.65226994  0.15226994  0.34773006  1
  P  P3  1  0.84773006  0.84773006  0.84773006  1
  P  P4  1  0.42588207  0.07411793  0.92588207  1
  P  P5  1  0.07411793  0.92588207  0.42588207  1
  P  P6  1  0.92588207  0.42588207  0.07411793  1
  P  P7  1  0.57411793  0.57411793  0.57411793  1
  Pb  Pb8  1  0.02877304  0.73800254  0.13998546  1
  Pb  Pb9  1  0.52877304  0.76199746  0.86001454  1
  Pb  Pb10  1  0.97122696  0.23800254  0.36001454  1
  Pb  Pb11  1  0.76199746  0.86001454  0.52877304  1
  Pb  Pb12  1  0.36001454  0.97122696  0.23800254  1
  Pb  Pb13  1  0.86001454  0.52877304  0.76199746  1
  Pb  Pb14  1  0.73800254  0.13998546  0.02877304  1
  Pb  Pb15  1  0.13998546  0.02877304  0.73800254  1
  Pb  Pb16  1  0.23800254  0.36001454  0.97122696  1
  Pb  Pb17  1  0.26199746  0.63998546  0.47122696  1
  Pb  Pb18  1  0.63998546  0.47122696  0.26199746  1
  Pb  Pb19  1  0.47122696  0.26199746  0.63998546  1
  S  S20  1  0.44636029  0.72947036  0.28900136  1
  S  S21  1  0.05363971  0.27052964  0.78900136  1
  S  S22  1  0.27052964  0.78900136  0.05363971  1
  S  S23  1  0.78900136  0.05363971  0.27052964  1
  S  S24  1  0.77052964  0.71099864  0.94636029  1
  S  S25  1  0.94636029  0.77052964  0.71099864  1
  S  S26  1  0.22947036  0.21099864  0.55363971  1
  S  S27  1  0.72947036  0.28900136  0.44636029  1
  S  S28  1  0.55363971  0.22947036  0.21099864  1
  S  S29  1  0.28900136  0.44636029  0.72947036  1
  S  S30  1  0.21099864  0.55363971  0.22947036  1
  S  S31  1  0.71099864  0.94636029  0.77052964  1
  S  S32  1  0.46579188  0.46579188  0.46579188  1
  S  S33  1  0.03420812  0.53420812  0.96579188  1
  S  S34  1  0.96579188  0.03420812  0.53420812  1
  S  S35  1  0.53420812  0.96579188  0.03420812  1
  S  S36  1  0.95323117  0.95323117  0.95323117  1
  S  S37  1  0.54676883  0.04676883  0.45323117  1
  S  S38  1  0.45323117  0.54676883  0.04676883  1
  S  S39  1  0.04676883  0.45323117  0.54676883  1
  S  S40  1  0.09273848  0.00433170  0.26066253  1
  S  S41  1  0.26066253  0.09273848  0.00433170  1
  S  S42  1  0.00433170  0.26066253  0.09273848  1
  S  S43  1  0.49566830  0.73933747  0.59273848  1
  S  S44  1  0.76066253  0.40726152  0.99566830  1
  S  S45  1  0.99566830  0.76066253  0.40726152  1
  S  S46  1  0.23933747  0.90726152  0.50433170  1
  S  S47  1  0.73933747  0.59273848  0.49566830  1
  S  S48  1  0.50433170  0.23933747  0.90726152  1
  S  S49  1  0.59273848  0.49566830  0.73933747  1
  S  S50  1  0.90726152  0.50433170  0.23933747  1
  S  S51  1  0.40726152  0.99566830  0.76066253  1
