# generated using pymatgen
data_Ba2Mg(WO4)2
_symmetry_space_group_name_H-M   'P 1'
_cell_length_a   4.00539016
_cell_length_b   5.90818376
_cell_length_c   9.49106719
_cell_angle_alpha   91.08740450
_cell_angle_beta   102.98516824
_cell_angle_gamma   89.56504697
_symmetry_Int_Tables_number   1
_chemical_formula_structural   Ba2Mg(WO4)2
_chemical_formula_sum   'Ba2 Mg1 W2 O8'
_cell_volume   218.81797231
_cell_formula_units_Z   1
loop_
 _symmetry_equiv_pos_site_id
 _symmetry_equiv_pos_as_xyz
  1  'x, y, z'
loop_
 _atom_site_type_symbol
 _atom_site_label
 _atom_site_symmetry_multiplicity
 _atom_site_fract_x
 _atom_site_fract_y
 _atom_site_fract_z
 _atom_site_occupancy
  Ba  Ba0  1  0.09556936  0.49434926  0.20332973  1
  Ba  Ba1  1  0.78993615  0.97454685  0.56515985  1
  Mg  Mg2  1  0.46938833  0.99238126  0.86581273  1
  W  W3  1  0.39948039  0.49019727  0.85385483  1
  W  W4  1  0.58189436  0.99234226  0.18393727  1
  O  O5  1  0.50224150  0.75241797  0.01294885  1
  O  O6  1  0.68208584  0.22342300  0.32594740  1
  O  O7  1  0.07952648  0.98510252  0.16598463  1
  O  O8  1  0.92933858  0.49504373  0.86867373  1
  O  O9  1  0.65427828  0.74808484  0.32441312  1
  O  O10  1  0.36961077  0.22928512  0.71670018  1
  O  O11  1  0.36226529  0.74713637  0.71661405  1
  O  O12  1  0.50105166  0.24067257  0.01329063  1
