# generated using pymatgen
data_Na10Nb4Si11Sn4SO48
_symmetry_space_group_name_H-M   'P 1'
_cell_length_a   18.04598500
_cell_length_b   9.02424555
_cell_length_c   22.80321667
_cell_angle_alpha   90.17849741
_cell_angle_beta   90.07322082
_cell_angle_gamma   119.99267731
_symmetry_Int_Tables_number   1
_chemical_formula_structural   Na10Nb4Si11Sn4SO48
_chemical_formula_sum   'Na30 Nb12 Si33 Sn12 S3 O144'
_cell_volume   3216.22073734
_cell_formula_units_Z   3
loop_
 _symmetry_equiv_pos_site_id
 _symmetry_equiv_pos_as_xyz
  1  'x, y, z'
loop_
 _atom_site_type_symbol
 _atom_site_label
 _atom_site_symmetry_multiplicity
 _atom_site_fract_x
 _atom_site_fract_y
 _atom_site_fract_z
 _atom_site_occupancy
  Na  Na0  1  0.32039486  0.00000951  0.24979344  1
  Na  Na1  1  0.82034194  0.99986610  0.25020602  1
  Na  Na2  1  0.81894374  0.63649311  0.74967491  1
  Na  Na3  1  0.49820888  0.36292635  0.74894877  1
  Na  Na4  1  0.01644773  0.70131700  0.58415461  1
  Na  Na5  1  0.33298132  0.96867780  0.58463147  1
  Na  Na6  1  0.83312339  0.96516696  0.58329731  1
  Na  Na7  1  0.33262827  0.69810542  0.08485834  1
  Na  Na8  1  0.83281827  0.69852536  0.08525814  1
  Na  Na9  1  0.01673575  0.33341529  0.08506413  1
  Na  Na10  1  0.51492373  0.33147234  0.08509152  1
  Na  Na11  1  0.98459865  0.66542730  0.91508117  1
  Na  Na12  1  0.34880648  0.03256837  0.91602815  1
  Na  Na13  1  0.85140811  0.03367777  0.91606099  1
  Na  Na14  1  0.48340521  0.30190459  0.41508731  1
  Na  Na15  1  0.98355077  0.30188528  0.41474398  1
  Na  Na16  1  0.35002701  0.66725809  0.41482147  1
  Na  Na17  1  0.84961491  0.66777302  0.41487869  1
  Na  Na18  1  0.00526475  0.00515953  0.49951089  1
  Na  Na19  1  0.50535842  0.00079631  0.50019811  1
  Na  Na20  1  0.00610769  0.00621027  0.00033445  1
  Na  Na21  1  0.50420839  0.99860298  0.99992015  1
  Na  Na22  1  0.33151933  0.33799228  0.83326193  1
  Na  Na23  1  0.83244842  0.32897467  0.83213542  1
  Na  Na24  1  0.33431382  0.34009098  0.33126749  1
  Na  Na25  1  0.83423702  0.34008383  0.33101614  1
  Na  Na26  1  0.16444186  0.66034106  0.16855835  1
  Na  Na27  1  0.66401450  0.65995019  0.16919139  1
  Na  Na28  1  0.16751481  0.66679458  0.66978963  1
  Na  Na29  1  0.66381779  0.66697372  0.66502321  1
  Nb  Nb30  1  0.50011810  0.99793924  0.85337921  1
  Nb  Nb31  1  0.50013669  0.99796231  0.64610941  1
  Nb  Nb32  1  0.83503307  0.33174323  0.68812419  1
  Nb  Nb33  1  0.33264448  0.34033834  0.97963500  1
  Nb  Nb34  1  0.83086121  0.33315322  0.98049078  1
  Nb  Nb35  1  0.33119024  0.32954876  0.48083516  1
  Nb  Nb36  1  0.83046133  0.32710283  0.48003100  1
  Nb  Nb37  1  0.16715988  0.67077851  0.01928501  1
  Nb  Nb38  1  0.66564104  0.66990893  0.01990989  1
  Nb  Nb39  1  0.16682637  0.66250746  0.51974841  1
  Nb  Nb40  1  0.66244398  0.66139432  0.52005830  1
  Nb  Nb41  1  0.66589181  0.67148748  0.81263840  1
  Si  Si42  1  0.35305692  0.70373645  0.25014275  1
  Si  Si43  1  0.85311578  0.70424010  0.25005142  1
  Si  Si44  1  0.00116448  0.29570859  0.24985873  1
  Si  Si45  1  0.50118759  0.29583800  0.24985542  1
  Si  Si46  1  0.64481011  0.28625526  0.75012333  1
  Si  Si47  1  0.00400961  0.71081762  0.75004170  1
  Si  Si48  1  0.49723754  0.70861920  0.74952660  1
  Si  Si49  1  0.35132341  0.99530667  0.74970747  1
  Si  Si50  1  0.85621090  0.00315883  0.75022407  1
  Si  Si51  1  0.47989948  0.33516621  0.58390705  1
  Si  Si52  1  0.97954728  0.33248362  0.58382081  1
  Si  Si53  1  0.18742030  0.04610432  0.58455023  1
  Si  Si54  1  0.68699726  0.04395581  0.58402678  1
  Si  Si55  1  0.33323151  0.61973552  0.58437046  1
  Si  Si56  1  0.83094981  0.61958920  0.58376839  1
  Si  Si57  1  0.48032618  0.62900659  0.08352435  1
  Si  Si58  1  0.98083892  0.62901470  0.08311355  1
  Si  Si59  1  0.33118195  0.04568892  0.08405018  1
  Si  Si60  1  0.83122373  0.04435737  0.08476114  1
  Si  Si61  1  0.18763854  0.32815121  0.08437616  1
  Si  Si62  1  0.68702515  0.32796692  0.08474950  1
  Si  Si63  1  0.31022352  0.66392734  0.91506443  1
  Si  Si64  1  0.80997351  0.66315361  0.91617568  1
  Si  Si65  1  0.02378373  0.37626653  0.91566809  1
  Si  Si66  1  0.52204558  0.37759088  0.91641666  1
  Si  Si67  1  0.16684169  0.96154529  0.91636666  1
  Si  Si68  1  0.66463446  0.95694650  0.91679590  1
  Si  Si69  1  0.30910238  0.95621395  0.41516899  1
  Si  Si70  1  0.80848414  0.95378122  0.41585486  1
  Si  Si71  1  0.16621556  0.37042283  0.41637379  1
  Si  Si72  1  0.66595483  0.37151649  0.41672616  1
  Si  Si73  1  0.02363995  0.67175157  0.41611028  1
  Si  Si74  1  0.52307815  0.67169428  0.41534214  1
  Sn  Sn75  1  0.99708646  0.99709896  0.35334318  1
  Sn  Sn76  1  0.49717921  0.99745957  0.35330280  1
  Sn  Sn77  1  0.99937773  0.99957617  0.85362733  1
  Sn  Sn78  1  0.99984876  0.99639322  0.64680408  1
  Sn  Sn79  1  0.99872793  0.00253162  0.14670284  1
  Sn  Sn80  1  0.49797679  0.00215311  0.14670122  1
  Sn  Sn81  1  0.33508594  0.33441034  0.68464266  1
  Sn  Sn82  1  0.33900986  0.34586617  0.18505805  1
  Sn  Sn83  1  0.83895998  0.34606919  0.18539158  1
  Sn  Sn84  1  0.16578361  0.65409183  0.31468896  1
  Sn  Sn85  1  0.66589867  0.65408010  0.31483314  1
  Sn  Sn86  1  0.16782463  0.67489690  0.81444835  1
  S  S87  1  0.14555278  0.00001585  0.25009447  1
  S  S88  1  0.64560048  0.00022343  0.24995313  1
  S  S89  1  0.14629818  0.29260117  0.74998242  1
  O  O90  1  0.10705888  0.02958161  0.30328640  1
  O  O91  1  0.60727703  0.02971070  0.30321604  1
  O  O92  1  0.41172067  0.78729693  0.30939570  1
  O  O93  1  0.91173894  0.78732092  0.30929050  1
  O  O94  1  0.48183863  0.17429778  0.30854542  1
  O  O95  1  0.98181781  0.17432574  0.30857217  1
  O  O96  1  0.10746430  0.18431692  0.80316031  1
  O  O97  1  0.59772962  0.16651055  0.80714534  1
  O  O98  1  0.48608880  0.80591827  0.80691892  1
  O  O99  1  0.97962364  0.78827450  0.80802472  1
  O  O100  1  0.41594403  0.03243316  0.80701537  1
  O  O101  1  0.91245233  0.03664866  0.80973069  1
  O  O102  1  0.40142727  0.97442592  0.69179111  1
  O  O103  1  0.89433768  0.95986900  0.69158542  1
  O  O104  1  0.09225273  0.21415317  0.69657484  1
  O  O105  1  0.58144694  0.19803821  0.69363789  1
  O  O106  1  0.01759364  0.82386082  0.69081862  1
  O  O107  1  0.51463995  0.83349508  0.69291689  1
  O  O108  1  0.39438283  0.82575244  0.19159576  1
  O  O109  1  0.89453387  0.82608076  0.19140773  1
  O  O110  1  0.01768828  0.21218629  0.19062463  1
  O  O111  1  0.51814978  0.21255717  0.19066390  1
  O  O112  1  0.09232102  0.97014686  0.19675610  1
  O  O113  1  0.59246209  0.97067594  0.19664915  1
  O  O114  1  0.44202584  0.37084833  0.64321953  1
  O  O115  1  0.93235832  0.36772414  0.63943824  1
  O  O116  1  0.25001412  0.12246898  0.64084493  1
  O  O117  1  0.75225204  0.13759288  0.63961591  1
  O  O118  1  0.31301046  0.50181494  0.64159367  1
  O  O119  1  0.81843095  0.50277444  0.64168788  1
  O  O120  1  0.44367197  0.50339701  0.13958501  1
  O  O121  1  0.94221276  0.50201046  0.13863583  1
  O  O122  1  0.31402902  0.12255695  0.14377222  1
  O  O123  1  0.81377663  0.12299716  0.14359816  1
  O  O124  1  0.25060618  0.37651414  0.14057835  1
  O  O125  1  0.75093700  0.37673741  0.14022553  1
  O  O126  1  0.23587578  0.30449274  0.02665713  1
  O  O127  1  0.73596054  0.30458185  0.02656295  1
  O  O128  1  0.41661705  0.53431077  0.02711410  1
  O  O129  1  0.91774465  0.53637576  0.02505993  1
  O  O130  1  0.34945867  0.16780260  0.02623803  1
  O  O131  1  0.84840910  0.16692141  0.02644688  1
  O  O132  1  0.23584360  0.16704796  0.52706111  1
  O  O133  1  0.73583530  0.16668812  0.52689114  1
  O  O134  1  0.34797016  0.53261778  0.52511069  1
  O  O135  1  0.84930799  0.53120891  0.52631578  1
  O  O136  1  0.41761662  0.30005012  0.52616040  1
  O  O137  1  0.91807090  0.29899799  0.52597656  1
  O  O138  1  0.26753346  0.70083994  0.97403395  1
  O  O139  1  0.76630587  0.69811910  0.97370106  1
  O  O140  1  0.08155383  0.46754658  0.97501510  1
  O  O141  1  0.58226336  0.46887449  0.97435841  1
  O  O142  1  0.14973396  0.83169444  0.97271852  1
  O  O143  1  0.65281126  0.83433509  0.97324485  1
  O  O144  1  0.26502087  0.83297210  0.47323047  1
  O  O145  1  0.76568515  0.83265001  0.47382921  1
  O  O146  1  0.14959289  0.46687574  0.47310075  1
  O  O147  1  0.64976367  0.46747348  0.47309441  1
  O  O148  1  0.08169067  0.69481745  0.47533587  1
  O  O149  1  0.58347182  0.69599106  0.47339031  1
  O  O150  1  0.06276616  0.62368523  0.36015137  1
  O  O151  1  0.56248574  0.62355164  0.35953629  1
  O  O152  1  0.25252950  0.87698767  0.35620038  1
  O  O153  1  0.75276696  0.87737617  0.35624376  1
  O  O154  1  0.19160773  0.49748341  0.36086829  1
  O  O155  1  0.69211853  0.49727678  0.36067951  1
  O  O156  1  0.06224065  0.50121850  0.85967174  1
  O  O157  1  0.56851008  0.49865647  0.85867334  1
  O  O158  1  0.19049225  0.88371169  0.86028766  1
  O  O159  1  0.68367865  0.86475749  0.86061548  1
  O  O160  1  0.25063994  0.62752780  0.85821599  1
  O  O161  1  0.75124179  0.63728051  0.85798752  1
  O  O162  1  0.00924037  0.83586192  0.41218887  1
  O  O163  1  0.50936146  0.83643354  0.41199569  1
  O  O164  1  0.40458856  0.97464486  0.41348108  1
  O  O165  1  0.90478969  0.97533658  0.41337778  1
  O  O166  1  0.07870636  0.18714921  0.41134309  1
  O  O167  1  0.57893738  0.18740446  0.41126276  1
  O  O168  1  0.00872689  0.18226295  0.91196861  1
  O  O169  1  0.50949354  0.18577456  0.90936952  1
  O  O170  1  0.07873889  0.96940168  0.91141913  1
  O  O171  1  0.58094980  0.97593960  0.90981756  1
  O  O172  1  0.40401480  0.84065131  0.90940773  1
  O  O173  1  0.90471474  0.83478925  0.91236905  1
  O  O174  1  0.48465987  0.15880689  0.58924662  1
  O  O175  1  0.98459371  0.15857963  0.59044150  1
  O  O176  1  0.09121171  0.01836225  0.58785117  1
  O  O177  1  0.59345980  0.02525569  0.59084377  1
  O  O178  1  0.41598787  0.81485106  0.58991440  1
  O  O179  1  0.91786431  0.80949193  0.58745368  1
  O  O180  1  0.48569372  0.81344998  0.08885718  1
  O  O181  1  0.98497166  0.81243486  0.08855514  1
  O  O182  1  0.41718878  0.02509312  0.08660585  1
  O  O183  1  0.91739011  0.02580967  0.08647427  1
  O  O184  1  0.09115441  0.16413097  0.08811031  1
  O  O185  1  0.59117733  0.16402559  0.08794698  1
  O  O186  1  0.34887793  0.17549273  0.74540268  1
  O  O187  1  0.84420403  0.16974099  0.74225959  1
  O  O188  1  0.23142277  0.30647967  0.74480133  1
  O  O189  1  0.74121084  0.31619579  0.74333696  1
  O  O190  1  0.41487580  0.51617664  0.74584245  1
  O  O191  1  0.91350664  0.52409778  0.74213237  1
  O  O192  1  0.34185136  0.51320037  0.24603485  1
  O  O193  1  0.84183482  0.51355111  0.24605236  1
  O  O194  1  0.40917541  0.29501842  0.24550696  1
  O  O195  1  0.90907623  0.29497840  0.24552308  1
  O  O196  1  0.23209679  0.15315288  0.24521614  1
  O  O197  1  0.73225060  0.15331516  0.24511510  1
  O  O198  1  0.32238315  0.49801982  0.92481592  1
  O  O199  1  0.82332058  0.49728661  0.92282586  1
  O  O200  1  0.42621428  0.35194609  0.92363307  1
  O  O201  1  0.92745361  0.35652997  0.92522008  1
  O  O202  1  0.25350081  0.14601337  0.92570218  1
  O  O203  1  0.75384692  0.14070948  0.92391950  1
  O  O204  1  0.32440288  0.15004403  0.42424771  1
  O  O205  1  0.82423065  0.14913451  0.42458824  1
  O  O206  1  0.25344631  0.36035998  0.42553300  1
  O  O207  1  0.75336457  0.36051658  0.42618441  1
  O  O208  1  0.42805213  0.49870295  0.42520825  1
  O  O209  1  0.92796948  0.49844894  0.42572273  1
  O  O210  1  0.17878759  0.50134169  0.07464657  1
  O  O211  1  0.67893906  0.50135984  0.07442036  1
  O  O212  1  0.07319398  0.63918170  0.07435795  1
  O  O213  1  0.57321012  0.63969056  0.07418660  1
  O  O214  1  0.24943759  0.85033010  0.07544704  1
  O  O215  1  0.74964108  0.85016227  0.07550930  1
  O  O216  1  0.17892534  0.85614528  0.57471391  1
  O  O217  1  0.68334269  0.85993090  0.57610483  1
  O  O218  1  0.25073247  0.65044690  0.57455915  1
  O  O219  1  0.74931104  0.64872144  0.57660196  1
  O  O220  1  0.07148027  0.50841700  0.57681846  1
  O  O221  1  0.57425697  0.50370377  0.57504152  1
  O  O222  1  0.15555429  0.84691571  0.25501836  1
  O  O223  1  0.65572576  0.84708404  0.25487819  1
  O  O224  1  0.26139563  0.70466164  0.25448604  1
  O  O225  1  0.76146630  0.70491625  0.25436527  1
  O  O226  1  0.08511959  0.48636098  0.25385897  1
  O  O227  1  0.58534421  0.48640124  0.25390681  1
  O  O228  1  0.15365767  0.46148173  0.75532995  1
  O  O229  1  0.65374935  0.47728779  0.75694735  1
  O  O230  1  0.08573258  0.68338219  0.75453529  1
  O  O231  1  0.58253674  0.68599966  0.75753585  1
  O  O232  1  0.25943386  0.82184960  0.75367389  1
  O  O233  1  0.76176140  0.82687684  0.75771176  1
