# generated using pymatgen
data_Na4Mg(BiO3)2
_symmetry_space_group_name_H-M   'P 1'
_cell_length_a   6.33245727
_cell_length_b   6.33245727
_cell_length_c   6.32935563
_cell_angle_alpha   78.09463434
_cell_angle_beta   101.90536566
_cell_angle_gamma   62.63043759
_symmetry_Int_Tables_number   1
_chemical_formula_structural   Na4Mg(BiO3)2
_chemical_formula_sum   'Na4 Mg1 Bi2 O6'
_cell_volume   206.88078061
_cell_formula_units_Z   1
loop_
 _symmetry_equiv_pos_site_id
 _symmetry_equiv_pos_as_xyz
  1  'x, y, z'
loop_
 _atom_site_type_symbol
 _atom_site_label
 _atom_site_symmetry_multiplicity
 _atom_site_fract_x
 _atom_site_fract_y
 _atom_site_fract_z
 _atom_site_occupancy
  Na  Na0  1  0.10485600  0.18666900  0.48916300  1
  Na  Na1  1  0.81333100  0.89514400  0.48916300  1
  Na  Na2  1  0.46658700  0.53341300  0.43012600  1
  Na  Na3  1  0.09269800  0.90730200  0.97233100  1
  Mg  Mg4  1  0.66161200  0.33838800  0.89203100  1
  Bi  Bi5  1  0.65657900  0.74290200  0.00878000  1
  Bi  Bi6  1  0.25709800  0.34342100  0.00878000  1
  O  O7  1  0.31977600  0.68022400  0.75755700  1
  O  O8  1  0.08171300  0.55906800  0.22204300  1
  O  O9  1  0.44093200  0.91828700  0.22204300  1
  O  O10  1  0.92229900  0.36609700  0.78380900  1
  O  O11  1  0.63390300  0.07770100  0.78380900  1
  O  O12  1  0.71528300  0.28471700  0.22161600  1
