# generated using pymatgen
data_Na3MgZr(PO4)3
_symmetry_space_group_name_H-M   'P 1'
_cell_length_a   9.06368584
_cell_length_b   9.05004713
_cell_length_c   22.33162111
_cell_angle_alpha   89.99999999
_cell_angle_beta   90.20209512
_cell_angle_gamma   119.95023756
_symmetry_Int_Tables_number   1
_chemical_formula_structural   Na3MgZr(PO4)3
_chemical_formula_sum   'Na18 Mg6 Zr6 P18 O72'
_cell_volume   1587.15931589
_cell_formula_units_Z   6
loop_
 _symmetry_equiv_pos_site_id
 _symmetry_equiv_pos_as_xyz
  1  'x, y, z'
loop_
 _atom_site_type_symbol
 _atom_site_label
 _atom_site_symmetry_multiplicity
 _atom_site_fract_x
 _atom_site_fract_y
 _atom_site_fract_z
 _atom_site_occupancy
  Na  Na0  1  0.97907166  0.96081853  0.49090914  1
  Na  Na1  1  0.97907166  0.01825312  0.99090914  1
  Na  Na2  1  0.66659899  0.33875552  0.82408957  1
  Na  Na3  1  0.66659899  0.32784246  0.32408957  1
  Na  Na4  1  0.32730386  0.66049087  0.15743863  1
  Na  Na5  1  0.32730386  0.66681399  0.65743863  1
  Na  Na6  1  0.37125095  0.36082868  0.24437886  1
  Na  Na7  1  0.98851443  0.63348527  0.24467416  1
  Na  Na8  1  0.98851443  0.35502917  0.74467416  1
  Na  Na9  1  0.37125095  0.01042227  0.74437886  1
  Na  Na10  1  0.30845665  0.34380316  0.57769670  1
  Na  Na11  1  0.65745233  0.96558852  0.57791816  1
  Na  Na12  1  0.30845665  0.96465248  0.07769670  1
  Na  Na13  1  0.65745233  0.69186281  0.07791816  1
  Na  Na14  1  0.97821477  0.68137902  0.91051225  1
  Na  Na15  1  0.32341317  0.29681727  0.91204126  1
  Na  Na16  1  0.97821477  0.29683675  0.41051225  1
  Na  Na17  1  0.32341317  0.02659689  0.41204126  1
  Mg  Mg18  1  0.99135911  0.99377023  0.35063162  1
  Mg  Mg19  1  0.99135911  0.99758888  0.85063162  1
  Mg  Mg20  1  0.66920340  0.34218063  0.68407597  1
  Mg  Mg21  1  0.66920340  0.32702177  0.18407597  1
  Mg  Mg22  1  0.33034418  0.66175817  0.01763338  1
  Mg  Mg23  1  0.33034418  0.66858701  0.51763338  1
  Zr  Zr24  1  0.99652780  0.99157729  0.64842428  1
  Zr  Zr25  1  0.99652780  0.00495051  0.14842428  1
  Zr  Zr26  1  0.67218332  0.32703504  0.98152658  1
  Zr  Zr27  1  0.67218332  0.34514728  0.48152658  1
  Zr  Zr28  1  0.34366719  0.67333860  0.31504486  1
  Zr  Zr29  1  0.34366719  0.67032959  0.81504486  1
  P  P30  1  0.29695040  0.00363334  0.25251285  1
  P  P31  1  0.70616192  0.70178649  0.24946438  1
  P  P32  1  0.99769977  0.29821804  0.25594853  1
  P  P33  1  0.29695040  0.29331706  0.75251285  1
  P  P34  1  0.99769977  0.69948173  0.75594853  1
  P  P35  1  0.70616192  0.00437543  0.74946438  1
  P  P36  1  0.96650029  0.33632760  0.58665053  1
  P  P37  1  0.37321361  0.03779636  0.58587783  1
  P  P38  1  0.66005118  0.62786219  0.58583474  1
  P  P39  1  0.96650029  0.63017169  0.08665053  1
  P  P40  1  0.66005118  0.03218799  0.08583474  1
  P  P41  1  0.37321361  0.33541624  0.08587783  1
  P  P42  1  0.63528102  0.67099813  0.92290539  1
  P  P43  1  0.04294796  0.37247544  0.91566199  1
  P  P44  1  0.33076954  0.96362937  0.91919894  1
  P  P45  1  0.63528102  0.96428389  0.42290539  1
  P  P46  1  0.33076954  0.36714117  0.41919894  1
  P  P47  1  0.04294796  0.67047351  0.41566199  1
  O  O48  1  0.20999501  0.02244316  0.30828591  1
  O  O49  1  0.82101426  0.79691476  0.30173176  1
  O  O50  1  0.98561764  0.20390566  0.31386964  1
  O  O51  1  0.20999501  0.18755185  0.80828591  1
  O  O52  1  0.98561764  0.78171198  0.81386964  1
  O  O53  1  0.82101426  0.02409950  0.80173176  1
  O  O54  1  0.78503036  0.98274803  0.68980425  1
  O  O55  1  0.18002247  0.20290799  0.69612446  1
  O  O56  1  0.01733958  0.81943194  0.70193118  1
  O  O57  1  0.78503036  0.80228233  0.18980425  1
  O  O58  1  0.01733958  0.19790764  0.20193118  1
  O  O59  1  0.18002247  0.97711448  0.19612446  1
  O  O60  1  0.87973822  0.34830781  0.64334716  1
  O  O61  1  0.47791047  0.12448819  0.64215130  1
  O  O62  1  0.64024671  0.51737916  0.63943934  1
  O  O63  1  0.87973822  0.53142941  0.14334716  1
  O  O64  1  0.64024671  0.12286655  0.13943934  1
  O  O65  1  0.47791047  0.35342128  0.14215130  1
  O  O66  1  0.46501621  0.30953810  0.03018038  1
  O  O67  1  0.85295343  0.53681822  0.03025089  1
  O  O68  1  0.68212953  0.13864385  0.02763665  1
  O  O69  1  0.46501621  0.15547710  0.53018038  1
  O  O70  1  0.68212953  0.54348468  0.52763665  1
  O  O71  1  0.85295343  0.31613420  0.53025089  1
  O  O72  1  0.55337709  0.68338203  0.98080192  1
  O  O73  1  0.15852510  0.46622829  0.96853870  1
  O  O74  1  0.31618390  0.85933463  0.97495397  1
  O  O75  1  0.55337709  0.86999606  0.48080192  1
  O  O76  1  0.31618390  0.45685027  0.47495397  1
  O  O77  1  0.15852510  0.69229781  0.46853870  1
  O  O78  1  0.12380936  0.64363764  0.35705722  1
  O  O79  1  0.51342333  0.86653266  0.36875495  1
  O  O80  1  0.34800529  0.47530778  0.36192028  1
  O  O81  1  0.12380936  0.48017272  0.85705722  1
  O  O82  1  0.34800529  0.87269851  0.86192028  1
  O  O83  1  0.51342333  0.64689167  0.86875495  1
  O  O84  1  0.01946663  0.82557561  0.40996619  1
  O  O85  1  0.81459271  0.99314011  0.41443922  1
  O  O86  1  0.17345274  0.18698308  0.41443534  1
  O  O87  1  0.01946663  0.19389102  0.90996619  1
  O  O88  1  0.17345274  0.98646966  0.91443534  1
  O  O89  1  0.81459271  0.82145260  0.91443922  1
  O  O90  1  0.97557460  0.16562997  0.58656327  1
  O  O91  1  0.19509674  0.02786431  0.58792924  1
  O  O92  1  0.82262745  0.80981954  0.58756620  1
  O  O93  1  0.97557460  0.80994463  0.08656327  1
  O  O94  1  0.82262745  0.01280791  0.08756620  1
  O  O95  1  0.19509674  0.16723243  0.08792924  1
  O  O96  1  0.68098077  0.16075717  0.74551787  1
  O  O97  1  0.47298860  0.31146534  0.74554781  1
  O  O98  1  0.84893023  0.51792003  0.74785701  1
  O  O99  1  0.68098077  0.52022260  0.24551787  1
  O  O100  1  0.84893023  0.33100920  0.24785701  1
  O  O101  1  0.47298860  0.16152226  0.24554781  1
  O  O102  1  0.64426908  0.50042657  0.92149158  1
  O  O103  1  0.86674802  0.36608007  0.92037465  1
  O  O104  1  0.49162141  0.14742271  0.91976810  1
  O  O105  1  0.64426908  0.14384151  0.42149158  1
  O  O106  1  0.49162141  0.34419770  0.41976810  1
  O  O107  1  0.86674802  0.50066696  0.42037465  1
  O  O108  1  0.35320063  0.49258686  0.07891723  1
  O  O109  1  0.14836280  0.66285829  0.08028764  1
  O  O110  1  0.50372838  0.85206508  0.07987741  1
  O  O111  1  0.35320063  0.86061477  0.57891723  1
  O  O112  1  0.50372838  0.65166430  0.57987741  1
  O  O113  1  0.14836280  0.48550551  0.58028764  1
  O  O114  1  0.30703427  0.83556573  0.25432886  1
  O  O115  1  0.52303689  0.68017273  0.25356784  1
  O  O116  1  0.16951259  0.47617772  0.25373399  1
  O  O117  1  0.30703427  0.47146954  0.75432886  1
  O  O118  1  0.16951259  0.69333588  0.75373399  1
  O  O119  1  0.52303689  0.84286516  0.75356784  1
