# generated using pymatgen
data_Na2Zn4SiGe4S11O48
_symmetry_space_group_name_H-M   'P 1'
_cell_length_a   17.07128312
_cell_length_b   8.53808109
_cell_length_c   22.19939832
_cell_angle_alpha   90.08653547
_cell_angle_beta   89.95755216
_cell_angle_gamma   120.06823465
_symmetry_Int_Tables_number   1
_chemical_formula_structural   Na2Zn4SiGe4S11O48
_chemical_formula_sum   'Na6 Zn12 Si3 Ge12 S33 O144'
_cell_volume   2800.26258891
_cell_formula_units_Z   3
loop_
 _symmetry_equiv_pos_site_id
 _symmetry_equiv_pos_as_xyz
  1  'x, y, z'
loop_
 _atom_site_type_symbol
 _atom_site_label
 _atom_site_symmetry_multiplicity
 _atom_site_fract_x
 _atom_site_fract_y
 _atom_site_fract_z
 _atom_site_occupancy
  Na  Na0  1  0.99721655  0.98631615  0.49548346  1
  Na  Na1  1  0.49862037  0.00414147  0.99950642  1
  Na  Na2  1  0.33337761  0.32717499  0.83678388  1
  Na  Na3  1  0.83951285  0.34169158  0.83261983  1
  Na  Na4  1  0.33702657  0.33090327  0.33049097  1
  Na  Na5  1  0.84004908  0.34234542  0.33758202  1
  Zn  Zn6  1  0.00063408  0.98715439  0.35728458  1
  Zn  Zn7  1  0.00378017  0.00310397  0.85704919  1
  Zn  Zn8  1  0.33092085  0.33464097  0.68118675  1
  Zn  Zn9  1  0.83681092  0.33588491  0.68035678  1
  Zn  Zn10  1  0.33941762  0.33058562  0.18556094  1
  Zn  Zn11  1  0.83474412  0.33184020  0.18205385  1
  Zn  Zn12  1  0.33914627  0.33255000  0.98140003  1
  Zn  Zn13  1  0.83679465  0.33708759  0.98578380  1
  Zn  Zn14  1  0.33607629  0.33632166  0.48371717  1
  Zn  Zn15  1  0.83785387  0.34163464  0.48056548  1
  Zn  Zn16  1  0.66430384  0.66565892  0.52134085  1
  Zn  Zn17  1  0.16234162  0.66300244  0.80877648  1
  Si  Si18  1  0.50078803  0.29233564  0.25269658  1
  Si  Si19  1  0.52316628  0.38117212  0.91399587  1
  Si  Si20  1  0.02125684  0.66456015  0.41764236  1
  Ge  Ge21  1  0.49795757  0.00664941  0.35357007  1
  Ge  Ge22  1  0.49833044  0.00884613  0.85416388  1
  Ge  Ge23  1  0.99864263  0.99435210  0.65029888  1
  Ge  Ge24  1  0.50075709  0.00483311  0.64356259  1
  Ge  Ge25  1  0.00115147  0.00056181  0.14926603  1
  Ge  Ge26  1  0.50130649  0.01064292  0.15243298  1
  Ge  Ge27  1  0.16514810  0.66507554  0.01776299  1
  Ge  Ge28  1  0.66312297  0.65036483  0.01927926  1
  Ge  Ge29  1  0.16358651  0.66926065  0.51944015  1
  Ge  Ge30  1  0.15918892  0.66068319  0.31373971  1
  Ge  Ge31  1  0.66502030  0.65716688  0.31220475  1
  Ge  Ge32  1  0.66556395  0.66349945  0.81350050  1
  S  S33  1  0.14440263  0.99520691  0.25006926  1
  S  S34  1  0.64370292  0.99652704  0.25174428  1
  S  S35  1  0.35198079  0.71377466  0.25299012  1
  S  S36  1  0.85358791  0.71047013  0.24963101  1
  S  S37  1  0.00327465  0.29230020  0.25093655  1
  S  S38  1  0.14505703  0.28710059  0.74908555  1
  S  S39  1  0.64362260  0.29054433  0.75139504  1
  S  S40  1  0.99829995  0.70864179  0.75013130  1
  S  S41  1  0.50334590  0.72127960  0.75214885  1
  S  S42  1  0.35839971  0.00025960  0.74897644  1
  S  S43  1  0.85056504  0.99276313  0.75286500  1
  S  S44  1  0.47995735  0.33091454  0.58556403  1
  S  S45  1  0.98571409  0.33062218  0.58428837  1
  S  S46  1  0.18393617  0.03225925  0.58342998  1
  S  S47  1  0.68458832  0.04139327  0.58535814  1
  S  S48  1  0.33198249  0.63504064  0.58265614  1
  S  S49  1  0.83491625  0.63495929  0.58621847  1
  S  S50  1  0.48530364  0.63983835  0.08415845  1
  S  S51  1  0.98489951  0.63766837  0.08382833  1
  S  S52  1  0.33209737  0.02657196  0.08284348  1
  S  S53  1  0.83220310  0.02744026  0.08313758  1
  S  S54  1  0.18432310  0.33407431  0.08355798  1
  S  S55  1  0.68400746  0.33207411  0.08320142  1
  S  S56  1  0.31158584  0.66848061  0.91485936  1
  S  S57  1  0.80918430  0.66737840  0.91681570  1
  S  S58  1  0.02128047  0.37759736  0.91755066  1
  S  S59  1  0.16577408  0.95239424  0.91726970  1
  S  S60  1  0.66649360  0.95311062  0.91472395  1
  S  S61  1  0.31215139  0.95171367  0.41529542  1
  S  S62  1  0.80579517  0.94816480  0.41445212  1
  S  S63  1  0.17010491  0.38751554  0.41652327  1
  S  S64  1  0.66299550  0.36978826  0.41498952  1
  S  S65  1  0.52088520  0.67469443  0.41278888  1
  O  O66  1  0.10431373  0.02437313  0.30319177  1
  O  O67  1  0.60109420  0.02701801  0.30569642  1
  O  O68  1  0.41168963  0.79241364  0.30704680  1
  O  O69  1  0.90971545  0.78904993  0.30228375  1
  O  O70  1  0.48084752  0.15699228  0.31032944  1
  O  O71  1  0.98964746  0.18314733  0.30377994  1
  O  O72  1  0.10480860  0.17572175  0.80243393  1
  O  O73  1  0.60184170  0.17328443  0.80622879  1
  O  O74  1  0.48685087  0.80413149  0.80794327  1
  O  O75  1  0.98210412  0.79011851  0.80295792  1
  O  O76  1  0.41679058  0.03568509  0.80530414  1
  O  O77  1  0.90508049  0.02189744  0.80623997  1
  O  O78  1  0.40305106  0.96957960  0.69503151  1
  O  O79  1  0.88912026  0.95795254  0.69660834  1
  O  O80  1  0.08592155  0.20034273  0.69239038  1
  O  O81  1  0.58574566  0.21042917  0.69712449  1
  O  O82  1  0.01272559  0.82231183  0.69309719  1
  O  O83  1  0.51863701  0.83440286  0.69739931  1
  O  O84  1  0.39284214  0.82762056  0.19753369  1
  O  O85  1  0.89427013  0.82578353  0.19284024  1
  O  O86  1  0.01840104  0.21085342  0.19362688  1
  O  O87  1  0.52266016  0.20513674  0.19198925  1
  O  O88  1  0.08472466  0.95461324  0.19393003  1
  O  O89  1  0.58530494  0.95654638  0.19593602  1
  O  O90  1  0.43989196  0.35907097  0.64012584  1
  O  O91  1  0.94935417  0.36482115  0.63895010  1
  O  O92  1  0.23676654  0.10884912  0.63801914  1
  O  O93  1  0.73625938  0.11971750  0.64095099  1
  O  O94  1  0.31326613  0.52616415  0.63704269  1
  O  O95  1  0.82302579  0.53159036  0.64135750  1
  O  O96  1  0.44782685  0.53037296  0.13770243  1
  O  O97  1  0.94717244  0.52511145  0.13718714  1
  O  O98  1  0.31476905  0.10010396  0.13667797  1
  O  O99  1  0.81265847  0.10050858  0.13702917  1
  O  O100  1  0.23945284  0.37137305  0.13756787  1
  O  O101  1  0.73650830  0.35837443  0.13732777  1
  O  O102  1  0.22129505  0.29730015  0.02969703  1
  O  O103  1  0.72144715  0.30118512  0.02799736  1
  O  O104  1  0.43077583  0.57071343  0.02959680  1
  O  O105  1  0.92926528  0.56621893  0.02971871  1
  O  O106  1  0.35278813  0.13753199  0.02879669  1
  O  O107  1  0.85091307  0.13947645  0.02937757  1
  O  O108  1  0.22030192  0.14125535  0.52891621  1
  O  O109  1  0.72304109  0.15671980  0.53240016  1
  O  O110  1  0.35056001  0.56048618  0.52903146  1
  O  O111  1  0.85665874  0.56362957  0.53275615  1
  O  O112  1  0.42292349  0.28985329  0.53171097  1
  O  O113  1  0.93049141  0.29147504  0.53049709  1
  O  O114  1  0.27471883  0.70926017  0.97112130  1
  O  O115  1  0.76795134  0.70175210  0.97224640  1
  O  O116  1  0.07943017  0.46194630  0.97457778  1
  O  O117  1  0.58630367  0.46313094  0.97513406  1
  O  O118  1  0.15213715  0.83873509  0.97478796  1
  O  O119  1  0.65025427  0.84100992  0.96953232  1
  O  O120  1  0.27372761  0.84174483  0.47065284  1
  O  O121  1  0.76551891  0.83586614  0.46754449  1
  O  O122  1  0.15988646  0.47407891  0.47277405  1
  O  O123  1  0.64532753  0.44712464  0.46781389  1
  O  O124  1  0.08791970  0.70036061  0.47690661  1
  O  O125  1  0.57400413  0.70934212  0.46698638  1
  O  O126  1  0.06658642  0.62704266  0.35572955  1
  O  O127  1  0.56272659  0.64245449  0.35772241  1
  O  O128  1  0.25618627  0.87045273  0.35992953  1
  O  O129  1  0.74932383  0.86072532  0.35616757  1
  O  O130  1  0.18954315  0.50343846  0.36044517  1
  O  O131  1  0.68066785  0.48563920  0.35924419  1
  O  O132  1  0.06183973  0.48979520  0.86438161  1
  O  O133  1  0.57010829  0.50785450  0.85423643  1
  O  O134  1  0.18286864  0.87198784  0.86425325  1
  O  O135  1  0.68492897  0.87695634  0.85910499  1
  O  O136  1  0.26027696  0.64811071  0.86060697  1
  O  O137  1  0.75135466  0.63440066  0.86100366  1
  O  O138  1  0.02026459  0.85051093  0.41712996  1
  O  O139  1  0.51336330  0.84261921  0.40346412  1
  O  O140  1  0.40127183  0.95841022  0.40980003  1
  O  O141  1  0.89632663  0.97223434  0.40768010  1
  O  O142  1  0.08560263  0.21744656  0.41180527  1
  O  O143  1  0.57867033  0.18638075  0.40761733  1
  O  O144  1  0.01419875  0.20120574  0.91463025  1
  O  O145  1  0.51930410  0.18128321  0.90799812  1
  O  O146  1  0.08189856  0.95770545  0.91483771  1
  O  O147  1  0.58009711  0.95765349  0.90815005  1
  O  O148  1  0.40613320  0.83819410  0.91089593  1
  O  O149  1  0.89622266  0.82873479  0.91114189  1
  O  O150  1  0.48668830  0.15944342  0.59269386  1
  O  O151  1  0.99515563  0.16259273  0.59245675  1
  O  O152  1  0.09008157  0.00702170  0.59056756  1
  O  O153  1  0.59005856  0.02650077  0.59254535  1
  O  O154  1  0.41513211  0.81940492  0.59165300  1
  O  O155  1  0.92169778  0.82587647  0.59259065  1
  O  O156  1  0.49649109  0.82805863  0.09322807  1
  O  O157  1  0.99588728  0.82327195  0.09285302  1
  O  O158  1  0.41419378  0.00076915  0.09061215  1
  O  O159  1  0.91419785  0.00655022  0.09239070  1
  O  O160  1  0.08994141  0.17060531  0.09271645  1
  O  O161  1  0.59034318  0.16557996  0.08820445  1
  O  O162  1  0.35332146  0.16499135  0.74423505  1
  O  O163  1  0.83664632  0.14725614  0.74490666  1
  O  O164  1  0.23479093  0.30286800  0.74166829  1
  O  O165  1  0.73250480  0.30906295  0.74701392  1
  O  O166  1  0.42397990  0.54201692  0.74754459  1
  O  O167  1  0.91737405  0.52739716  0.74352560  1
  O  O168  1  0.33908235  0.53398294  0.24595773  1
  O  O169  1  0.84044389  0.52878827  0.24060338  1
  O  O170  1  0.41349105  0.31251373  0.24784453  1
  O  O171  1  0.92525594  0.31844447  0.24285597  1
  O  O172  1  0.23235464  0.15528419  0.24055050  1
  O  O173  1  0.73206574  0.15894366  0.24493117  1
  O  O174  1  0.32095458  0.51060078  0.92335847  1
  O  O175  1  0.81296821  0.50032014  0.92222882  1
  O  O176  1  0.42552810  0.35848679  0.91846638  1
  O  O177  1  0.93177437  0.36356483  0.92504977  1
  O  O178  1  0.24498668  0.13282842  0.92493446  1
  O  O179  1  0.74431744  0.13439025  0.92057848  1
  O  O180  1  0.32332531  0.13243391  0.42038219  1
  O  O181  1  0.80732236  0.12042940  0.41685652  1
  O  O182  1  0.25015354  0.36678129  0.42104665  1
  O  O183  1  0.74133061  0.34603217  0.41847232  1
  O  O184  1  0.42992226  0.51429519  0.41665926  1
  O  O185  1  0.92557024  0.48164105  0.41977252  1
  O  O186  1  0.17218553  0.49759538  0.07412026  1
  O  O187  1  0.67491509  0.49859242  0.07814543  1
  O  O188  1  0.07748431  0.65985352  0.07519041  1
  O  O189  1  0.57906721  0.66627424  0.07528007  1
  O  O190  1  0.25099363  0.84069273  0.07409445  1
  O  O191  1  0.75020492  0.84189278  0.07340808  1
  O  O192  1  0.17699067  0.84990617  0.57744868  1
  O  O193  1  0.66871658  0.85888446  0.57836628  1
  O  O194  1  0.25206382  0.66179522  0.57377069  1
  O  O195  1  0.75858550  0.66347504  0.57903395  1
  O  O196  1  0.07959502  0.48939074  0.57676710  1
  O  O197  1  0.57054824  0.48413081  0.57830320  1
  O  O198  1  0.15348854  0.82896433  0.25413410  1
  O  O199  1  0.65146673  0.83283622  0.25819629  1
  O  O200  1  0.26389697  0.70958697  0.26044298  1
  O  O201  1  0.76476271  0.70394968  0.25477955  1
  O  O202  1  0.09068272  0.47291296  0.25330834  1
  O  O203  1  0.59387285  0.48716827  0.26137953  1
  O  O204  1  0.15160821  0.46349179  0.75165063  1
  O  O205  1  0.64982791  0.47067340  0.75723573  1
  O  O206  1  0.08110561  0.69924588  0.75194262  1
  O  O207  1  0.58903027  0.71638531  0.75788995  1
  O  O208  1  0.27219729  0.83645953  0.75439782  1
  O  O209  1  0.75812855  0.81864312  0.75807468  1
