# generated using pymatgen
data_Na4Zn2Ga2SiS5O24
_symmetry_space_group_name_H-M   'P 1'
_cell_length_a   8.79181532
_cell_length_b   8.75942671
_cell_length_c   22.26026443
_cell_angle_alpha   90.46088027
_cell_angle_beta   89.30989993
_cell_angle_gamma   119.91574807
_symmetry_Int_Tables_number   1
_chemical_formula_structural   Na4Zn2Ga2SiS5O24
_chemical_formula_sum   'Na12 Zn6 Ga6 Si3 S15 O72'
_cell_volume   1485.76652661
_cell_formula_units_Z   3
loop_
 _symmetry_equiv_pos_site_id
 _symmetry_equiv_pos_as_xyz
  1  'x, y, z'
loop_
 _atom_site_type_symbol
 _atom_site_label
 _atom_site_symmetry_multiplicity
 _atom_site_fract_x
 _atom_site_fract_y
 _atom_site_fract_z
 _atom_site_occupancy
  Na  Na0  1  0.99660959  0.62976613  0.24355857  1
  Na  Na1  1  0.99612585  0.35968110  0.75443343  1
  Na  Na2  1  0.37342966  0.99579216  0.75020304  1
  Na  Na3  1  0.66119396  0.97079039  0.58733117  1
  Na  Na4  1  0.67530019  0.69045900  0.08021807  1
  Na  Na5  1  0.33586396  0.03699890  0.42021217  1
  Na  Na6  1  0.00903003  0.00195776  0.50122927  1
  Na  Na7  1  0.00817076  0.99835318  0.00156747  1
  Na  Na8  1  0.66658601  0.33457858  0.83893863  1
  Na  Na9  1  0.66663578  0.33354143  0.33161661  1
  Na  Na10  1  0.32426064  0.66408784  0.16358052  1
  Na  Na11  1  0.34360813  0.67176611  0.66697074  1
  Zn  Zn12  1  0.99472674  0.00237968  0.34895863  1
  Zn  Zn13  1  0.67443912  0.33598072  0.17599597  1
  Zn  Zn14  1  0.67861384  0.34511107  0.98786834  1
  Zn  Zn15  1  0.65609775  0.32906143  0.48671437  1
  Zn  Zn16  1  0.33834644  0.66334140  0.31498088  1
  Zn  Zn17  1  0.35642925  0.68064658  0.81757790  1
  Ga  Ga18  1  0.98371047  0.00045079  0.85327407  1
  Ga  Ga19  1  0.00179631  0.99387375  0.64920660  1
  Ga  Ga20  1  0.00713291  0.99915782  0.14747957  1
  Ga  Ga21  1  0.65886965  0.31250334  0.68135873  1
  Ga  Ga22  1  0.31601288  0.66677729  0.01729980  1
  Ga  Ga23  1  0.32766166  0.67202515  0.51798712  1
  Si  Si24  1  0.71218443  0.99823457  0.74756694  1
  Si  Si25  1  0.36064770  0.03426552  0.58197209  1
  Si  Si26  1  0.96781946  0.63227767  0.08493061  1
  S  S27  1  0.29703659  0.00511690  0.25089187  1
  S  S28  1  0.70490351  0.70823644  0.25010387  1
  S  S29  1  0.99854283  0.28718442  0.24953787  1
  S  S30  1  0.29189960  0.28981097  0.75016543  1
  S  S31  1  0.99185811  0.70622773  0.75018600  1
  S  S32  1  0.96483492  0.33796752  0.58270665  1
  S  S33  1  0.66615363  0.62160914  0.58377380  1
  S  S34  1  0.66624016  0.03652683  0.08278149  1
  S  S35  1  0.36785851  0.33139798  0.08284765  1
  S  S36  1  0.62633054  0.66598520  0.91765241  1
  S  S37  1  0.04337340  0.37279373  0.91457991  1
  S  S38  1  0.32952663  0.96476723  0.91520726  1
  S  S39  1  0.62887777  0.95785953  0.41699625  1
  S  S40  1  0.33379108  0.37976862  0.41774730  1
  S  S41  1  0.03659694  0.66196759  0.41622628  1
  O  O42  1  0.21999667  0.02904115  0.30806551  1
  O  O43  1  0.81778580  0.78895359  0.30352773  1
  O  O44  1  0.97743274  0.18695424  0.30490072  1
  O  O45  1  0.21634515  0.17408743  0.80393241  1
  O  O46  1  0.96867839  0.78874437  0.80523936  1
  O  O47  1  0.84359595  0.04624022  0.80496079  1
  O  O48  1  0.80426009  0.97604518  0.68620738  1
  O  O49  1  0.18192330  0.20919705  0.69609869  1
  O  O50  1  0.03305744  0.82113738  0.69655686  1
  O  O51  1  0.78813430  0.81601880  0.19486949  1
  O  O52  1  0.02398500  0.20155687  0.19518174  1
  O  O53  1  0.17816540  0.97293072  0.19884233  1
  O  O54  1  0.88979801  0.37201525  0.63937182  1
  O  O55  1  0.49067932  0.11613904  0.64140999  1
  O  O56  1  0.64207776  0.51431626  0.63858421  1
  O  O57  1  0.89430308  0.52478543  0.14768099  1
  O  O58  1  0.62714540  0.10625515  0.13775982  1
  O  O59  1  0.47612412  0.36518362  0.13732578  1
  O  O60  1  0.44044854  0.29349756  0.02863767  1
  O  O61  1  0.83610638  0.55546474  0.02848872  1
  O  O62  1  0.69372351  0.14124751  0.02855355  1
  O  O63  1  0.44049967  0.14386359  0.52079841  1
  O  O64  1  0.69942191  0.54922285  0.52892903  1
  O  O65  1  0.85240215  0.30683242  0.53040846  1
  O  O66  1  0.54358892  0.69514065  0.97287168  1
  O  O67  1  0.15573809  0.45821573  0.96782684  1
  O  O68  1  0.30058201  0.84963425  0.96812958  1
  O  O69  1  0.54656155  0.85104671  0.47335232  1
  O  O70  1  0.30895181  0.46536554  0.47293433  1
  O  O71  1  0.15477229  0.69504322  0.46938310  1
  O  O72  1  0.11610480  0.63840970  0.36006131  1
  O  O73  1  0.51350295  0.87507444  0.36453359  1
  O  O74  1  0.35553522  0.48243397  0.36304418  1
  O  O75  1  0.12244545  0.47520333  0.85846503  1
  O  O76  1  0.35517991  0.88778370  0.85850586  1
  O  O77  1  0.52307622  0.64314784  0.86319375  1
  O  O78  1  0.02750968  0.82816126  0.41314272  1
  O  O79  1  0.80276377  0.97250611  0.41223607  1
  O  O80  1  0.17593022  0.19930638  0.41495478  1
  O  O81  1  0.03307951  0.19484307  0.91175585  1
  O  O82  1  0.16495183  0.97769640  0.90994671  1
  O  O83  1  0.80564101  0.83079719  0.91299700  1
  O  O84  1  0.97649985  0.17497803  0.58909474  1
  O  O85  1  0.16718354  0.01363970  0.59317080  1
  O  O86  1  0.81962441  0.80469687  0.58914127  1
  O  O87  1  0.98142344  0.82974088  0.09203557  1
  O  O88  1  0.82696275  0.01934085  0.09041904  1
  O  O89  1  0.18685504  0.17963948  0.09128220  1
  O  O90  1  0.69690782  0.18352419  0.74343997  1
  O  O91  1  0.47123986  0.31160027  0.74304277  1
  O  O92  1  0.83182073  0.53073179  0.74251274  1
  O  O93  1  0.68675659  0.53024501  0.24555858  1
  O  O94  1  0.84047807  0.30716636  0.24613697  1
  O  O95  1  0.47168745  0.16082349  0.24308626  1
  O  O96  1  0.64459659  0.50888135  0.92182986  1
  O  O97  1  0.86585596  0.34918581  0.92078505  1
  O  O98  1  0.48611414  0.13965814  0.92282212  1
  O  O99  1  0.64530096  0.13542879  0.42186973  1
  O  O100  1  0.49216292  0.35985621  0.42093343  1
  O  O101  1  0.86273657  0.50581863  0.42413200  1
  O  O102  1  0.36044480  0.49888054  0.07502697  1
  O  O103  1  0.16301888  0.65273297  0.07584591  1
  O  O104  1  0.51420360  0.85059496  0.07538102  1
  O  O105  1  0.35568542  0.84048767  0.57638786  1
  O  O106  1  0.50533652  0.63984675  0.57894501  1
  O  O107  1  0.14303748  0.49374738  0.57659449  1
  O  O108  1  0.30552628  0.83816775  0.25434069  1
  O  O109  1  0.53039827  0.69435500  0.25501767  1
  O  O110  1  0.15729900  0.46838549  0.25247837  1
  O  O111  1  0.30207942  0.46274782  0.75673203  1
  O  O112  1  0.14673021  0.67971480  0.75506375  1
  O  O113  1  0.51286773  0.83339691  0.75212458  1
