# generated using pymatgen
data_Na4TaAl3(PO4)6
_symmetry_space_group_name_H-M   'P 1'
_cell_length_a   8.56356837
_cell_length_b   8.55733038
_cell_length_c   21.80444419
_cell_angle_alpha   89.99079463
_cell_angle_beta   90.09096504
_cell_angle_gamma   119.98046576
_symmetry_Int_Tables_number   1
_chemical_formula_structural   Na4TaAl3(PO4)6
_chemical_formula_sum   'Na12 Ta3 Al9 P18 O72'
_cell_volume   1384.05551842
_cell_formula_units_Z   3
loop_
 _symmetry_equiv_pos_site_id
 _symmetry_equiv_pos_as_xyz
  1  'x, y, z'
loop_
 _atom_site_type_symbol
 _atom_site_label
 _atom_site_symmetry_multiplicity
 _atom_site_fract_x
 _atom_site_fract_y
 _atom_site_fract_z
 _atom_site_occupancy
  Na  Na0  1  0.63439221  0.99971756  0.25094393  1
  Na  Na1  1  0.36433089  0.36494235  0.25089971  1
  Na  Na2  1  0.00023409  0.63521957  0.25058716  1
  Na  Na3  1  0.30080854  0.33112609  0.58600889  1
  Na  Na4  1  0.03242790  0.69784312  0.58575428  1
  Na  Na5  1  0.66724800  0.69901808  0.08237178  1
  Na  Na6  1  0.98913043  0.99874672  0.49721695  1
  Na  Na7  1  0.01055908  0.00947059  0.99714717  1
  Na  Na8  1  0.66695335  0.33306499  0.82654839  1
  Na  Na9  1  0.66642123  0.33275040  0.33312159  1
  Na  Na10  1  0.32303428  0.66565118  0.16289989  1
  Na  Na11  1  0.34589452  0.67769968  0.66514908  1
  Ta  Ta12  1  0.66598220  0.33155846  0.97754713  1
  Ta  Ta13  1  0.66766192  0.33281931  0.47688806  1
  Ta  Ta14  1  0.33254473  0.66651630  0.80785756  1
  Al  Al15  1  0.00075046  0.00086062  0.35458008  1
  Al  Al16  1  0.99952959  0.00026598  0.85206630  1
  Al  Al17  1  0.99415485  0.99912904  0.64938851  1
  Al  Al18  1  0.00510514  0.00422317  0.14679503  1
  Al  Al19  1  0.66583101  0.33171797  0.68928036  1
  Al  Al20  1  0.66758947  0.33294448  0.18381347  1
  Al  Al21  1  0.32747238  0.66586901  0.01952100  1
  Al  Al22  1  0.33957858  0.67192104  0.51749759  1
  Al  Al23  1  0.33337617  0.66712850  0.31558310  1
  P  P24  1  0.28571461  0.00022643  0.25019863  1
  P  P25  1  0.71351170  0.71322394  0.24974845  1
  P  P26  1  0.99982429  0.28571854  0.25023896  1
  P  P27  1  0.28666800  0.27429231  0.74860133  1
  P  P28  1  0.98733843  0.71345528  0.74848789  1
  P  P29  1  0.72601560  0.01233226  0.74938573  1
  P  P30  1  0.95585883  0.32970497  0.58661806  1
  P  P31  1  0.37876522  0.03938777  0.58653002  1
  P  P32  1  0.66522268  0.62754770  0.58627720  1
  P  P33  1  0.96461132  0.62700948  0.08661901  1
  P  P34  1  0.66641650  0.04032861  0.08675757  1
  P  P35  1  0.36941383  0.33006741  0.08613233  1
  P  P36  1  0.62629414  0.67927542  0.91873025  1
  P  P37  1  0.05379301  0.37428560  0.91817023  1
  P  P38  1  0.31999716  0.94605519  0.91802042  1
  P  P39  1  0.62180824  0.94359998  0.41462285  1
  P  P40  1  0.32235769  0.37854870  0.41558014  1
  P  P41  1  0.05630564  0.67806489  0.41547560  1
  O  O42  1  0.20482738  0.04079083  0.30650225  1
  O  O43  1  0.83735970  0.79800550  0.30518004  1
  O  O44  1  0.95994099  0.16442698  0.30649048  1
  O  O45  1  0.19853830  0.16574777  0.80595016  1
  O  O46  1  0.96662019  0.80124509  0.80595742  1
  O  O47  1  0.83233669  0.03386261  0.80764233  1
  O  O48  1  0.80068264  0.97049736  0.69197367  1
  O  O49  1  0.17432733  0.20122494  0.68933058  1
  O  O50  1  0.02759105  0.82631063  0.68937656  1
  O  O51  1  0.79171774  0.82982907  0.19156836  1
  O  O52  1  0.03959325  0.20425544  0.19379785  1
  O  O53  1  0.16401550  0.95980970  0.19378068  1
  O  O54  1  0.86817650  0.37138215  0.63986037  1
  O  O55  1  0.49903046  0.13177090  0.64101415  1
  O  O56  1  0.62673563  0.49928116  0.63996033  1
  O  O57  1  0.87485939  0.50945871  0.14388526  1
  O  O58  1  0.63586614  0.12769486  0.14367840  1
  O  O59  1  0.49513445  0.36938134  0.14258115  1
  O  O60  1  0.46333345  0.30203313  0.02908465  1
  O  O61  1  0.83596258  0.53703417  0.03018331  1
  O  O62  1  0.69717678  0.16159107  0.02955088  1
  O  O63  1  0.46353195  0.16297750  0.52805173  1
  O  O64  1  0.70223930  0.53959441  0.52783538  1
  O  O65  1  0.83895083  0.30059270  0.52729662  1
  O  O66  1  0.53881107  0.69881020  0.97723230  1
  O  O67  1  0.16585507  0.46500264  0.97480272  1
  O  O68  1  0.30036317  0.83527533  0.97479362  1
  O  O69  1  0.53296492  0.83385341  0.47203093  1
  O  O70  1  0.30217850  0.46459489  0.47462008  1
  O  O71  1  0.16179750  0.69715398  0.47466700  1
  O  O72  1  0.13367875  0.64020552  0.35750529  1
  O  O73  1  0.50851384  0.86941087  0.35590224  1
  O  O74  1  0.36045443  0.49393491  0.35754574  1
  O  O75  1  0.13243574  0.49403394  0.86029145  1
  O  O76  1  0.36049163  0.86707772  0.86019097  1
  O  O77  1  0.50391790  0.63946191  0.86174983  1
  O  O78  1  0.02990636  0.84073049  0.40883896  1
  O  O79  1  0.81075208  0.97017288  0.40829729  1
  O  O80  1  0.15948624  0.18980072  0.40900123  1
  O  O81  1  0.02851257  0.18769540  0.90952114  1
  O  O82  1  0.15912230  0.97200165  0.90936583  1
  O  O83  1  0.81261118  0.84077383  0.91008572  1
  O  O84  1  0.97921409  0.16391381  0.59123491  1
  O  O85  1  0.18910828  0.02150871  0.59028650  1
  O  O86  1  0.83748124  0.81190325  0.59107576  1
  O  O87  1  0.97361517  0.81104430  0.09215474  1
  O  O88  1  0.83486474  0.02016960  0.09201319  1
  O  O89  1  0.18637471  0.16084372  0.09207809  1
  O  O90  1  0.69708086  0.17378964  0.74225767  1
  O  O91  1  0.47712487  0.30375189  0.74218655  1
  O  O92  1  0.82608390  0.52322788  0.74167403  1
  O  O93  1  0.68975058  0.52051822  0.24265593  1
  O  O94  1  0.83121593  0.30974696  0.24262403  1
  O  O95  1  0.47804899  0.16888564  0.24227642  1
  O  O96  1  0.64213405  0.50372103  0.92395134  1
  O  O97  1  0.86252791  0.35858793  0.92423655  1
  O  O98  1  0.49566661  0.13759387  0.92365196  1
  O  O99  1  0.64022992  0.13720207  0.42181783  1
  O  O100  1  0.49715564  0.35987873  0.42221463  1
  O  O101  1  0.86276022  0.50317716  0.42171103  1
  O  O102  1  0.35937946  0.50345874  0.07716305  1
  O  O103  1  0.14730606  0.64227097  0.07696301  1
  O  O104  1  0.49945563  0.85224061  0.07771301  1
  O  O105  1  0.35401570  0.85053567  0.57619680  1
  O  O106  1  0.49453127  0.64065455  0.57533184  1
  O  O107  1  0.14481677  0.49993680  0.57666061  1
  O  O108  1  0.30996809  0.83179540  0.25730203  1
  O  O109  1  0.52123695  0.68912153  0.25701786  1
  O  O110  1  0.16786161  0.47861893  0.25744001  1
  O  O111  1  0.30719439  0.46964303  0.75494783  1
  O  O112  1  0.16219969  0.69311830  0.75480782  1
  O  O113  1  0.53026826  0.83762309  0.75571735  1
