# generated using pymatgen
data_Na10Mg6Si3Sn2(S3O16)3
_symmetry_space_group_name_H-M   'P 1'
_cell_length_a   17.80600269
_cell_length_b   8.94160881
_cell_length_c   22.39850537
_cell_angle_alpha   90.14768443
_cell_angle_beta   89.78438302
_cell_angle_gamma   120.03844238
_symmetry_Int_Tables_number   1
_chemical_formula_structural   Na10Mg6Si3Sn2(S3O16)3
_chemical_formula_sum   'Na30 Mg18 Si9 Sn6 S27 O144'
_cell_volume   3087.16749903
_cell_formula_units_Z   3
loop_
 _symmetry_equiv_pos_site_id
 _symmetry_equiv_pos_as_xyz
  1  'x, y, z'
loop_
 _atom_site_type_symbol
 _atom_site_label
 _atom_site_symmetry_multiplicity
 _atom_site_fract_x
 _atom_site_fract_y
 _atom_site_fract_z
 _atom_site_occupancy
  Na  Na0  1  0.31581854  0.00108009  0.24381617  1
  Na  Na1  1  0.18876075  0.35812696  0.24926718  1
  Na  Na2  1  0.49711924  0.63595251  0.25465340  1
  Na  Na3  1  0.30868166  0.61674132  0.74001577  1
  Na  Na4  1  0.81514813  0.63103094  0.74322690  1
  Na  Na5  1  0.00229508  0.35226674  0.75315345  1
  Na  Na6  1  0.18241744  0.01657284  0.75665053  1
  Na  Na7  1  0.68942302  0.02114178  0.74903149  1
  Na  Na8  1  0.16382300  0.35243229  0.58998389  1
  Na  Na9  1  0.83011765  0.70005070  0.08117135  1
  Na  Na10  1  0.48252579  0.65144361  0.91778094  1
  Na  Na11  1  0.35286745  0.04270238  0.91765100  1
  Na  Na12  1  0.85490867  0.03966672  0.92169889  1
  Na  Na13  1  0.65973820  0.30308128  0.91701524  1
  Na  Na14  1  0.98097655  0.31099827  0.41616353  1
  Na  Na15  1  0.15877878  0.01590716  0.41570835  1
  Na  Na16  1  0.35507034  0.66906783  0.42316276  1
  Na  Na17  1  0.85207716  0.66255268  0.41606798  1
  Na  Na18  1  0.99368826  0.97103570  0.49811734  1
  Na  Na19  1  0.50465230  0.00206828  0.50075890  1
  Na  Na20  1  0.01075856  0.02241126  0.99969666  1
  Na  Na21  1  0.49958412  0.01609658  0.99858918  1
  Na  Na22  1  0.32811473  0.32861803  0.83471808  1
  Na  Na23  1  0.83471216  0.33261616  0.82813604  1
  Na  Na24  1  0.33401326  0.33417865  0.32832642  1
  Na  Na25  1  0.83047242  0.33438140  0.33373159  1
  Na  Na26  1  0.16214888  0.67317776  0.16157110  1
  Na  Na27  1  0.67843188  0.69735913  0.16207229  1
  Na  Na28  1  0.17516670  0.66391570  0.66126255  1
  Na  Na29  1  0.66299698  0.65087664  0.66108109  1
  Mg  Mg30  1  0.00065838  0.98577941  0.34900986  1
  Mg  Mg31  1  0.50385686  0.00142530  0.35184761  1
  Mg  Mg32  1  0.00551517  0.01371147  0.85026834  1
  Mg  Mg33  1  0.50334383  0.01692188  0.85034642  1
  Mg  Mg34  1  0.33295882  0.34458362  0.68011213  1
  Mg  Mg35  1  0.83049965  0.32329531  0.68347047  1
  Mg  Mg36  1  0.33044234  0.33681564  0.18366984  1
  Mg  Mg37  1  0.83240297  0.31913941  0.18096359  1
  Mg  Mg38  1  0.33045833  0.32919739  0.98236767  1
  Mg  Mg39  1  0.84092734  0.32384098  0.98962994  1
  Mg  Mg40  1  0.34386016  0.35549430  0.48844510  1
  Mg  Mg41  1  0.82959738  0.33167139  0.48204077  1
  Mg  Mg42  1  0.16463306  0.66339518  0.01668078  1
  Mg  Mg43  1  0.66367036  0.66448817  0.02094519  1
  Mg  Mg44  1  0.16929117  0.68091300  0.52011450  1
  Mg  Mg45  1  0.66377373  0.66417709  0.51671034  1
  Mg  Mg46  1  0.67060760  0.66781983  0.31812161  1
  Mg  Mg47  1  0.16551811  0.65474748  0.81800304  1
  Si  Si48  1  0.14782508  0.00442885  0.25089738  1
  Si  Si49  1  0.35313663  0.70575014  0.25594607  1
  Si  Si50  1  0.15167916  0.29762043  0.75028231  1
  Si  Si51  1  0.64773344  0.29157551  0.75096897  1
  Si  Si52  1  0.85067205  0.99823490  0.75687771  1
  Si  Si53  1  0.33354919  0.63990223  0.58235951  1
  Si  Si54  1  0.83059747  0.02999542  0.08240096  1
  Si  Si55  1  0.51713551  0.37094711  0.92089411  1
  Si  Si56  1  0.01684543  0.66347103  0.42064653  1
  Sn  Sn57  1  0.99411457  0.00257079  0.65271683  1
  Sn  Sn58  1  0.50034790  0.00631528  0.64538055  1
  Sn  Sn59  1  -0.00013070  0.00015313  0.14830105  1
  Sn  Sn60  1  0.49627609  0.99524505  0.15079549  1
  Sn  Sn61  1  0.16089884  0.67254716  0.31439956  1
  Sn  Sn62  1  0.66098932  0.64978418  0.81518975  1
  S  S63  1  0.64882585  0.00249837  0.25146437  1
  S  S64  1  0.84739921  0.69493692  0.25033359  1
  S  S65  1  0.99643840  0.29059460  0.25334050  1
  S  S66  1  0.50565012  0.29848154  0.25026518  1
  S  S67  1  0.00190449  0.70958844  0.75086001  1
  S  S68  1  0.49899605  0.70890659  0.75220155  1
  S  S69  1  0.35147669  0.00079555  0.75182397  1
  S  S70  1  0.48215521  0.33849441  0.58359232  1
  S  S71  1  0.97794509  0.32865892  0.58264238  1
  S  S72  1  0.18349090  0.03687630  0.58469304  1
  S  S73  1  0.68773077  0.03596501  0.58239349  1
  S  S74  1  0.83467443  0.63222369  0.58385662  1
  S  S75  1  0.47925613  0.62943536  0.08446365  1
  S  S76  1  0.98175003  0.62531335  0.08408947  1
  S  S77  1  0.33419288  0.03725872  0.08328299  1
  S  S78  1  0.18784485  0.34005904  0.08271041  1
  S  S79  1  0.68373654  0.32527871  0.08454895  1
  S  S80  1  0.31283378  0.66547192  0.91648201  1
  S  S81  1  0.81810589  0.66403511  0.91876961  1
  S  S82  1  0.01879823  0.37424155  0.91677906  1
  S  S83  1  0.16368994  0.95363910  0.91696948  1
  S  S84  1  0.66648858  0.96039973  0.91699684  1
  S  S85  1  0.31762913  0.97026739  0.41783079  1
  S  S86  1  0.81108267  0.95792944  0.41694756  1
  S  S87  1  0.16634100  0.37178946  0.41729595  1
  S  S88  1  0.66396065  0.37225902  0.41742082  1
  S  S89  1  0.52099584  0.66633417  0.41490587  1
  O  O90  1  0.10928992  0.04276011  0.31007767  1
  O  O91  1  0.60468587  0.02477729  0.30280627  1
  O  O92  1  0.41181519  0.79490704  0.31326564  1
  O  O93  1  0.90101950  0.78316538  0.30314464  1
  O  O94  1  0.49177085  0.18478910  0.30083952  1
  O  O95  1  0.98659001  0.18997464  0.30751350  1
  O  O96  1  0.10257988  0.15709094  0.80111250  1
  O  O97  1  0.61008461  0.17634633  0.81015596  1
  O  O98  1  0.48534152  0.78596607  0.80656475  1
  O  O99  1  0.98262587  0.78706756  0.80168505  1
  O  O100  1  0.40185530  0.01899255  0.80606094  1
  O  O101  1  0.90680829  0.02389336  0.81526830  1
  O  O102  1  0.38926361  0.95827070  0.69864916  1
  O  O103  1  0.88521071  0.93085267  0.69783780  1
  O  O104  1  0.09035960  0.22231159  0.68622386  1
  O  O105  1  0.58546218  0.19963305  0.69224592  1
  O  O106  1  0.02125960  0.82007867  0.69523050  1
  O  O107  1  0.51215934  0.81899524  0.69890787  1
  O  O108  1  0.39039298  0.84230174  0.19716180  1
  O  O109  1  0.88680675  0.80164376  0.19418233  1
  O  O110  1  0.01098266  0.20917315  0.19930718  1
  O  O111  1  0.52341891  0.22770366  0.19360392  1
  O  O112  1  0.08639579  0.97425456  0.19208324  1
  O  O113  1  0.59171598  0.96512229  0.19539685  1
  O  O114  1  0.43910074  0.34817460  0.63818750  1
  O  O115  1  0.93599943  0.33857517  0.63791966  1
  O  O116  1  0.23232194  0.12219249  0.63927015  1
  O  O117  1  0.73335527  0.11044349  0.63923466  1
  O  O118  1  0.32023401  0.52568962  0.64185779  1
  O  O119  1  0.82917585  0.53640286  0.63860672  1
  O  O120  1  0.43623022  0.53281287  0.13908877  1
  O  O121  1  0.94047989  0.53013710  0.13870594  1
  O  O122  1  0.32899578  0.12174204  0.13838024  1
  O  O123  1  0.82249057  0.12617239  0.13972757  1
  O  O124  1  0.23391740  0.35743214  0.13929153  1
  O  O125  1  0.73725284  0.34580849  0.13659033  1
  O  O126  1  0.23234795  0.31803191  0.03125545  1
  O  O127  1  0.72140806  0.30193456  0.02863930  1
  O  O128  1  0.42761754  0.55105181  0.03032838  1
  O  O129  1  0.92643944  0.54655869  0.03110308  1
  O  O130  1  0.34369456  0.13868008  0.02932881  1
  O  O131  1  0.84845148  0.12915104  0.01882416  1
  O  O132  1  0.22516893  0.14301994  0.53086352  1
  O  O133  1  0.73252424  0.14648911  0.53124565  1
  O  O134  1  0.34735901  0.55903794  0.52072281  1
  O  O135  1  0.84458750  0.55051831  0.52967406  1
  O  O136  1  0.43041014  0.31332941  0.52983642  1
  O  O137  1  0.92708096  0.30884510  0.52890472  1
  O  O138  1  0.27074745  0.69656552  0.96788383  1
  O  O139  1  0.77515339  0.69354972  0.96978848  1
  O  O140  1  0.07129068  0.46661323  0.96867147  1
  O  O141  1  0.58724781  0.46901540  0.97187332  1
  O  O142  1  0.15711586  0.84775560  0.96894489  1
  O  O143  1  0.65883376  0.85195189  0.96745096  1
  O  O144  1  0.27409230  0.84988329  0.46679058  1
  O  O145  1  0.77145717  0.84587994  0.46950850  1
  O  O146  1  0.15886714  0.46201680  0.46938147  1
  O  O147  1  0.65335240  0.45522222  0.47116481  1
  O  O148  1  0.08709109  0.70772337  0.47180155  1
  O  O149  1  0.57270975  0.67818404  0.46708232  1
  O  O150  1  0.05467373  0.60775728  0.35936726  1
  O  O151  1  0.56125857  0.65296008  0.35835730  1
  O  O152  1  0.26502700  0.89719905  0.36001302  1
  O  O153  1  0.76078786  0.87823123  0.36247599  1
  O  O154  1  0.18444219  0.48067294  0.36148366  1
  O  O155  1  0.67950314  0.48218468  0.36397924  1
  O  O156  1  0.05792374  0.46602379  0.85995432  1
  O  O157  1  0.55437688  0.50155636  0.85959125  1
  O  O158  1  0.17786468  0.87722156  0.86119320  1
  O  O159  1  0.68418040  0.89020095  0.86018899  1
  O  O160  1  0.26521748  0.64702755  0.86046545  1
  O  O161  1  0.76384747  0.63302440  0.86188050  1
  O  O162  1  0.00451840  0.83244296  0.41228823  1
  O  O163  1  0.51067969  0.82275560  0.41427022  1
  O  O164  1  0.40466593  0.99048549  0.41048956  1
  O  O165  1  0.90107661  0.98206840  0.41122495  1
  O  O166  1  0.08396943  0.20458816  0.41150926  1
  O  O167  1  0.58652946  0.19827185  0.41063077  1
  O  O168  1  0.00902662  0.19794588  0.91600867  1
  O  O169  1  0.50512791  0.17741168  0.91297516  1
  O  O170  1  0.08518143  0.96932932  0.91329645  1
  O  O171  1  0.58392675  0.96339436  0.91188923  1
  O  O172  1  0.40281088  0.82040996  0.91213025  1
  O  O173  1  0.90447510  0.81811127  0.91145707  1
  O  O174  1  0.49353670  0.18071982  0.58516521  1
  O  O175  1  0.98734437  0.16590829  0.58404107  1
  O  O176  1  0.09414426  0.02637846  0.58708324  1
  O  O177  1  0.59884135  0.02064266  0.58434794  1
  O  O178  1  0.42419660  0.83593315  0.58708009  1
  O  O179  1  0.91844893  0.81076079  0.58610436  1
  O  O180  1  0.48849062  0.81087878  0.08768877  1
  O  O181  1  0.99001641  0.80357139  0.08639514  1
  O  O182  1  0.41791043  0.02583438  0.08481317  1
  O  O183  1  0.92193257  0.00432920  0.08786392  1
  O  O184  1  0.09890599  0.17860997  0.08495812  1
  O  O185  1  0.59338476  0.16164436  0.08939006  1
  O  O186  1  0.34516149  0.15684616  0.74290274  1
  O  O187  1  0.84656687  0.17199391  0.74384116  1
  O  O188  1  0.24836519  0.31991414  0.74457747  1
  O  O189  1  0.74607005  0.32639417  0.74152438  1
  O  O190  1  0.42582129  0.53381333  0.74468767  1
  O  O191  1  0.92649718  0.53489705  0.74081509  1
  O  O192  1  0.34671526  0.52101255  0.24399336  1
  O  O193  1  0.84059622  0.52463418  0.24343573  1
  O  O194  1  0.42533166  0.30924900  0.24228585  1
  O  O195  1  0.92401707  0.32171151  0.24666773  1
  O  O196  1  0.24592407  0.16646668  0.24171385  1
  O  O197  1  0.73388313  0.15658731  0.24402984  1
  O  O198  1  0.32222544  0.51067273  0.92352539  1
  O  O199  1  0.82203257  0.50310901  0.92474379  1
  O  O200  1  0.42041401  0.35024841  0.92479040  1
  O  O201  1  0.93003807  0.35468600  0.91977183  1
  O  O202  1  0.24325586  0.12878073  0.92237819  1
  O  O203  1  0.74054703  0.14044879  0.92104016  1
  O  O204  1  0.32125954  0.13836413  0.42518134  1
  O  O205  1  0.82124765  0.13223247  0.42391066  1
  O  O206  1  0.24065991  0.33956073  0.42071024  1
  O  O207  1  0.74371283  0.35657458  0.42285015  1
  O  O208  1  0.43179924  0.50904836  0.41743193  1
  O  O209  1  0.92025491  0.49124296  0.42442312  1
  O  O210  1  0.17634012  0.49210664  0.07624936  1
  O  O211  1  0.67220711  0.47696215  0.08122755  1
  O  O212  1  0.06942915  0.64790066  0.07745045  1
  O  O213  1  0.56653436  0.65254567  0.08050794  1
  O  O214  1  0.25886270  0.86082392  0.07927069  1
  O  O215  1  0.75057087  0.82876208  0.07884030  1
  O  O216  1  0.17035350  0.86242294  0.58128353  1
  O  O217  1  0.67596761  0.86087428  0.57587049  1
  O  O218  1  0.24506208  0.65349535  0.57834044  1
  O  O219  1  0.75904441  0.65738250  0.57979245  1
  O  O220  1  0.06669181  0.47782737  0.57908735  1
  O  O221  1  0.56970249  0.49420180  0.57925821  1
  O  O222  1  0.15761079  0.82886819  0.25161898  1
  O  O223  1  0.65421300  0.84193349  0.25605441  1
  O  O224  1  0.25204948  0.67319664  0.25939962  1
  O  O225  1  0.76046932  0.67796642  0.25524289  1
  O  O226  1  0.08192362  0.46003707  0.25449269  1
  O  O227  1  0.57953444  0.47595276  0.25671425  1
  O  O228  1  0.15858462  0.48767090  0.75494049  1
  O  O229  1  0.65687247  0.48604956  0.75223235  1
  O  O230  1  0.08063716  0.69485053  0.75839288  1
  O  O231  1  0.58311528  0.70866414  0.75474624  1
  O  O232  1  0.26201311  0.84777949  0.75669526  1
  O  O233  1  0.74935790  0.83014702  0.75971087  1
