# generated using pymatgen
data_HfPbO3
_symmetry_space_group_name_H-M   'P 1'
_cell_length_a   5.83973713
_cell_length_b   8.16659022
_cell_length_c   11.68453719
_cell_angle_alpha   90.00000000
_cell_angle_beta   90.00000000
_cell_angle_gamma   90.00000000
_symmetry_Int_Tables_number   1
_chemical_formula_structural   HfPbO3
_chemical_formula_sum   'Hf8 Pb8 O24'
_cell_volume   557.24422671
_cell_formula_units_Z   8
loop_
 _symmetry_equiv_pos_site_id
 _symmetry_equiv_pos_as_xyz
  1  'x, y, z'
loop_
 _atom_site_type_symbol
 _atom_site_label
 _atom_site_symmetry_multiplicity
 _atom_site_fract_x
 _atom_site_fract_y
 _atom_site_fract_z
 _atom_site_occupancy
  Hf  Hf0  1  0.25746471  0.25551487  0.62399106  1
  Hf  Hf1  1  0.24253529  0.25551487  0.12399106  1
  Hf  Hf2  1  0.74255019  0.75641461  0.37597599  1
  Hf  Hf3  1  0.24255019  0.75641461  0.12402401  1
  Hf  Hf4  1  0.75746471  0.25551487  0.87600894  1
  Hf  Hf5  1  0.25744981  0.75641461  0.62402401  1
  Hf  Hf6  1  0.75744981  0.75641461  0.87597599  1
  Hf  Hf7  1  0.74253529  0.25551487  0.37600894  1
  Pb  Pb8  1  0.20605851  0.00559717  0.37573775  1
  Pb  Pb9  1  0.20950449  0.50553187  0.37024793  1
  Pb  Pb10  1  0.29394149  0.00559717  0.87573775  1
  Pb  Pb11  1  0.79394149  0.00559717  0.62426225  1
  Pb  Pb12  1  0.70605851  0.00559717  0.12426225  1
  Pb  Pb13  1  0.29049551  0.50553187  0.87024793  1
  Pb  Pb14  1  0.70950449  0.50553187  0.12975207  1
  Pb  Pb15  1  0.79049551  0.50553187  0.62975207  1
  O  O16  1  0.00000000  0.77539642  0.00000000  1
  O  O17  1  0.23056904  0.00601071  0.65291015  1
  O  O18  1  0.20800260  0.50601754  0.59880240  1
  O  O19  1  0.97411401  0.72886794  0.74028778  1
  O  O20  1  0.00000000  0.79703147  0.50000000  1
  O  O21  1  0.79199740  0.50601754  0.40119760  1
  O  O22  1  0.52588599  0.72886794  0.24028778  1
  O  O23  1  0.52565345  0.28354432  0.24036620  1
  O  O24  1  0.50000000  0.79703147  0.00000000  1
  O  O25  1  0.73056904  0.00601071  0.84708985  1
  O  O26  1  0.70800260  0.50601754  0.90119760  1
  O  O27  1  0.02565345  0.28354432  0.25963380  1
  O  O28  1  0.50000000  0.77539642  0.50000000  1
  O  O29  1  0.00000000  0.21538142  0.50000000  1
  O  O30  1  0.47411401  0.72886794  0.75971222  1
  O  O31  1  0.50000000  0.23719463  0.50000000  1
  O  O32  1  0.02588599  0.72886794  0.25971222  1
  O  O33  1  0.47434655  0.28354432  0.75963380  1
  O  O34  1  0.76943096  0.00601071  0.34708985  1
  O  O35  1  0.29199740  0.50601754  0.09880240  1
  O  O36  1  0.26943096  0.00601071  0.15291015  1
  O  O37  1  0.00000000  0.23719463  0.00000000  1
  O  O38  1  0.97434655  0.28354432  0.74036620  1
  O  O39  1  0.50000000  0.21538142  0.00000000  1
