# generated using pymatgen
data_CCl2O
_symmetry_space_group_name_H-M   'P 1'
_cell_length_a   11.63406267
_cell_length_b   11.63401312
_cell_length_c   11.63405024
_cell_angle_alpha   93.40734938
_cell_angle_beta   93.40945830
_cell_angle_gamma   151.77375339
_symmetry_Int_Tables_number   1
_chemical_formula_structural   CCl2O
_chemical_formula_sum   'C8 Cl16 O8'
_cell_volume   722.27461533
_cell_formula_units_Z   8
loop_
 _symmetry_equiv_pos_site_id
 _symmetry_equiv_pos_as_xyz
  1  'x, y, z'
loop_
 _atom_site_type_symbol
 _atom_site_label
 _atom_site_symmetry_multiplicity
 _atom_site_fract_x
 _atom_site_fract_y
 _atom_site_fract_z
 _atom_site_occupancy
  C  C0  1  0.02091413  0.01148888  0.26782355  1
  C  C1  1  0.26149483  0.49367319  0.49056408  1
  C  C2  1  0.00309522  0.77091488  0.50943088  1
  C  C3  1  0.74366687  0.75309670  0.73217879  1
  C  C4  1  0.22908354  0.73850850  0.23217635  1
  C  C5  1  0.98850581  0.25632716  0.00943601  1
  C  C6  1  0.24690414  0.97908473  0.99056837  1
  C  C7  1  0.50633451  0.99690534  0.76782152  1
  Cl  Cl8  1  0.83146671  0.76412984  0.14919030  1
  Cl  Cl9  1  0.01413130  0.36494407  0.43265210  1
  Cl  Cl10  1  0.93228295  0.58146740  0.56734612  1
  Cl  Cl11  1  0.61494095  0.68228349  0.85081479  1
  Cl  Cl12  1  0.41853461  0.98587055  0.35080925  1
  Cl  Cl13  1  0.23586886  0.38505584  0.06734719  1
  Cl  Cl14  1  0.31771688  0.16853307  0.93265366  1
  Cl  Cl15  1  0.63505972  0.06771718  0.64918511  1
  Cl  Cl16  1  0.32427761  0.23168989  0.30149526  1
  Cl  Cl17  1  0.48169141  0.68019687  0.40741456  1
  Cl  Cl18  1  0.27277956  0.07427199  0.59258971  1
  Cl  Cl19  1  0.93018936  0.02277805  0.69850751  1
  Cl  Cl20  1  0.92572267  0.51831036  0.19850437  1
  Cl  Cl21  1  0.76831008  0.06980423  0.09258618  1
  Cl  Cl22  1  0.97722025  0.67572796  0.90740985  1
  Cl  Cl23  1  0.31981025  0.72722159  0.80149235  1
  O  O24  1  0.94703151  0.02586175  0.31851850  1
  O  O25  1  0.27585526  0.45733870  0.57882667  1
  O  O26  1  0.87853097  0.69704130  0.42117761  1
  O  O27  1  0.70734359  0.62852345  0.68148784  1
  O  O28  1  0.30296826  0.72413662  0.18148166  1
  O  O29  1  0.97414635  0.29266358  0.92117462  1
  O  O30  1  0.37146736  0.05295803  0.07882055  1
  O  O31  1  0.54265746  0.12147581  0.81851168  1
