# generated using pymatgen
data_Na5Nb2Ga2Si3(PO8)3
_symmetry_space_group_name_H-M   'P 1'
_cell_length_a   8.87819957
_cell_length_b   8.87766201
_cell_length_c   22.39037958
_cell_angle_alpha   89.51677609
_cell_angle_beta   90.46595223
_cell_angle_gamma   119.80157227
_symmetry_Int_Tables_number   1
_chemical_formula_structural   Na5Nb2Ga2Si3(PO8)3
_chemical_formula_sum   'Na15 Nb6 Ga6 Si9 P9 O72'
_cell_volume   1531.30102103
_cell_formula_units_Z   3
loop_
 _symmetry_equiv_pos_site_id
 _symmetry_equiv_pos_as_xyz
  1  'x, y, z'
loop_
 _atom_site_type_symbol
 _atom_site_label
 _atom_site_symmetry_multiplicity
 _atom_site_fract_x
 _atom_site_fract_y
 _atom_site_fract_z
 _atom_site_occupancy
  Na  Na0  1  0.99199690  0.62771766  0.24760881  1
  Na  Na1  1  0.37138318  0.00856500  0.74776062  1
  Na  Na2  1  0.03710989  0.69765983  0.58080040  1
  Na  Na3  1  0.65368991  0.95986886  0.58160001  1
  Na  Na4  1  0.30176496  0.96270928  0.08081703  1
  Na  Na5  1  0.03843198  0.34555413  0.08240334  1
  Na  Na6  1  0.97238867  0.67315391  0.91613610  1
  Na  Na7  1  0.96871844  0.29524598  0.41333470  1
  Na  Na8  1  0.32904525  0.02773073  0.41579145  1
  Na  Na9  1  0.99658661  0.99504058  0.49533093  1
  Na  Na10  1  0.99616388  0.00095051  0.99438712  1
  Na  Na11  1  0.66870913  0.33094616  0.82874384  1
  Na  Na12  1  0.66309221  0.33161844  0.32781114  1
  Na  Na13  1  0.34451731  0.66336492  0.16306830  1
  Na  Na14  1  0.33574634  0.65422255  0.66263065  1
  Nb  Nb15  1  0.99840234  0.00021624  0.64648321  1
  Nb  Nb16  1  0.99974981  0.00109317  0.14604063  1
  Nb  Nb17  1  0.65731142  0.32943675  0.97871229  1
  Nb  Nb18  1  0.66633471  0.33936616  0.47925895  1
  Nb  Nb19  1  0.33268604  0.66600689  0.31221843  1
  Nb  Nb20  1  0.34020540  0.67103343  0.81203625  1
  Ga  Ga21  1  0.98479129  0.99073810  0.35163691  1
  Ga  Ga22  1  0.00374415  0.01031109  0.85213369  1
  Ga  Ga23  1  0.66637349  0.33147366  0.68499648  1
  Ga  Ga24  1  0.66908738  0.33355441  0.18463510  1
  Ga  Ga25  1  0.33141521  0.66420655  0.01787568  1
  Ga  Ga26  1  0.34100349  0.67364730  0.51814887  1
  Si  Si27  1  0.99054680  0.28487396  0.25194921  1
  Si  Si28  1  0.71852418  0.01185086  0.75216473  1
  Si  Si29  1  0.37765447  0.04301423  0.58536297  1
  Si  Si30  1  0.65397389  0.61492949  0.58651835  1
  Si  Si31  1  0.95628389  0.62064851  0.08428432  1
  Si  Si32  1  0.38508006  0.34629371  0.08616679  1
  Si  Si33  1  0.32735044  0.95598992  0.91758703  1
  Si  Si34  1  0.62924761  0.95279665  0.41829150  1
  Si  Si35  1  0.04485017  0.67431367  0.41773107  1
  P  P36  1  0.29563847  0.00998636  0.25223806  1
  P  P37  1  0.71021146  0.70783420  0.25102469  1
  P  P38  1  0.29092052  0.28892659  0.75172085  1
  P  P39  1  0.99037954  0.70314699  0.75234977  1
  P  P40  1  0.96017938  0.33914530  0.58438759  1
  P  P41  1  0.66108793  0.04088914  0.08446539  1
  P  P42  1  0.62459184  0.67349590  0.91857047  1
  P  P43  1  0.04653511  0.37272105  0.91770908  1
  P  P44  1  0.33115846  0.37923252  0.41822828  1
  O  O45  1  0.20854263  0.02816466  0.30772340  1
  O  O46  1  0.82865963  0.78971469  0.30534446  1
  O  O47  1  0.97239210  0.17334576  0.31109625  1
  O  O48  1  0.20827654  0.16975955  0.80599651  1
  O  O49  1  0.97187328  0.79001728  0.80788268  1
  O  O50  1  0.83484778  0.03037468  0.80912784  1
  O  O51  1  0.80053386  0.97218128  0.69123168  1
  O  O52  1  0.17180273  0.20021590  0.69525430  1
  O  O53  1  0.03321650  0.82695007  0.69535378  1
  O  O54  1  0.79966384  0.82754778  0.19487605  1
  O  O55  1  0.02634558  0.19708366  0.19178288  1
  O  O56  1  0.17270509  0.96820703  0.19512293  1
  O  O57  1  0.87615733  0.36967641  0.63847296  1
  O  O58  1  0.49940406  0.12494770  0.64332431  1
  O  O59  1  0.63938892  0.50059736  0.64349420  1
  O  O60  1  0.87586725  0.50078829  0.14299812  1
  O  O61  1  0.62927035  0.12247055  0.13910737  1
  O  O62  1  0.49947262  0.36221341  0.14327871  1
  O  O63  1  0.46707382  0.29589896  0.02697143  1
  O  O64  1  0.83499713  0.53154110  0.02390818  1
  O  O65  1  0.70179231  0.16372785  0.02836192  1
  O  O66  1  0.46737949  0.16510418  0.52473201  1
  O  O67  1  0.70405641  0.53374017  0.52706776  1
  O  O68  1  0.84070934  0.29839111  0.52689422  1
  O  O69  1  0.53661765  0.69594991  0.97325314  1
  O  O70  1  0.15134429  0.45356422  0.97489518  1
  O  O71  1  0.29509339  0.83521933  0.97618620  1
  O  O72  1  0.54281070  0.84314782  0.47805004  1
  O  O73  1  0.29674016  0.46091359  0.47246755  1
  O  O74  1  0.16211072  0.70148924  0.47674604  1
  O  O75  1  0.13217205  0.63135167  0.35851841  1
  O  O76  1  0.49582493  0.86204309  0.36035902  1
  O  O77  1  0.36425289  0.49556137  0.36134206  1
  O  O78  1  0.13454867  0.49657650  0.86273642  1
  O  O79  1  0.36032084  0.86224437  0.85835344  1
  O  O80  1  0.50557045  0.63763437  0.86185660  1
  O  O81  1  0.03410777  0.84903975  0.40789630  1
  O  O82  1  0.82538844  0.98911363  0.41163192  1
  O  O83  1  0.17585373  0.19610653  0.41088093  1
  O  O84  1  0.02395472  0.19136871  0.91066603  1
  O  O85  1  0.15286475  0.96984875  0.90808005  1
  O  O86  1  0.80828710  0.82565761  0.91096200  1
  O  O87  1  0.96961046  0.16728775  0.58942097  1
  O  O88  1  0.18160966  0.02151729  0.59012795  1
  O  O89  1  0.83674747  0.81193405  0.59096426  1
  O  O90  1  0.97913389  0.81748658  0.09018923  1
  O  O91  1  0.83248612  0.03061890  0.08934858  1
  O  O92  1  0.18830916  0.16363573  0.09072679  1
  O  O93  1  0.68015964  0.17127481  0.74421107  1
  O  O94  1  0.46981231  0.30655412  0.74438006  1
  O  O95  1  0.83469300  0.52327150  0.74330092  1
  O  O96  1  0.69363860  0.52894896  0.24412846  1
  O  O97  1  0.82734965  0.31830348  0.24429536  1
  O  O98  1  0.47592528  0.16517650  0.24336285  1
  O  O99  1  0.64294647  0.50451154  0.92234677  1
  O  O100  1  0.86513752  0.36523203  0.92192292  1
  O  O101  1  0.50698911  0.14681050  0.92201018  1
  O  O102  1  0.64088084  0.14735808  0.42250979  1
  O  O103  1  0.49754891  0.35992206  0.42198683  1
  O  O104  1  0.85611739  0.49179865  0.42211610  1
  O  O105  1  0.34812382  0.50445447  0.07557172  1
  O  O106  1  0.15152653  0.64865442  0.07729431  1
  O  O107  1  0.50212791  0.86195081  0.07585607  1
  O  O108  1  0.34880333  0.84777486  0.57868889  1
  O  O109  1  0.49320132  0.64832007  0.57761357  1
  O  O110  1  0.13874682  0.49802273  0.57585410  1
  O  O111  1  0.30237616  0.83426342  0.25556526  1
  O  O112  1  0.52967306  0.69545688  0.25587450  1
  O  O113  1  0.16923910  0.48263888  0.25581892  1
  O  O114  1  0.30269102  0.46940223  0.75695454  1
  O  O115  1  0.16480252  0.69416260  0.75644939  1
  O  O116  1  0.51930449  0.83097785  0.75700627  1
