# generated using pymatgen
data_Ba2MgFeWO6
_symmetry_space_group_name_H-M   'P 1'
_cell_length_a   6.58173340
_cell_length_b   6.57598092
_cell_length_c   6.06558707
_cell_angle_alpha   90.27109828
_cell_angle_beta   117.56042530
_cell_angle_gamma   125.08722529
_symmetry_Int_Tables_number   1
_chemical_formula_structural   Ba2MgFeWO6
_chemical_formula_sum   'Ba2 Mg1 Fe1 W1 O6'
_cell_volume   176.68721968
_cell_formula_units_Z   1
loop_
 _symmetry_equiv_pos_site_id
 _symmetry_equiv_pos_as_xyz
  1  'x, y, z'
loop_
 _atom_site_type_symbol
 _atom_site_label
 _atom_site_symmetry_multiplicity
 _atom_site_fract_x
 _atom_site_fract_y
 _atom_site_fract_z
 _atom_site_occupancy
  Ba  Ba0  1  0.45293912  0.76883634  0.23111227  1
  Ba  Ba1  1  0.59642626  0.20618947  0.79282882  1
  Mg  Mg2  1  0.16874552  0.41129520  0.58846198  1
  Fe  Fe3  1  0.84315026  0.57871002  0.42073692  1
  W  W4  1  0.01901729  0.98751219  0.01222044  1
  O  O5  1  0.55983678  0.75223177  0.77923202  1
  O  O6  1  0.04179683  0.74644693  0.25486582  1
  O  O7  1  0.00650791  0.22337791  0.77482110  1
  O  O8  1  0.49010550  0.21500515  0.24894748  1
  O  O9  1  0.03028427  0.22196770  0.24793222  1
  O  O10  1  0.02383027  0.74953830  0.78425894  1
