# generated using pymatgen
data_Na7Ti2Si5Ge2PO24
_symmetry_space_group_name_H-M   'P 1'
_cell_length_a   8.84673244
_cell_length_b   8.83737094
_cell_length_c   21.79237781
_cell_angle_alpha   90.05897392
_cell_angle_beta   89.71754079
_cell_angle_gamma   120.05271946
_symmetry_Int_Tables_number   1
_chemical_formula_structural   Na7Ti2Si5Ge2PO24
_chemical_formula_sum   'Na21 Ti6 Si15 Ge6 P3 O72'
_cell_volume   1474.70241775
_cell_formula_units_Z   3
loop_
 _symmetry_equiv_pos_site_id
 _symmetry_equiv_pos_as_xyz
  1  'x, y, z'
loop_
 _atom_site_type_symbol
 _atom_site_label
 _atom_site_symmetry_multiplicity
 _atom_site_fract_x
 _atom_site_fract_y
 _atom_site_fract_z
 _atom_site_occupancy
  Na  Na0  1  0.63174346  0.00066788  0.24994917  1
  Na  Na1  1  0.36941103  0.37017215  0.25020557  1
  Na  Na2  1  0.00025031  0.62880489  0.25016555  1
  Na  Na3  1  0.62894748  0.63016170  0.74946524  1
  Na  Na4  1  0.00095384  0.36926728  0.74945732  1
  Na  Na5  1  0.37055541  0.00059499  0.74957323  1
  Na  Na6  1  0.29724127  0.33467009  0.58344575  1
  Na  Na7  1  0.03634361  0.70249688  0.58393267  1
  Na  Na8  1  0.66751132  0.96381312  0.58401720  1
  Na  Na9  1  0.29889861  0.96754684  0.08277072  1
  Na  Na10  1  0.03435054  0.33593333  0.08502151  1
  Na  Na11  1  0.96703025  0.66726346  0.91657384  1
  Na  Na12  1  0.33433037  0.29970983  0.91678272  1
  Na  Na13  1  0.33147938  0.03266209  0.41677738  1
  Na  Na14  1  0.69841383  0.66526214  0.41753536  1
  Na  Na15  1  0.99873269  0.00712022  0.49899594  1
  Na  Na16  1  0.98501532  0.99303418  0.99989118  1
  Na  Na17  1  0.66735494  0.32410595  0.83417522  1
  Na  Na18  1  0.67492029  0.33140738  0.33492895  1
  Na  Na19  1  0.34204056  0.66624282  0.16559516  1
  Na  Na20  1  0.33437859  0.66564904  0.66653478  1
  Ti  Ti21  1  0.66804826  0.34042452  0.18838788  1
  Ti  Ti22  1  0.66667687  0.32902259  0.98142136  1
  Ti  Ti23  1  0.32677233  0.65910873  0.01836974  1
  Ti  Ti24  1  0.33613369  0.67352179  0.52017128  1
  Ti  Ti25  1  0.32980389  0.67133390  0.31322446  1
  Ti  Ti26  1  0.32938731  0.67070737  0.81175904  1
  Si  Si27  1  0.28316023  0.00078228  0.25076994  1
  Si  Si28  1  0.71748858  0.71907599  0.25002125  1
  Si  Si29  1  0.00030937  0.28124966  0.25002621  1
  Si  Si30  1  0.28775572  0.28411910  0.74855113  1
  Si  Si31  1  0.99558440  0.71484688  0.74911921  1
  Si  Si32  1  0.71844525  0.00295080  0.74921452  1
  Si  Si33  1  0.95157922  0.33014350  0.58499863  1
  Si  Si34  1  0.38234157  0.05314766  0.58402624  1
  Si  Si35  1  0.66944237  0.61828616  0.58414928  1
  Si  Si36  1  0.95302124  0.63022602  0.08372329  1
  Si  Si37  1  0.37509116  0.33461775  0.08443012  1
  Si  Si38  1  0.03662328  0.36614697  0.91470463  1
  Si  Si39  1  0.33326254  0.95956180  0.91594350  1
  Si  Si40  1  0.63280896  0.96697517  0.41645052  1
  Si  Si41  1  0.03595042  0.66217947  0.41705066  1
  Ge  Ge42  1  0.99456207  0.99732453  0.35271907  1
  Ge  Ge43  1  0.00205506  0.00452004  0.85171122  1
  Ge  Ge44  1  0.99977866  0.00018423  0.64605630  1
  Ge  Ge45  1  0.00156312  0.99743161  0.14749506  1
  Ge  Ge46  1  0.66756210  0.33338477  0.68737291  1
  Ge  Ge47  1  0.67671091  0.33168373  0.48213504  1
  P  P48  1  0.66834911  0.04081857  0.08474688  1
  P  P49  1  0.62587205  0.67373410  0.91532850  1
  P  P50  1  0.32870548  0.37302880  0.41631535  1
  O  O51  1  0.20012210  0.04149663  0.31156774  1
  O  O52  1  0.83953414  0.79324872  0.31144449  1
  O  O53  1  0.95628543  0.15148093  0.30870812  1
  O  O54  1  0.20714843  0.16018283  0.80974049  1
  O  O55  1  0.95667094  0.79773873  0.81051026  1
  O  O56  1  0.84779277  0.04605938  0.80787931  1
  O  O57  1  0.79742202  0.95773715  0.68785480  1
  O  O58  1  0.16083926  0.20191875  0.68857114  1
  O  O59  1  0.04111571  0.84044667  0.68858157  1
  O  O60  1  0.80296741  0.84852598  0.19116004  1
  O  O61  1  0.04224026  0.20190753  0.18783740  1
  O  O62  1  0.16116332  0.95724068  0.18971166  1
  O  O63  1  0.87146109  0.37646739  0.64558643  1
  O  O64  1  0.50727841  0.13183164  0.64435122  1
  O  O65  1  0.62627686  0.49335924  0.64466700  1
  O  O66  1  0.86787058  0.50004258  0.14318991  1
  O  O67  1  0.63473319  0.12342392  0.14243654  1
  O  O68  1  0.49598591  0.35902514  0.14433980  1
  O  O69  1  0.46397553  0.29566290  0.02471391  1
  O  O70  1  0.83459867  0.53269976  0.02346155  1
  O  O71  1  0.70127858  0.16427280  0.02877104  1
  O  O72  1  0.46528543  0.17644696  0.52284392  1
  O  O73  1  0.70832576  0.53378791  0.52296983  1
  O  O74  1  0.82283024  0.28416213  0.52614167  1
  O  O75  1  0.53273837  0.69666189  0.97211521  1
  O  O76  1  0.16498199  0.45947370  0.97493802  1
  O  O77  1  0.29782729  0.83196931  0.97558096  1
  O  O78  1  0.53881805  0.83568749  0.47607385  1
  O  O79  1  0.30444274  0.46125047  0.47476254  1
  O  O80  1  0.16652925  0.70014626  0.47597961  1
  O  O81  1  0.12995278  0.63455787  0.35649298  1
  O  O82  1  0.50254911  0.87098782  0.35757652  1
  O  O83  1  0.36233537  0.49114085  0.35936348  1
  O  O84  1  0.13339637  0.49778276  0.85634451  1
  O  O85  1  0.36247939  0.86628306  0.85554568  1
  O  O86  1  0.51002333  0.63781695  0.85775781  1
  O  O87  1  0.02660661  0.84419738  0.41152300  1
  O  O88  1  0.81987930  0.97229525  0.41089519  1
  O  O89  1  0.16691545  0.18879733  0.41211093  1
  O  O90  1  0.03016436  0.17907722  0.90999095  1
  O  O91  1  0.15198886  0.96938875  0.91046499  1
  O  O92  1  0.81004811  0.83470648  0.91120787  1
  O  O93  1  0.97196977  0.15500234  0.58961325  1
  O  O94  1  0.18563693  0.02967521  0.58878947  1
  O  O95  1  0.84502137  0.81415267  0.58862491  1
  O  O96  1  0.97724376  0.82500650  0.08912088  1
  O  O97  1  0.83899168  0.03332949  0.08848375  1
  O  O98  1  0.17988456  0.15702341  0.08896905  1
  O  O99  1  0.69620452  0.17740191  0.74422045  1
  O  O100  1  0.48307202  0.30341274  0.74383538  1
  O  O101  1  0.82159723  0.51845373  0.74480436  1
  O  O102  1  0.69571859  0.52291993  0.24470352  1
  O  O103  1  0.82737866  0.30350502  0.24461728  1
  O  O104  1  0.47947177  0.17100842  0.24577170  1
  O  O105  1  0.64215592  0.50683075  0.92145886  1
  O  O106  1  0.85120397  0.36084128  0.92206079  1
  O  O107  1  0.50172481  0.15531587  0.92179931  1
  O  O108  1  0.63400317  0.15215746  0.42331992  1
  O  O109  1  0.49666230  0.35867593  0.42075015  1
  O  O110  1  0.83972961  0.49189035  0.42291960  1
  O  O111  1  0.35161223  0.50572182  0.07846322  1
  O  O112  1  0.14811932  0.64745004  0.07763412  1
  O  O113  1  0.50272690  0.86293885  0.07707294  1
  O  O114  1  0.36025792  0.85649517  0.57773589  1
  O  O115  1  0.49566433  0.63976884  0.57801594  1
  O  O116  1  0.14666579  0.50351810  0.57758362  1
  O  O117  1  0.30511896  0.82669747  0.25525964  1
  O  O118  1  0.52138582  0.69247634  0.25618035  1
  O  O119  1  0.17406190  0.47657651  0.25546550  1
  O  O120  1  0.31073860  0.47920300  0.75503306  1
  O  O121  1  0.16973536  0.69284545  0.75408916  1
  O  O122  1  0.52328209  0.82922645  0.75498531  1
