# generated using pymatgen
data_Na3HfInSi2SO12
_symmetry_space_group_name_H-M   'P 1'
_cell_length_a   9.20272118
_cell_length_b   9.20272085
_cell_length_c   22.77011569
_cell_angle_alpha   90.15804873
_cell_angle_beta   89.84195127
_cell_angle_gamma   120.28503490
_symmetry_Int_Tables_number   1
_chemical_formula_structural   Na3HfInSi2SO12
_chemical_formula_sum   'Na18 Hf6 In6 Si12 S6 O72'
_cell_volume   1665.22002299
_cell_formula_units_Z   6
loop_
 _symmetry_equiv_pos_site_id
 _symmetry_equiv_pos_as_xyz
  1  'x, y, z'
loop_
 _atom_site_type_symbol
 _atom_site_label
 _atom_site_symmetry_multiplicity
 _atom_site_fract_x
 _atom_site_fract_y
 _atom_site_fract_z
 _atom_site_occupancy
  Na  Na0  1  0.62885620  0.00045027  0.24115157  1
  Na  Na1  1  0.99472779  0.64458512  0.24414622  1
  Na  Na2  1  0.99954973  0.37114380  0.74115157  1
  Na  Na3  1  0.35541488  0.00527221  0.74414622  1
  Na  Na4  1  0.29552320  0.33378327  0.57448457  1
  Na  Na5  1  0.66139479  0.97791812  0.57747922  1
  Na  Na6  1  0.66621673  0.70447680  0.07448457  1
  Na  Na7  1  0.02208188  0.33860521  0.07747922  1
  Na  Na8  1  0.96218920  0.66711727  0.90781857  1
  Na  Na9  1  0.32806079  0.31125212  0.91081322  1
  Na  Na10  1  0.33288273  0.03781080  0.40781857  1
  Na  Na11  1  0.68874788  0.67193921  0.41081322  1
  Na  Na12  1  0.00505367  0.03175511  0.49414159  1
  Na  Na13  1  0.96824489  0.99494633  0.99414159  1
  Na  Na14  1  0.67172067  0.36508811  0.82747459  1
  Na  Na15  1  0.63491189  0.32827933  0.32747459  1
  Na  Na16  1  0.33838667  0.69842211  0.16080859  1
  Na  Na17  1  0.30157789  0.66161333  0.66080859  1
  Hf  Hf18  1  0.01608940  0.00320533  0.64713651  1
  Hf  Hf19  1  0.99679467  0.98391060  0.14713651  1
  Hf  Hf20  1  0.68275640  0.33653833  0.98046951  1
  Hf  Hf21  1  0.66346167  0.31724360  0.48046951  1
  Hf  Hf22  1  0.34942240  0.66987233  0.31380351  1
  Hf  Hf23  1  0.33012767  0.65057760  0.81380351  1
  In  In24  1  0.00554595  0.00877456  0.35042683  1
  In  In25  1  0.99122544  0.99445405  0.85042683  1
  In  In26  1  0.67221295  0.34210756  0.68375983  1
  In  In27  1  0.65789244  0.32778705  0.18375983  1
  In  In28  1  0.33887895  0.67544156  0.01709383  1
  In  In29  1  0.32455844  0.66112105  0.51709383  1
  Si  Si30  1  0.29570898  0.99793930  0.25340235  1
  Si  Si31  1  0.70648890  0.70171012  0.25164029  1
  Si  Si32  1  0.29828988  0.29351110  0.75164029  1
  Si  Si33  1  0.00206070  0.70429102  0.75340235  1
  Si  Si34  1  0.96237598  0.33127230  0.58673535  1
  Si  Si35  1  0.37315590  0.03504312  0.58497329  1
  Si  Si36  1  0.96495688  0.62684410  0.08497329  1
  Si  Si37  1  0.66872770  0.03762402  0.08673535  1
  Si  Si38  1  0.62904198  0.66460630  0.92006935  1
  Si  Si39  1  0.03982190  0.36837712  0.91830729  1
  Si  Si40  1  0.63162288  0.96017810  0.41830729  1
  Si  Si41  1  0.33539370  0.37095802  0.42006935  1
  S  S42  1  0.00508259  0.29891323  0.24891038  1
  S  S43  1  0.70108677  0.99491741  0.74891038  1
  S  S44  1  0.67174959  0.63224623  0.58224338  1
  S  S45  1  0.36775377  0.32825041  0.08224338  1
  S  S46  1  0.33841559  0.96558023  0.91557738  1
  S  S47  1  0.03441977  0.66158441  0.41557738  1
  O  O48  1  0.22094982  0.02166640  0.31517080  1
  O  O49  1  0.81792422  0.78507179  0.31055583  1
  O  O50  1  0.97797082  0.19419946  0.30115314  1
  O  O51  1  0.21492821  0.18207578  0.81055583  1
  O  O52  1  0.97833360  0.77905018  0.81517080  1
  O  O53  1  0.80580054  0.02202918  0.80115314  1
  O  O54  1  0.77981091  0.97295352  0.69475594  1
  O  O55  1  0.17295374  0.20188367  0.69418995  1
  O  O56  1  0.02086847  0.83045126  0.69863099  1
  O  O57  1  0.79811633  0.82704626  0.19418995  1
  O  O58  1  0.02704648  0.22018909  0.19475594  1
  O  O59  1  0.16954874  0.97913153  0.19863099  1
  O  O60  1  0.88761682  0.35499940  0.64850380  1
  O  O61  1  0.48459122  0.11840479  0.64388883  1
  O  O62  1  0.64463782  0.52753246  0.63448614  1
  O  O63  1  0.88159521  0.51540878  0.14388883  1
  O  O64  1  0.64500060  0.11238318  0.14850380  1
  O  O65  1  0.47246754  0.35536218  0.13448614  1
  O  O66  1  0.44647791  0.30628652  0.02808894  1
  O  O67  1  0.83962074  0.53521667  0.02752295  1
  O  O68  1  0.68753547  0.16378426  0.03196399  1
  O  O69  1  0.46478333  0.16037926  0.52752295  1
  O  O70  1  0.69371348  0.55352209  0.52808894  1
  O  O71  1  0.83621574  0.31246453  0.53196399  1
  O  O72  1  0.55428282  0.68833340  0.98183780  1
  O  O73  1  0.15125722  0.45173879  0.97722283  1
  O  O74  1  0.31130382  0.86086646  0.96782014  1
  O  O75  1  0.54826121  0.84874278  0.47722283  1
  O  O76  1  0.31166660  0.44571718  0.48183780  1
  O  O77  1  0.13913354  0.68869618  0.46782014  1
  O  O78  1  0.11314391  0.63962052  0.36142294  1
  O  O79  1  0.50628674  0.86855067  0.36085695  1
  O  O80  1  0.35420147  0.49711826  0.36529799  1
  O  O81  1  0.13144933  0.49371326  0.86085695  1
  O  O82  1  0.36037948  0.88685609  0.86142294  1
  O  O83  1  0.50288174  0.64579853  0.86529799  1
  O  O84  1  0.01400133  0.81099203  0.41258074  1
  O  O85  1  0.81416379  0.97338943  0.41196937  1
  O  O86  1  0.18150941  0.17567159  0.41477624  1
  O  O87  1  0.02661057  0.18583621  0.91196937  1
  O  O88  1  0.18900797  0.98599867  0.91258074  1
  O  O89  1  0.82432841  0.81849059  0.91477624  1
  O  O90  1  0.96242006  0.14898111  0.58833160  1
  O  O91  1  0.18914240  0.02682951  0.58868343  1
  O  O92  1  0.82354700  0.80339262  0.58824623  1
  O  O93  1  0.97317049  0.81085760  0.08868343  1
  O  O94  1  0.85101889  0.03757994  0.08833160  1
  O  O95  1  0.19660738  0.17645300  0.08824623  1
  O  O96  1  0.68066833  0.14432503  0.74591374  1
  O  O97  1  0.48083079  0.30672243  0.74530237  1
  O  O98  1  0.84817641  0.50900459  0.74810924  1
  O  O99  1  0.69327757  0.51916921  0.24530237  1
  O  O100  1  0.85567497  0.31933167  0.24591374  1
  O  O101  1  0.49099541  0.15182359  0.24810924  1
  O  O102  1  0.62908706  0.48231411  0.92166460  1
  O  O103  1  0.85580940  0.36016251  0.92201643  1
  O  O104  1  0.49021400  0.13672562  0.92157923  1
  O  O105  1  0.63983749  0.14419060  0.42201643  1
  O  O106  1  0.51768589  0.37091294  0.42166460  1
  O  O107  1  0.86327438  0.50978600  0.42157923  1
  O  O108  1  0.34733433  0.47765903  0.07924774  1
  O  O109  1  0.14749679  0.64005643  0.07863637  1
  O  O110  1  0.51484241  0.84233859  0.08144324  1
  O  O111  1  0.35994357  0.85250321  0.57863637  1
  O  O112  1  0.52234097  0.65266567  0.57924774  1
  O  O113  1  0.15766141  0.48515759  0.58144324  1
  O  O114  1  0.29575306  0.81564811  0.25499860  1
  O  O115  1  0.52247540  0.69349651  0.25535043  1
  O  O116  1  0.15688000  0.47005962  0.25491323  1
  O  O117  1  0.30650349  0.47752460  0.75535043  1
  O  O118  1  0.18435189  0.70424694  0.75499860  1
  O  O119  1  0.52994038  0.84312000  0.75491323  1
