# generated using pymatgen
data_Mg2PHO5
_symmetry_space_group_name_H-M   'P 1'
_cell_length_a   6.13833215
_cell_length_b   7.37119249
_cell_length_c   8.21832262
_cell_angle_alpha   90.00000000
_cell_angle_beta   90.00000000
_cell_angle_gamma   90.00000000
_symmetry_Int_Tables_number   1
_chemical_formula_structural   Mg2PHO5
_chemical_formula_sum   'Mg8 P4 H4 O20'
_cell_volume   371.85302876
_cell_formula_units_Z   4
loop_
 _symmetry_equiv_pos_site_id
 _symmetry_equiv_pos_as_xyz
  1  'x, y, z'
loop_
 _atom_site_type_symbol
 _atom_site_label
 _atom_site_symmetry_multiplicity
 _atom_site_fract_x
 _atom_site_fract_y
 _atom_site_fract_z
 _atom_site_occupancy
  Mg  Mg0  1  0.25000000  0.57821881  0.17774040  1
  Mg  Mg1  1  0.75000000  0.42178119  0.82225960  1
  Mg  Mg2  1  0.75000000  0.07821881  0.32225960  1
  Mg  Mg3  1  0.25000000  0.92178119  0.67774040  1
  Mg  Mg4  1  0.50000000  -0.00000000  0.00000000  1
  Mg  Mg5  1  0.00000000  -0.00000000  0.00000000  1
  Mg  Mg6  1  0.50000000  0.50000000  0.50000000  1
  Mg  Mg7  1  0.00000000  0.50000000  0.50000000  1
  P  P8  1  0.25000000  0.33355632  0.82355782  1
  P  P9  1  0.75000000  0.66644368  0.17644218  1
  P  P10  1  0.75000000  0.83355632  0.67644218  1
  P  P11  1  0.25000000  0.16644368  0.32355782  1
  H  H12  1  0.25000000  0.73239410  0.94780800  1
  H  H13  1  0.75000000  0.26760590  0.05219200  1
  H  H14  1  0.75000000  0.23239410  0.55219200  1
  H  H15  1  0.25000000  0.76760590  0.44780800  1
  O  O16  1  0.25000000  0.81373203  0.04067231  1
  O  O17  1  0.75000000  0.18626797  0.95932769  1
  O  O18  1  0.75000000  0.31373203  0.45932769  1
  O  O19  1  0.25000000  0.68626797  0.54067231  1
  O  O20  1  0.25000000  0.44010360  0.97969334  1
  O  O21  1  0.75000000  0.55989640  0.02030666  1
  O  O22  1  0.75000000  0.94010360  0.52030666  1
  O  O23  1  0.25000000  0.05989640  0.47969334  1
  O  O24  1  0.45385587  0.12473213  0.22157286  1
  O  O25  1  0.95385587  0.87526787  0.77842714  1
  O  O26  1  0.54614413  0.62473213  0.27842714  1
  O  O27  1  0.04614413  0.37526787  0.72157286  1
  O  O28  1  0.54614413  0.87526787  0.77842714  1
  O  O29  1  0.04614413  0.12473213  0.22157286  1
  O  O30  1  0.45385587  0.37526787  0.72157286  1
  O  O31  1  0.95385587  0.62473213  0.27842714  1
  O  O32  1  0.25000000  0.37259918  0.36542852  1
  O  O33  1  0.75000000  0.62740082  0.63457148  1
  O  O34  1  0.75000000  0.87259918  0.13457148  1
  O  O35  1  0.25000000  0.12740082  0.86542852  1
