# generated using pymatgen
data_Na4ZnSi3Sn3(SO8)3
_symmetry_space_group_name_H-M   'P 1'
_cell_length_a   8.98021584
_cell_length_b   8.94946068
_cell_length_c   22.74402202
_cell_angle_alpha   90.20563181
_cell_angle_beta   90.30037806
_cell_angle_gamma   120.10061062
_symmetry_Int_Tables_number   1
_chemical_formula_structural   Na4ZnSi3Sn3(SO8)3
_chemical_formula_sum   'Na12 Zn3 Si9 Sn9 S9 O72'
_cell_volume   1581.33237349
_cell_formula_units_Z   3
loop_
 _symmetry_equiv_pos_site_id
 _symmetry_equiv_pos_as_xyz
  1  'x, y, z'
loop_
 _atom_site_type_symbol
 _atom_site_label
 _atom_site_symmetry_multiplicity
 _atom_site_fract_x
 _atom_site_fract_y
 _atom_site_fract_z
 _atom_site_occupancy
  Na  Na0  1  0.63235525  0.00447616  0.23951575  1
  Na  Na1  1  0.37801952  0.35702213  0.25233550  1
  Na  Na2  1  0.98610210  0.63868632  0.24546232  1
  Na  Na3  1  0.99280348  0.35610576  0.75708916  1
  Na  Na4  1  0.38200165  0.01760787  0.76030401  1
  Na  Na5  1  0.70300971  0.67819690  0.40141742  1
  Na  Na6  1  0.00894195  0.02819946  0.48685623  1
  Na  Na7  1  0.00385798  0.01585576  0.00016667  1
  Na  Na8  1  0.65760312  0.32613320  0.83661672  1
  Na  Na9  1  0.64160794  0.31138555  0.32708095  1
  Na  Na10  1  0.35403903  0.68823440  0.16303178  1
  Na  Na11  1  0.35892243  0.66248320  0.67193910  1
  Zn  Zn12  1  0.00329274  0.00363015  0.35118146  1
  Zn  Zn13  1  0.65664755  0.32282063  0.69072925  1
  Zn  Zn14  1  0.64098716  0.31010070  0.18290302  1
  Si  Si15  1  0.28452456  0.99717286  0.25202342  1
  Si  Si16  1  0.70613668  0.70038586  0.25267396  1
  Si  Si17  1  0.29786636  0.29863559  0.74884445  1
  Si  Si18  1  0.70519450  0.99284973  0.74999973  1
  Si  Si19  1  0.67141592  0.03396022  0.08726583  1
  Si  Si20  1  0.04323155  0.38463661  0.91798887  1
  Si  Si21  1  0.32754038  0.96194168  0.91491204  1
  Si  Si22  1  0.63547929  0.96634469  0.41777118  1
  Si  Si23  1  0.32446398  0.36703309  0.41725651  1
  Sn  Sn24  1  0.01401734  0.02628334  0.85615771  1
  Sn  Sn25  1  0.99110202  0.00721100  0.65124285  1
  Sn  Sn26  1  0.98938426  0.98763037  0.14949267  1
  Sn  Sn27  1  0.66884844  0.31096621  0.98039371  1
  Sn  Sn28  1  0.65463716  0.32497805  0.47917721  1
  Sn  Sn29  1  0.33436719  0.68006410  0.01808645  1
  Sn  Sn30  1  0.34192269  0.66381954  0.51429905  1
  Sn  Sn31  1  0.35014683  0.68015127  0.31536933  1
  Sn  Sn32  1  0.34206115  0.66784814  0.81872081  1
  S  S33  1  0.00363807  0.29598455  0.25150106  1
  S  S34  1  0.99905059  0.71172145  0.74876219  1
  S  S35  1  0.96368572  0.33963870  0.58380241  1
  S  S36  1  0.36040102  0.02701594  0.58472897  1
  S  S37  1  0.67284148  0.62906113  0.58457120  1
  S  S38  1  0.95647584  0.62312243  0.08346675  1
  S  S39  1  0.37137499  0.33511449  0.08261817  1
  S  S40  1  0.63195093  0.66513744  0.91876050  1
  S  S41  1  0.04067472  0.66304707  0.41978993  1
  O  O42  1  0.20157179  0.04342235  0.30552821  1
  O  O43  1  0.81513025  0.77603083  0.31276335  1
  O  O44  1  0.96945792  0.18868780  0.30311736  1
  O  O45  1  0.21162976  0.16255766  0.80263736  1
  O  O46  1  0.97374233  0.79100180  0.80100013  1
  O  O47  1  0.83389865  0.02559575  0.80501702  1
  O  O48  1  0.77144130  0.94444056  0.68863231  1
  O  O49  1  0.16960903  0.22071159  0.68931106  1
  O  O50  1  0.03297223  0.82187149  0.69428984  1
  O  O51  1  0.78557129  0.83784314  0.19756039  1
  O  O52  1  0.04301828  0.22484780  0.19742738  1
  O  O53  1  0.16797156  0.95699868  0.19002067  1
  O  O54  1  0.88595142  0.35495217  0.63803305  1
  O  O55  1  0.46280341  0.10360528  0.63800806  1
  O  O56  1  0.65665845  0.52376596  0.63510508  1
  O  O57  1  0.87859439  0.53331734  0.13806627  1
  O  O58  1  0.64527309  0.11164483  0.14717439  1
  O  O59  1  0.46726410  0.36119856  0.13790291  1
  O  O60  1  0.46066121  0.31744010  0.03009839  1
  O  O61  1  0.84859015  0.53834191  0.03033746  1
  O  O62  1  0.69921746  0.14761460  0.02761421  1
  O  O63  1  0.44095864  0.13494160  0.53125263  1
  O  O64  1  0.69042922  0.55250602  0.52782165  1
  O  O65  1  0.85714640  0.32044287  0.53044526  1
  O  O66  1  0.55255689  0.69765649  0.96993389  1
  O  O67  1  0.17260936  0.47402418  0.97330610  1
  O  O68  1  0.30674654  0.84985155  0.97251768  1
  O  O69  1  0.54292488  0.84880532  0.47686721  1
  O  O70  1  0.29061820  0.44684519  0.47838970  1
  O  O71  1  0.14483389  0.68410898  0.47395689  1
  O  O72  1  0.11562028  0.63247598  0.36620418  1
  O  O73  1  0.51514649  0.89180388  0.35848839  1
  O  O74  1  0.36672712  0.49579520  0.36024926  1
  O  O75  1  0.12420587  0.48311947  0.85477517  1
  O  O76  1  0.36484669  0.88427434  0.85405330  1
  O  O77  1  0.52594961  0.62994862  0.86350470  1
  O  O78  1  0.01998892  0.81331703  0.41706156  1
  O  O79  1  0.81399398  0.96891099  0.41393171  1
  O  O80  1  0.17084283  0.17614857  0.41251141  1
  O  O81  1  0.01240497  0.18756796  0.91631040  1
  O  O82  1  0.14539110  0.96162569  0.91034849  1
  O  O83  1  0.80291079  0.81911759  0.91087909  1
  O  O84  1  0.98204835  0.18015618  0.58314805  1
  O  O85  1  0.18390141  0.00657173  0.58823296  1
  O  O86  1  0.83179519  0.80602103  0.58635715  1
  O  O87  1  0.98352046  0.80276696  0.08295600  1
  O  O88  1  0.84863066  0.01752900  0.08768515  1
  O  O89  1  0.19827179  0.17535836  0.08486936  1
  O  O90  1  0.69856234  0.17143101  0.74456328  1
  O  O91  1  0.48451759  0.31736940  0.74239837  1
  O  O92  1  0.85191073  0.53700392  0.74077319  1
  O  O93  1  0.68614721  0.51111412  0.24091938  1
  O  O94  1  0.85742399  0.32500068  0.24263635  1
  O  O95  1  0.48160349  0.15454332  0.24622369  1
  O  O96  1  0.64738059  0.51000371  0.92642078  1
  O  O97  1  0.85723806  0.37777540  0.92144922  1
  O  O98  1  0.49315667  0.16022427  0.91965436  1
  O  O99  1  0.65535116  0.15876911  0.42438552  1
  O  O100  1  0.52038952  0.38500874  0.42447006  1
  O  O101  1  0.86624390  0.50437024  0.42549468  1
  O  O102  1  0.34913490  0.48915555  0.07632396  1
  O  O103  1  0.12936738  0.63492441  0.07901316  1
  O  O104  1  0.49759608  0.83770691  0.07901835  1
  O  O105  1  0.34005657  0.85029107  0.57744519  1
  O  O106  1  0.51575468  0.64945442  0.58175983  1
  O  O107  1  0.13889807  0.49799496  0.57911607  1
  O  O108  1  0.28720885  0.81034225  0.25645660  1
  O  O109  1  0.50836842  0.67654756  0.25327648  1
  O  O110  1  0.16350941  0.47113024  0.25786335  1
  O  O111  1  0.29890416  0.48200810  0.75643368  1
  O  O112  1  0.15928704  0.69884790  0.75240787  1
  O  O113  1  0.50724827  0.83067499  0.75615504  1
