# generated using pymatgen
data_Na6La5Nb3Si6(SO8)6
_symmetry_space_group_name_H-M   'P 1'
_cell_length_a   18.83501619
_cell_length_b   9.41370395
_cell_length_c   24.00213724
_cell_angle_alpha   90.52063502
_cell_angle_beta   89.77268213
_cell_angle_gamma   120.12833019
_symmetry_Int_Tables_number   1
_chemical_formula_structural   Na6La5Nb3Si6(SO8)6
_chemical_formula_sum   'Na18 La15 Nb9 Si18 S18 O144'
_cell_volume   3680.66245290
_cell_formula_units_Z   3
loop_
 _symmetry_equiv_pos_site_id
 _symmetry_equiv_pos_as_xyz
  1  'x, y, z'
loop_
 _atom_site_type_symbol
 _atom_site_label
 _atom_site_symmetry_multiplicity
 _atom_site_fract_x
 _atom_site_fract_y
 _atom_site_fract_z
 _atom_site_occupancy
  Na  Na0  1  0.49134486  0.69719230  0.90792960  1
  Na  Na1  1  0.15749826  0.32119491  0.90831183  1
  Na  Na2  1  0.49081167  0.29392864  0.41167461  1
  Na  Na3  1  0.97928621  0.29080897  0.40467106  1
  Na  Na4  1  0.16091971  0.01775808  0.40836685  1
  Na  Na5  1  0.66131541  0.02764806  0.41611812  1
  Na  Na6  1  0.97865963  0.96429054  0.49238215  1
  Na  Na7  1  0.49311517  0.98687766  0.49475103  1
  Na  Na8  1  0.98988882  0.00291042  0.00434584  1
  Na  Na9  1  0.49719411  0.98621105  0.99056587  1
  Na  Na10  1  0.33110087  0.32609063  0.82225091  1
  Na  Na11  1  0.83043859  0.34753513  0.83658522  1
  Na  Na12  1  0.33776303  0.32517547  0.33233428  1
  Na  Na13  1  0.84073686  0.33867468  0.33595287  1
  Na  Na14  1  0.15332402  0.65811693  0.16785147  1
  Na  Na15  1  0.66689760  0.64819032  0.17315353  1
  Na  Na16  1  0.16863039  0.66955757  0.67816868  1
  Na  Na17  1  0.66488380  0.65920989  0.66641538  1
  La  La18  1  0.99314158  0.98694986  0.34677713  1
  La  La19  1  0.49045693  0.99050472  0.34850124  1
  La  La20  1  0.99522144  0.99343765  0.85087740  1
  La  La21  1  0.49977010  0.00452220  0.84828671  1
  La  La22  1  0.33481374  0.33314437  0.68807463  1
  La  La23  1  0.83390525  0.34013101  0.68675746  1
  La  La24  1  0.33624364  0.32914814  0.18842543  1
  La  La25  1  0.84004944  0.33801724  0.18345304  1
  La  La26  1  0.33041022  0.33897048  0.97994578  1
  La  La27  1  0.33982075  0.34048700  0.47929776  1
  La  La28  1  0.83372447  0.34329781  0.47705240  1
  La  La29  1  0.16394114  0.66593254  0.01842253  1
  La  La30  1  0.66908261  0.66936245  0.02310798  1
  La  La31  1  0.16979554  0.67210369  0.52023593  1
  La  La32  1  0.66926946  0.66860303  0.51746794  1
  Nb  Nb33  1  0.00610366  0.99759811  0.65845466  1
  Nb  Nb34  1  0.50008869  0.00458889  0.66349693  1
  Nb  Nb35  1  0.00494965  0.99529905  0.15570276  1
  Nb  Nb36  1  0.51250019  0.03029317  0.15088404  1
  Nb  Nb37  1  0.83591258  0.34130410  0.98068855  1
  Nb  Nb38  1  0.16002185  0.67715885  0.30936602  1
  Nb  Nb39  1  0.66481259  0.65218805  0.32031379  1
  Nb  Nb40  1  0.16329836  0.64561986  0.81049394  1
  Nb  Nb41  1  0.66373620  0.67896134  0.80945284  1
  Si  Si42  1  0.14677203  0.99191116  0.25407361  1
  Si  Si43  1  0.00845536  0.30343415  0.25372051  1
  Si  Si44  1  0.51369950  0.31973107  0.25347912  1
  Si  Si45  1  0.14597469  0.29968102  0.75524262  1
  Si  Si46  1  0.64815771  0.31276372  0.75421330  1
  Si  Si47  1  0.00883533  0.70231124  0.75368749  1
  Si  Si48  1  0.50594419  0.71162715  0.75415743  1
  Si  Si49  1  0.34229157  0.98044088  0.75429214  1
  Si  Si50  1  0.97759687  0.64427724  0.08298864  1
  Si  Si51  1  0.68914049  0.32578017  0.08288417  1
  Si  Si52  1  0.31039902  0.66094806  0.91450761  1
  Si  Si53  1  0.01572611  0.38026827  0.91560991  1
  Si  Si54  1  0.67487878  0.96920893  0.91861388  1
  Si  Si55  1  0.30708529  0.95890360  0.41224293  1
  Si  Si56  1  0.81241314  0.96275950  0.41313665  1
  Si  Si57  1  0.66724303  0.36812958  0.41476168  1
  Si  Si58  1  0.02188156  0.66535017  0.41480450  1
  Si  Si59  1  0.52082423  0.66132455  0.41462738  1
  S  S60  1  0.64225051  0.98274068  0.24715642  1
  S  S61  1  0.34595979  0.71367108  0.24420486  1
  S  S62  1  0.84435917  0.71035031  0.24490442  1
  S  S63  1  0.84589712  0.97900037  0.74765893  1
  S  S64  1  0.48669221  0.31049255  0.58634633  1
  S  S65  1  0.98540811  0.30972186  0.58642757  1
  S  S66  1  0.16970201  0.02961360  0.58627506  1
  S  S67  1  0.66967088  0.02842753  0.58698562  1
  S  S68  1  0.34465657  0.65896245  0.58815563  1
  S  S69  1  0.84450408  0.66323521  0.58917182  1
  S  S70  1  0.48413888  0.65639414  0.08631815  1
  S  S71  1  0.34580601  0.03077546  0.08765062  1
  S  S72  1  0.84585467  0.05296441  0.08046634  1
  S  S73  1  0.17222250  0.31225186  0.08754922  1
  S  S74  1  0.80957087  0.64410681  0.91671778  1
  S  S75  1  0.52385774  0.39568229  0.91163541  1
  S  S76  1  0.16994014  0.96415873  0.91248456  1
  S  S77  1  0.16838457  0.37841530  0.41203745  1
  O  O78  1  0.11286319  0.01233383  0.31247733  1
  O  O79  1  0.60735914  0.00041831  0.29973774  1
  O  O80  1  0.38841335  0.76822808  0.29780403  1
  O  O81  1  0.88737110  0.77188785  0.29795568  1
  O  O82  1  0.50022382  0.22106798  0.30973715  1
  O  O83  1  0.99929538  0.21489946  0.31227264  1
  O  O84  1  0.10866854  0.20591812  0.81219640  1
  O  O85  1  0.61293935  0.21012697  0.80917082  1
  O  O86  1  0.49514331  0.77001154  0.81403286  1
  O  O87  1  0.99012937  0.78493014  0.80503392  1
  O  O88  1  0.39693614  0.02019533  0.80852087  1
  O  O89  1  0.88993429  0.00785794  0.80024898  1
  O  O90  1  0.40479699  0.96865223  0.70021048  1
  O  O91  1  0.89340742  0.96127282  0.70000548  1
  O  O92  1  0.07870369  0.18091014  0.70123284  1
  O  O93  1  0.57974970  0.19835375  0.70043188  1
  O  O94  1  0.01350093  0.83677689  0.69780693  1
  O  O95  1  0.51648058  0.84641941  0.70328734  1
  O  O96  1  0.39774559  0.82462351  0.19828227  1
  O  O97  1  0.89751265  0.82017331  0.19780140  1
  O  O98  1  0.01165534  0.17724170  0.20076728  1
  O  O99  1  0.51928801  0.19686796  0.19842987  1
  O  O100  1  0.07934125  0.96789999  0.20014025  1
  O  O101  1  0.58529032  0.97642359  0.19923539  1
  O  O102  1  0.43932105  0.32780275  0.63172393  1
  O  O103  1  0.94022095  0.33106859  0.63247880  1
  O  O104  1  0.22388022  0.12207429  0.63235379  1
  O  O105  1  0.72566383  0.12379969  0.63264302  1
  O  O106  1  0.33534433  0.55252125  0.63499164  1
  O  O107  1  0.83712383  0.55671863  0.63534607  1
  O  O108  1  0.43780917  0.54348463  0.13169308  1
  O  O109  1  0.93858956  0.53883501  0.13734474  1
  O  O110  1  0.33628278  0.11783064  0.13535786  1
  O  O111  1  0.83221397  0.11627321  0.13237695  1
  O  O112  1  0.22749685  0.32842512  0.13293541  1
  O  O113  1  0.73404342  0.33784251  0.13940465  1
  O  O114  1  0.20489507  0.28952932  0.03335900  1
  O  O115  1  0.74018220  0.30622869  0.02793791  1
  O  O116  1  0.44034307  0.58575949  0.03216425  1
  O  O117  1  0.91424514  0.52885426  0.02775287  1
  O  O118  1  0.35828638  0.12449361  0.03571980  1
  O  O119  1  0.85103284  0.15649540  0.03145712  1
  O  O120  1  0.20145492  0.11431898  0.53253201  1
  O  O121  1  0.70461213  0.11203893  0.53268931  1
  O  O122  1  0.35113737  0.58228678  0.53478998  1
  O  O123  1  0.85564743  0.59721027  0.53552705  1
  O  O124  1  0.44397003  0.29512941  0.53190700  1
  O  O125  1  0.94221937  0.29161958  0.53256741  1
  O  O126  1  0.26660519  0.66747471  0.97100566  1
  O  O127  1  0.77084220  0.65960049  0.96748815  1
  O  O128  1  0.07459601  0.45679177  0.96872597  1
  O  O129  1  0.56640200  0.47059591  0.96346955  1
  O  O130  1  0.16604858  0.88414860  0.96555570  1
  O  O131  1  0.66090844  0.84451767  0.96792894  1
  O  O132  1  0.26610427  0.86027096  0.46867152  1
  O  O133  1  0.77022790  0.86246005  0.46881082  1
  O  O134  1  0.16259941  0.45207544  0.46508840  1
  O  O135  1  0.65409710  0.45112080  0.46922913  1
  O  O136  1  0.07429438  0.67389234  0.46851159  1
  O  O137  1  0.56860411  0.67626698  0.47126614  1
  O  O138  1  0.07613653  0.65776843  0.35680488  1
  O  O139  1  0.57757949  0.64948967  0.35920359  1
  O  O140  1  0.24943043  0.84038976  0.35678246  1
  O  O141  1  0.75443044  0.84303633  0.35707576  1
  O  O142  1  0.17278753  0.47869300  0.36357545  1
  O  O143  1  0.67129288  0.48996780  0.35953793  1
  O  O144  1  0.06847878  0.49877641  0.85954680  1
  O  O145  1  0.57399008  0.49789667  0.86221220  1
  O  O146  1  0.17167560  0.87036886  0.86368478  1
  O  O147  1  0.68284709  0.85650762  0.86007477  1
  O  O148  1  0.24659776  0.64571928  0.86057584  1
  O  O149  1  0.76206069  0.63092959  0.86597373  1
  O  O150  1  0.01642968  0.83139858  0.41414162  1
  O  O151  1  0.51671783  0.82669129  0.40769080  1
  O  O152  1  0.40279969  0.00860224  0.41111357  1
  O  O153  1  0.90824325  0.00950404  0.41320290  1
  O  O154  1  0.09441512  0.21110178  0.41015090  1
  O  O155  1  0.58811023  0.18512658  0.40923016  1
  O  O156  1  0.00173023  0.19578751  0.90894727  1
  O  O157  1  0.50859166  0.22774982  0.90923639  1
  O  O158  1  0.09958062  0.99502627  0.91207298  1
  O  O159  1  0.59349544  0.98343407  0.91302532  1
  O  O160  1  0.40577102  0.80584315  0.91489164  1
  O  O161  1  0.89442545  0.78514892  0.91507750  1
  O  O162  1  0.49081115  0.15619562  0.59373809  1
  O  O163  1  0.98962812  0.15551418  0.59578026  1
  O  O164  1  0.08635850  0.01990408  0.59595467  1
  O  O165  1  0.58802608  0.01846165  0.59511263  1
  O  O166  1  0.42149632  0.82322682  0.59441433  1
  O  O167  1  0.92046062  0.82996789  0.59744804  1
  O  O168  1  0.48879241  0.81835348  0.09503463  1
  O  O169  1  0.98030787  0.82857607  0.09678608  1
  O  O170  1  0.42383604  0.02133606  0.09684147  1
  O  O171  1  0.92313135  0.04537975  0.08353189  1
  O  O172  1  0.08975200  0.15556229  0.09585629  1
  O  O173  1  0.59147248  0.14739059  0.09751085  1
  O  O174  1  0.32444708  0.12467381  0.73851753  1
  O  O175  1  0.82971572  0.11320327  0.73800814  1
  O  O176  1  0.23599361  0.33375113  0.74237701  1
  O  O177  1  0.73837278  0.34722703  0.73912846  1
  O  O178  1  0.43861723  0.52700486  0.74000442  1
  O  O179  1  0.93515883  0.52083746  0.74051204  1
  O  O180  1  0.33064054  0.54420119  0.23569035  1
  O  O181  1  0.82903447  0.54318481  0.23824180  1
  O  O182  1  0.43835328  0.34914398  0.24090961  1
  O  O183  1  0.93378171  0.33619996  0.24452425  1
  O  O184  1  0.23645470  0.14153098  0.24143455  1
  O  O185  1  0.72375659  0.12540331  0.24022260  1
  O  O186  1  0.30861116  0.47823191  0.91405670  1
  O  O187  1  0.81447059  0.48672603  0.92051665  1
  O  O188  1  0.44485695  0.39908084  0.90996638  1
  O  O189  1  0.92514031  0.37138464  0.92805576  1
  O  O190  1  0.24709261  0.13186441  0.91240259  1
  O  O191  1  0.76054688  0.15058880  0.92894971  1
  O  O192  1  0.30251767  0.13149889  0.41219426  1
  O  O193  1  0.80816416  0.13381929  0.41093689  1
  O  O194  1  0.24266625  0.35873183  0.41282976  1
  O  O195  1  0.75114589  0.35896339  0.41209016  1
  O  O196  1  0.43408205  0.48309522  0.41200518  1
  O  O197  1  0.93608863  0.48919995  0.41200466  1
  O  O198  1  0.15935613  0.45351755  0.08718597  1
  O  O199  1  0.66174736  0.46011491  0.07443028  1
  O  O200  1  0.07173098  0.69196838  0.07506641  1
  O  O201  1  0.56759934  0.67971781  0.08567139  1
  O  O202  1  0.27577173  0.86315006  0.08555285  1
  O  O203  1  0.77548898  0.88306857  0.07445827  1
  O  O204  1  0.15442480  0.86027040  0.58625103  1
  O  O205  1  0.65820641  0.86035686  0.58790485  1
  O  O206  1  0.27213960  0.68191072  0.58721467  1
  O  O207  1  0.77215510  0.68510056  0.58928599  1
  O  O208  1  0.07020386  0.45280741  0.58563986  1
  O  O209  1  0.57054776  0.45544898  0.58712112  1
  O  O210  1  0.14951160  0.81569557  0.25515656  1
  O  O211  1  0.64301094  0.82644964  0.24462715  1
  O  O212  1  0.26589327  0.70995221  0.24634328  1
  O  O213  1  0.76649860  0.71472275  0.24505284  1
  O  O214  1  0.09800010  0.48612963  0.25793145  1
  O  O215  1  0.60148947  0.49894189  0.25569394  1
  O  O216  1  0.14438420  0.47505069  0.75657566  1
  O  O217  1  0.65241535  0.49567243  0.76195712  1
  O  O218  1  0.09628195  0.70535009  0.75839868  1
  O  O219  1  0.59804991  0.71145795  0.75864988  1
  O  O220  1  0.25569909  0.80230025  0.75895644  1
  O  O221  1  0.76487656  0.81901602  0.75127747  1
