# generated using pymatgen
data_Na7MgNb3(SiO4)6
_symmetry_space_group_name_H-M   'P 1'
_cell_length_a   9.11705245
_cell_length_b   9.11705213
_cell_length_c   22.51354908
_cell_angle_alpha   90.00000000
_cell_angle_beta   90.00000000
_cell_angle_gamma   120.00000113
_symmetry_Int_Tables_number   1
_chemical_formula_structural   Na7MgNb3(SiO4)6
_chemical_formula_sum   'Na21 Mg3 Nb9 Si18 O72'
_cell_volume   1620.62853485
_cell_formula_units_Z   3
loop_
 _symmetry_equiv_pos_site_id
 _symmetry_equiv_pos_as_xyz
  1  'x, y, z'
loop_
 _atom_site_type_symbol
 _atom_site_label
 _atom_site_symmetry_multiplicity
 _atom_site_fract_x
 _atom_site_fract_y
 _atom_site_fract_z
 _atom_site_occupancy
  Na  Na0  1  0.64031634  0.02020501  0.24473365  1
  Na  Na1  1  0.37988867  0.35968366  0.24473365  1
  Na  Na2  1  0.97979499  0.62011133  0.24473365  1
  Na  Na3  1  0.63206244  0.61503164  0.74615865  1
  Na  Na4  1  0.98296921  0.36793756  0.74615865  1
  Na  Na5  1  0.38496836  0.01703079  0.74615865  1
  Na  Na6  1  0.30851497  0.33509517  0.58587884  1
  Na  Na7  1  0.02658120  0.69148503  0.58587884  1
  Na  Na8  1  0.66490483  0.97341880  0.58587884  1
  Na  Na9  1  0.31055230  0.97595594  0.08630924  1
  Na  Na10  1  0.66540464  0.68944770  0.08630924  1
  Na  Na11  1  0.02404406  0.33459536  0.08630924  1
  Na  Na12  1  0.96510287  0.28243184  0.40688675  1
  Na  Na13  1  0.31732797  0.03489713  0.40688675  1
  Na  Na14  1  0.71756816  0.68267203  0.40688675  1
  Na  Na15  1  -0.00000000  -0.00000000  0.49240293  1
  Na  Na16  1  -0.00000000  -0.00000000  0.99848292  1
  Na  Na17  1  0.66666700  0.33333300  0.83199808  1
  Na  Na18  1  0.66666700  0.33333300  0.32142954  1
  Na  Na19  1  0.33333300  0.66666700  0.16590896  1
  Na  Na20  1  0.33333300  0.66666700  0.66851643  1
  Mg  Mg21  1  -0.00000000  -0.00000000  0.35179675  1
  Mg  Mg22  1  0.66666700  0.33333300  0.68682832  1
  Mg  Mg23  1  0.66666700  0.33333300  0.18437354  1
  Nb  Nb24  1  -0.00000000  -0.00000000  0.85707109  1
  Nb  Nb25  1  -0.00000000  -0.00000000  0.64710536  1
  Nb  Nb26  1  -0.00000000  -0.00000000  0.14926493  1
  Nb  Nb27  1  0.66666700  0.33333300  0.97824619  1
  Nb  Nb28  1  0.66666700  0.33333300  0.47991302  1
  Nb  Nb29  1  0.33333300  0.66666700  0.01791794  1
  Nb  Nb30  1  0.33333300  0.66666700  0.51890836  1
  Nb  Nb31  1  0.33333300  0.66666700  0.31017180  1
  Nb  Nb32  1  0.33333300  0.66666700  0.81465770  1
  Si  Si33  1  0.29344687  0.00380169  0.25412583  1
  Si  Si34  1  0.71035482  0.70655313  0.25412583  1
  Si  Si35  1  0.99619831  0.28964518  0.25412583  1
  Si  Si36  1  0.29064149  0.29096478  0.75140564  1
  Si  Si37  1  0.00032329  0.70935851  0.75140564  1
  Si  Si38  1  0.70903522  0.99967671  0.75140564  1
  Si  Si39  1  0.95732349  0.33443038  0.58597256  1
  Si  Si40  1  0.37710790  0.04267651  0.58597256  1
  Si  Si41  1  0.66556962  0.62289210  0.58597256  1
  Si  Si42  1  0.95678300  0.62274943  0.08503877  1
  Si  Si43  1  0.66596742  0.04321700  0.08503877  1
  Si  Si44  1  0.37725057  0.33403258  0.08503877  1
  Si  Si45  1  0.62570295  0.66465620  0.91637338  1
  Si  Si46  1  0.03895225  0.37429705  0.91637338  1
  Si  Si47  1  0.33534380  0.96104775  0.91637338  1
  Si  Si48  1  0.62479952  0.95928418  0.41629245  1
  Si  Si49  1  0.33448366  0.37520048  0.41629245  1
  Si  Si50  1  0.04071582  0.66551634  0.41629245  1
  O  O51  1  0.20802439  0.02851475  0.31228274  1
  O  O52  1  0.82049036  0.79197561  0.31228274  1
  O  O53  1  0.97148525  0.17950964  0.31228274  1
  O  O54  1  0.18599379  0.16625504  0.80641514  1
  O  O55  1  0.98026125  0.81400621  0.80641514  1
  O  O56  1  0.83374496  0.01973875  0.80641514  1
  O  O57  1  0.80080054  0.96830737  0.69103844  1
  O  O58  1  0.16750683  0.19919946  0.69103844  1
  O  O59  1  0.03169263  0.83249317  0.69103844  1
  O  O60  1  0.80287930  0.83313245  0.19357300  1
  O  O61  1  0.03025315  0.19712070  0.19357300  1
  O  O62  1  0.16686755  0.96974685  0.19357300  1
  O  O63  1  0.88421294  0.37693887  0.64363787  1
  O  O64  1  0.49272693  0.11578706  0.64363787  1
  O  O65  1  0.62306113  0.50727307  0.64363787  1
  O  O66  1  0.88815736  0.51090638  0.14332538  1
  O  O67  1  0.62275002  0.11184264  0.14332538  1
  O  O68  1  0.48909362  0.37724998  0.14332538  1
  O  O69  1  0.47149231  0.30190861  0.02750216  1
  O  O70  1  0.83041730  0.52850769  0.02750216  1
  O  O71  1  0.69809139  0.16958270  0.02750216  1
  O  O72  1  0.46900492  0.16569583  0.52680071  1
  O  O73  1  0.69669191  0.53099508  0.52680071  1
  O  O74  1  0.83430417  0.30330809  0.52680071  1
  O  O75  1  0.52923288  0.68883741  0.97411130  1
  O  O76  1  0.15960353  0.47076712  0.97411130  1
  O  O77  1  0.31116259  0.84039647  0.97411130  1
  O  O78  1  0.52261924  0.84096670  0.47486722  1
  O  O79  1  0.31834646  0.47738076  0.47486722  1
  O  O80  1  0.15903330  0.68165354  0.47486722  1
  O  O81  1  0.13398601  0.63189116  0.35917413  1
  O  O82  1  0.49790415  0.86601399  0.35917413  1
  O  O83  1  0.36810884  0.50209585  0.35917413  1
  O  O84  1  0.13749870  0.49544979  0.85771384  1
  O  O85  1  0.35795009  0.86250130  0.85771384  1
  O  O86  1  0.50455021  0.64204991  0.85771384  1
  O  O87  1  0.02278347  0.83063684  0.41652921  1
  O  O88  1  0.80785336  0.97721653  0.41652921  1
  O  O89  1  0.16936316  0.19214664  0.41652921  1
  O  O90  1  0.02445480  0.18933384  0.91028387  1
  O  O91  1  0.16487904  0.97554520  0.91028387  1
  O  O92  1  0.81066616  0.83512096  0.91028387  1
  O  O93  1  0.97508000  0.16193894  0.58813484  1
  O  O94  1  0.18685893  0.02492000  0.58813484  1
  O  O95  1  0.83806106  0.81314107  0.58813484  1
  O  O96  1  0.97685840  0.81469912  0.08829660  1
  O  O97  1  0.83784072  0.02314160  0.08829660  1
  O  O98  1  0.18530088  0.16215928  0.08829660  1
  O  O99  1  0.69074763  0.16499993  0.74768023  1
  O  O100  1  0.47425330  0.30925237  0.74768023  1
  O  O101  1  0.83500007  0.52574670  0.74768023  1
  O  O102  1  0.68105403  0.52004491  0.24527201  1
  O  O103  1  0.83899188  0.31894597  0.24527201  1
  O  O104  1  0.47995509  0.16100812  0.24527201  1
  O  O105  1  0.64004658  0.49477574  0.92259175  1
  O  O106  1  0.85473017  0.35995342  0.92259175  1
  O  O107  1  0.50522426  0.14526983  0.92259175  1
  O  O108  1  0.63317725  0.14425835  0.42328642  1
  O  O109  1  0.51108210  0.36682275  0.42328642  1
  O  O110  1  0.85574165  0.48891790  0.42328642  1
  O  O111  1  0.34637938  0.49795983  0.07426237  1
  O  O112  1  0.15157945  0.65362062  0.07426237  1
  O  O113  1  0.50204017  0.84842055  0.07426237  1
  O  O114  1  0.34560041  0.84876495  0.57586197  1
  O  O115  1  0.50316355  0.65439959  0.57586197  1
  O  O116  1  0.15123505  0.49683645  0.57586197  1
  O  O117  1  0.29920443  0.82164889  0.25540929  1
  O  O118  1  0.52244347  0.70079557  0.25540929  1
  O  O119  1  0.17835111  0.47755653  0.25540929  1
  O  O120  1  0.29897964  0.47694350  0.75444212  1
  O  O121  1  0.17796286  0.70102036  0.75444212  1
  O  O122  1  0.52305650  0.82203714  0.75444212  1
