# generated using pymatgen
data_NaHfGaSi(SO6)2
_symmetry_space_group_name_H-M   'P 1'
_cell_length_a   8.73109890
_cell_length_b   8.78750803
_cell_length_c   22.93636215
_cell_angle_alpha   89.03446757
_cell_angle_beta   90.00000000
_cell_angle_gamma   119.78787943
_symmetry_Int_Tables_number   1
_chemical_formula_structural   NaHfGaSi(SO6)2
_chemical_formula_sum   'Na6 Hf6 Ga6 Si6 S12 O72'
_cell_volume   1526.97617175
_cell_formula_units_Z   6
loop_
 _symmetry_equiv_pos_site_id
 _symmetry_equiv_pos_as_xyz
  1  'x, y, z'
loop_
 _atom_site_type_symbol
 _atom_site_label
 _atom_site_symmetry_multiplicity
 _atom_site_fract_x
 _atom_site_fract_y
 _atom_site_fract_z
 _atom_site_occupancy
  Na  Na0  1  0.01474477  0.01041829  0.50396023  1
  Na  Na1  1  0.99567351  0.01041829  0.00396023  1
  Na  Na2  1  0.67791352  0.32987505  0.83651342  1
  Na  Na3  1  0.65196253  0.32987505  0.33651342  1
  Na  Na4  1  0.34024302  0.68200552  0.17004761  1
  Na  Na5  1  0.34176150  0.68200552  0.67004761  1
  Hf  Hf6  1  0.01674312  0.01140448  0.35484031  1
  Hf  Hf7  1  0.99466136  0.01140448  0.85484031  1
  Hf  Hf8  1  0.65952012  0.31440628  0.68706371  1
  Hf  Hf9  1  0.65488717  0.31440628  0.18706371  1
  Hf  Hf10  1  0.33394293  0.66555798  0.02054762  1
  Hf  Hf11  1  0.33161405  0.66555798  0.52054762  1
  Ga  Ga12  1  0.99670036  0.99501802  0.64956529  1
  Ga  Ga13  1  0.99831765  0.99501802  0.14956529  1
  Ga  Ga14  1  0.69562997  0.32450049  0.98141787  1
  Ga  Ga15  1  0.62887151  0.32450049  0.48141787  1
  Ga  Ga16  1  0.33885575  0.67131277  0.31461882  1
  Ga  Ga17  1  0.33245602  0.67131277  0.81461882  1
  Si  Si18  1  0.28210501  0.98416520  0.24827093  1
  Si  Si19  1  0.70206019  0.98416520  0.74827093  1
  Si  Si20  1  0.36168951  0.03880378  0.58442891  1
  Si  Si21  1  0.67711528  0.03880378  0.08442891  1
  Si  Si22  1  0.04663568  0.38775735  0.91482629  1
  Si  Si23  1  0.34112067  0.38775735  0.41482629  1
  S  S24  1  0.70898480  0.71183420  0.24984814  1
  S  S25  1  0.00608266  0.29427200  0.24881994  1
  S  S26  1  0.28818934  0.29427200  0.74881994  1
  S  S27  1  0.00284939  0.71183420  0.74984814  1
  S  S28  1  0.95069209  0.32838548  0.58114282  1
  S  S29  1  0.67317326  0.62532075  0.58240028  1
  S  S30  1  0.95214849  0.62532075  0.08240028  1
  S  S31  1  0.37769439  0.32838548  0.08114282  1
  S  S32  1  0.62132286  0.65700387  0.91663178  1
  S  S33  1  0.33900561  0.96174821  0.91569397  1
  S  S34  1  0.62274160  0.96174821  0.41569397  1
  S  S35  1  0.03568001  0.65700387  0.41663178  1
  O  O36  1  0.19703453  0.02182557  0.30588581  1
  O  O37  1  0.81529630  0.79288332  0.30261977  1
  O  O38  1  0.96849187  0.18080878  0.30233029  1
  O  O39  1  0.21231690  0.18080878  0.80233029  1
  O  O40  1  0.97758702  0.79288332  0.80261977  1
  O  O41  1  0.82479103  0.02182557  0.80588581  1
  O  O42  1  0.79967208  0.96381980  0.69065806  1
  O  O43  1  0.18316531  0.21229348  0.69679860  1
  O  O44  1  0.03259875  0.81979821  0.69636563  1
  O  O45  1  0.78719945  0.81979821  0.19636563  1
  O  O46  1  0.02912817  0.21229348  0.19679860  1
  O  O47  1  0.16414772  0.96381980  0.19065806  1
  O  O48  1  0.87396739  0.36089019  0.63484857  1
  O  O49  1  0.48979273  0.13015444  0.64057087  1
  O  O50  1  0.64462271  0.51752160  0.63592359  1
  O  O51  1  0.87289988  0.51752160  0.13592359  1
  O  O52  1  0.64036272  0.13015444  0.14057087  1
  O  O53  1  0.48692380  0.36089019  0.13484857  1
  O  O54  1  0.46449803  0.31054959  0.02884688  1
  O  O55  1  0.84482273  0.54625707  0.02976805  1
  O  O56  1  0.70499909  0.15882706  0.02610781  1
  O  O57  1  0.45382898  0.15882706  0.52610781  1
  O  O58  1  0.70143534  0.54625707  0.52976805  1
  O  O59  1  0.84605256  0.31054959  0.52884688  1
  O  O60  1  0.54490630  0.69524871  0.96902357  1
  O  O61  1  0.16325665  0.47176436  0.97320651  1
  O  O62  1  0.31120316  0.85115452  0.96911252  1
  O  O63  1  0.53995036  0.85115452  0.46911252  1
  O  O64  1  0.30850670  0.47176436  0.47320651  1
  O  O65  1  0.15034141  0.69524871  0.46902357  1
  O  O66  1  0.11833297  0.63701529  0.36387118  1
  O  O67  1  0.51460178  0.88551189  0.36352324  1
  O  O68  1  0.36382729  0.50621075  0.35667199  1
  O  O69  1  0.14238246  0.50621075  0.85667199  1
  O  O70  1  0.37090910  0.88551189  0.86352324  1
  O  O71  1  0.51868131  0.63701529  0.86387118  1
  O  O72  1  0.01214262  0.81524677  0.41080632  1
  O  O73  1  0.79677180  0.97004989  0.40998229  1
  O  O74  1  0.16434346  0.18998422  0.41049968  1
  O  O75  1  0.02564075  0.18998422  0.91049968  1
  O  O76  1  0.17327809  0.97004989  0.90998229  1
  O  O77  1  0.80310415  0.81524677  0.91080632  1
  O  O78  1  0.97101456  0.17306668  0.58877541  1
  O  O79  1  0.16793513  0.02178898  0.59442204  1
  O  O80  1  0.82681421  0.80244422  0.58743215  1
  O  O81  1  0.97563001  0.80244422  0.08743215  1
  O  O82  1  0.85385384  0.02178898  0.09442204  1
  O  O83  1  0.20205213  0.17306668  0.08877541  1
  O  O84  1  0.68886451  0.16500287  0.74421849  1
  O  O85  1  0.46982312  0.31643381  0.74372757  1
  O  O86  1  0.84081536  0.53652108  0.74363369  1
  O  O87  1  0.69570671  0.53652108  0.24363369  1
  O  O88  1  0.84661169  0.31643381  0.24372757  1
  O  O89  1  0.47613936  0.16500287  0.24421849  1
  O  O90  1  0.63586288  0.49889486  0.92625562  1
  O  O91  1  0.84902881  0.36657346  0.91975823  1
  O  O92  1  0.49031843  0.14010270  0.92309449  1
  O  O93  1  0.64978527  0.14010270  0.42309449  1
  O  O94  1  0.51754565  0.36657346  0.41975823  1
  O  O95  1  0.86303298  0.49889486  0.42625562  1
  O  O96  1  0.35891600  0.48894617  0.07691168  1
  O  O97  1  0.13078785  0.64038777  0.07673232  1
  O  O98  1  0.49992068  0.84648356  0.07693807  1
  O  O99  1  0.34656188  0.84648356  0.57693807  1
  O  O100  1  0.50959892  0.64038777  0.57673232  1
  O  O101  1  0.13002917  0.48894617  0.57691168  1
  O  O102  1  0.30856377  0.81397139  0.25921156  1
  O  O103  1  0.52995268  0.69016716  0.25523999  1
  O  O104  1  0.16266741  0.46761006  0.25558950  1
  O  O105  1  0.30494165  0.46761006  0.75558950  1
  O  O106  1  0.16021348  0.69016716  0.75523999  1
  O  O107  1  0.50540662  0.81397139  0.75921156  1
