# generated using pymatgen
data_Na10Ga8Si5S7O48
_symmetry_space_group_name_H-M   'P 1'
_cell_length_a   17.49327443
_cell_length_b   8.78706982
_cell_length_c   22.06859285
_cell_angle_alpha   89.68164316
_cell_angle_beta   88.70045088
_cell_angle_gamma   120.02037255
_symmetry_Int_Tables_number   1
_chemical_formula_structural   Na10Ga8Si5S7O48
_chemical_formula_sum   'Na30 Ga24 Si15 S21 O144'
_cell_volume   2935.86940743
_cell_formula_units_Z   3
loop_
 _symmetry_equiv_pos_site_id
 _symmetry_equiv_pos_as_xyz
  1  'x, y, z'
loop_
 _atom_site_type_symbol
 _atom_site_label
 _atom_site_symmetry_multiplicity
 _atom_site_fract_x
 _atom_site_fract_y
 _atom_site_fract_z
 _atom_site_occupancy
  Na  Na0  1  0.32222871  0.00000906  0.24911928  1
  Na  Na1  1  0.82164120  0.99954015  0.24969318  1
  Na  Na2  1  0.18306696  0.37201831  0.24481505  1
  Na  Na3  1  0.68319632  0.37253216  0.24547438  1
  Na  Na4  1  0.99683625  0.62847747  0.25511064  1
  Na  Na5  1  0.49734706  0.62853753  0.25550974  1
  Na  Na6  1  0.82204483  0.64313151  0.74801750  1
  Na  Na7  1  0.99665672  0.36492409  0.75524503  1
  Na  Na8  1  0.49807037  0.36070121  0.75451879  1
  Na  Na9  1  0.18154061  0.99214406  0.74686632  1
  Na  Na10  1  0.01785946  0.70541212  0.58456818  1
  Na  Na11  1  0.33127697  0.96815984  0.58749807  1
  Na  Na12  1  0.01988171  0.33153801  0.08340209  1
  Na  Na13  1  0.51972812  0.33126515  0.08398190  1
  Na  Na14  1  0.16335586  0.30017868  0.92138107  1
  Na  Na15  1  0.66471274  0.30098061  0.92198850  1
  Na  Na16  1  0.16334311  0.02658745  0.42136617  1
  Na  Na17  1  0.66366920  0.02594713  0.42262445  1
  Na  Na18  1  0.99752973  0.00036391  0.50012331  1
  Na  Na19  1  0.50644708  0.99541541  0.50018038  1
  Na  Na20  1  0.00029612  0.99807296  0.99993475  1
  Na  Na21  1  0.49978149  0.99671394  0.00113839  1
  Na  Na22  1  0.34030409  0.33556074  0.83565455  1
  Na  Na23  1  0.84106285  0.32649369  0.83354941  1
  Na  Na24  1  0.34474282  0.35448565  0.33535069  1
  Na  Na25  1  0.84357366  0.35276072  0.33605616  1
  Na  Na26  1  0.17232460  0.66255653  0.16470354  1
  Na  Na27  1  0.67237008  0.66245757  0.16528237  1
  Na  Na28  1  0.16998718  0.66979931  0.66869055  1
  Na  Na29  1  0.67372281  0.69459042  0.66366974  1
  Ga  Ga30  1  0.98651422  0.97698849  0.35041998  1
  Ga  Ga31  1  0.48853594  0.97898965  0.35034667  1
  Ga  Ga32  1  0.98842225  0.99830223  0.84942949  1
  Ga  Ga33  1  0.49133812  0.01159969  0.85306734  1
  Ga  Ga34  1  0.99867044  0.98829854  0.65054864  1
  Ga  Ga35  1  0.50460561  0.99593290  0.64867557  1
  Ga  Ga36  1  0.00179038  0.01297268  0.14987712  1
  Ga  Ga37  1  0.50193778  0.01321220  0.15010677  1
  Ga  Ga38  1  0.32989269  0.31552394  0.68234399  1
  Ga  Ga39  1  0.83075077  0.31170626  0.68711973  1
  Ga  Ga40  1  0.33518995  0.35039001  0.18544316  1
  Ga  Ga41  1  0.83501965  0.35018869  0.18545213  1
  Ga  Ga42  1  0.33498064  0.32992730  0.98275282  1
  Ga  Ga43  1  0.83612252  0.33169370  0.98306900  1
  Ga  Ga44  1  0.33683708  0.34548343  0.48273507  1
  Ga  Ga45  1  0.83322404  0.33949373  0.48351978  1
  Ga  Ga46  1  0.16538158  0.64396976  0.01679138  1
  Ga  Ga47  1  0.66513948  0.64537309  0.01815053  1
  Ga  Ga48  1  0.16032713  0.67545763  0.51626068  1
  Ga  Ga49  1  0.66228077  0.69234565  0.51941730  1
  Ga  Ga50  1  0.15843255  0.64351999  0.31454288  1
  Ga  Ga51  1  0.65882511  0.64325645  0.31545675  1
  Ga  Ga52  1  0.16146981  0.67251523  0.81369694  1
  Ga  Ga53  1  0.66553958  0.67960026  0.81757629  1
  Si  Si54  1  0.35469862  0.71160142  0.24946319  1
  Si  Si55  1  0.85437964  0.71108588  0.24927059  1
  Si  Si56  1  0.99817787  0.28758776  0.25018625  1
  Si  Si57  1  0.49839869  0.28801284  0.25036923  1
  Si  Si58  1  0.99791691  0.70764253  0.75051140  1
  Si  Si59  1  0.35509087  0.99563777  0.74769243  1
  Si  Si60  1  0.85090843  0.99540936  0.74974710  1
  Si  Si61  1  0.18575576  0.04608091  0.58141197  1
  Si  Si62  1  0.68819838  0.04641074  0.58358185  1
  Si  Si63  1  0.18873246  0.32917660  0.08300367  1
  Si  Si64  1  0.68877311  0.32867887  0.08294068  1
  Si  Si65  1  0.01704281  0.36908783  0.91635023  1
  Si  Si66  1  0.51805358  0.37616778  0.91641995  1
  Si  Si67  1  0.01577917  0.66435484  0.41656631  1
  Si  Si68  1  0.51734362  0.66550905  0.41582180  1
  S  S69  1  0.14560634  -0.00004302  0.24991300  1
  S  S70  1  0.64566131  -0.00006603  0.24972726  1
  S  S71  1  0.14858056  0.29467657  0.74937290  1
  S  S72  1  0.64468073  0.28766962  0.75058144  1
  S  S73  1  0.49879522  0.71026494  0.75090331  1
  S  S74  1  0.48156438  0.33718387  0.58299359  1
  S  S75  1  0.98018240  0.32984394  0.58263767  1
  S  S76  1  0.33240864  0.62140272  0.58376846  1
  S  S77  1  0.82942973  0.62339849  0.58319121  1
  S  S78  1  0.48056166  0.63129322  0.08199257  1
  S  S79  1  0.98089544  0.63180514  0.08225731  1
  S  S80  1  0.32983992  0.03618745  0.08295917  1
  S  S81  1  0.82979371  0.03600586  0.08308548  1
  S  S82  1  0.31334297  0.66991994  0.91541532  1
  S  S83  1  0.81334186  0.66881786  0.91688310  1
  S  S84  1  0.16689475  0.95520361  0.91801783  1
  S  S85  1  0.66555296  0.95477225  0.91759377  1
  S  S86  1  0.31327742  0.95715138  0.41689405  1
  S  S87  1  0.81234389  0.95628748  0.41643296  1
  S  S88  1  0.16679555  0.37759555  0.41820893  1
  S  S89  1  0.66636324  0.37734257  0.41852236  1
  O  O90  1  0.10852499  0.03640818  0.30592458  1
  O  O91  1  0.60871409  0.03666061  0.30553914  1
  O  O92  1  0.41741881  0.78250105  0.30734415  1
  O  O93  1  0.91775556  0.78118725  0.30709784  1
  O  O94  1  0.47996502  0.16028937  0.30925718  1
  O  O95  1  0.98081820  0.16122909  0.30933780  1
  O  O96  1  0.11178390  0.18308232  0.80533118  1
  O  O97  1  0.60736100  0.17884662  0.80720864  1
  O  O98  1  0.48601811  0.79095630  0.80597898  1
  O  O99  1  0.98128183  0.80101111  0.80908458  1
  O  O100  1  0.42013341  0.04843629  0.80459979  1
  O  O101  1  0.91426750  0.04642145  0.80780690  1
  O  O102  1  0.40052264  0.97037811  0.68556636  1
  O  O103  1  0.89584098  0.95482419  0.69053575  1
  O  O104  1  0.09230147  0.21554089  0.69640270  1
  O  O105  1  0.58838112  0.20895585  0.69821147  1
  O  O106  1  0.02410727  0.83014139  0.68871080  1
  O  O107  1  0.51549889  0.81792372  0.69523879  1
  O  O108  1  0.39876601  0.83842381  0.18962224  1
  O  O109  1  0.89892652  0.83867468  0.18969129  1
  O  O110  1  0.02323575  0.21814283  0.18867038  1
  O  O111  1  0.52302789  0.21807174  0.18867045  1
  O  O112  1  0.09001694  0.96529768  0.19720343  1
  O  O113  1  0.58988507  0.96542560  0.19690176  1
  O  O114  1  0.44365308  0.37127647  0.63994943  1
  O  O115  1  0.94448746  0.37282124  0.63831355  1
  O  O116  1  0.24753153  0.12245897  0.64105756  1
  O  O117  1  0.74909037  0.13849965  0.64118233  1
  O  O118  1  0.31939892  0.51328322  0.63928700  1
  O  O119  1  0.81782786  0.52127430  0.63995279  1
  O  O120  1  0.44448998  0.51618574  0.13843865  1
  O  O121  1  0.94447118  0.51618876  0.13857042  1
  O  O122  1  0.31718600  0.11406764  0.13951701  1
  O  O123  1  0.81693151  0.11338202  0.13957064  1
  O  O124  1  0.24601235  0.35843557  0.14376648  1
  O  O125  1  0.74606433  0.35830562  0.14359722  1
  O  O126  1  0.23382902  0.30400190  0.02063019  1
  O  O127  1  0.73398147  0.30376605  0.02052463  1
  O  O128  1  0.42589260  0.54666644  0.02945581  1
  O  O129  1  0.92573848  0.54713115  0.02966421  1
  O  O130  1  0.35040905  0.15654725  0.02956889  1
  O  O131  1  0.84989612  0.15573689  0.02965655  1
  O  O132  1  0.23504416  0.16491017  0.52037961  1
  O  O133  1  0.73042090  0.16095483  0.51965741  1
  O  O134  1  0.34892191  0.54576342  0.52870935  1
  O  O135  1  0.85091929  0.54517247  0.53002607  1
  O  O136  1  0.42312806  0.30425888  0.53116504  1
  O  O137  1  0.92653852  0.30571260  0.52935434  1
  O  O138  1  0.27602272  0.70526112  0.97130616  1
  O  O139  1  0.77193590  0.70043685  0.97125041  1
  O  O140  1  0.07959443  0.45198469  0.97587943  1
  O  O141  1  0.58082578  0.45763709  0.97519875  1
  O  O142  1  0.15559962  0.84507827  0.97203632  1
  O  O143  1  0.65289784  0.84599897  0.97215239  1
  O  O144  1  0.27254907  0.84652307  0.47318992  1
  O  O145  1  0.77182265  0.84297488  0.47098018  1
  O  O146  1  0.15527421  0.46448153  0.47192206  1
  O  O147  1  0.65506880  0.46445899  0.47158923  1
  O  O148  1  0.07907216  0.70884677  0.47577470  1
  O  O149  1  0.58261620  0.70852703  0.47236148  1
  O  O150  1  0.06360099  0.63844574  0.35570224  1
  O  O151  1  0.56185788  0.63765341  0.35352548  1
  O  O152  1  0.25830772  0.87662291  0.36291971  1
  O  O153  1  0.75941305  0.87938372  0.36133859  1
  O  O154  1  0.18393590  0.48374599  0.36094757  1
  O  O155  1  0.68356575  0.48240858  0.36053550  1
  O  O156  1  0.06465575  0.49020320  0.85536162  1
  O  O157  1  0.56456695  0.49446297  0.85406985  1
  O  O158  1  0.18365437  0.88339993  0.86097890  1
  O  O159  1  0.68312402  0.88173129  0.86173062  1
  O  O160  1  0.25753828  0.64004424  0.86242211  1
  O  O161  1  0.75887464  0.63758665  0.86215346  1
  O  O162  1  0.01452593  0.85215621  0.41047628  1
  O  O163  1  0.51438742  0.85169846  0.41027615  1
  O  O164  1  0.40173721  0.97754061  0.41364807  1
  O  O165  1  0.90220124  0.97822396  0.41301494  1
  O  O166  1  0.08750469  0.20160101  0.41375930  1
  O  O167  1  0.58748597  0.20054604  0.41338183  1
  O  O168  1  0.01451688  0.17740942  0.91021978  1
  O  O169  1  0.51549194  0.18398981  0.91196462  1
  O  O170  1  0.08768229  0.97392824  0.91360343  1
  O  O171  1  0.58491752  0.97080190  0.91140645  1
  O  O172  1  0.40410491  0.82480633  0.90973154  1
  O  O173  1  0.90216024  0.82571055  0.91307787  1
  O  O174  1  0.48598517  0.17377398  0.58855578  1
  O  O175  1  0.98894621  0.17300432  0.58978652  1
  O  O176  1  0.08640643  0.02069425  0.58685160  1
  O  O177  1  0.58817365  0.02413672  0.59026639  1
  O  O178  1  0.41015664  0.80135106  0.58726066  1
  O  O179  1  0.91087299  0.80136018  0.58586661  1
  O  O180  1  0.48786157  0.80360627  0.08904693  1
  O  O181  1  0.98788659  0.80387884  0.08925615  1
  O  O182  1  0.41087926  0.02078486  0.08593496  1
  O  O183  1  0.91065506  0.02036034  0.08598722  1
  O  O184  1  0.08777922  0.15377383  0.08723805  1
  O  O185  1  0.58768694  0.15339808  0.08705761  1
  O  O186  1  0.34543175  0.17736301  0.74340999  1
  O  O187  1  0.84424996  0.17348369  0.74535292  1
  O  O188  1  0.23810148  0.31293279  0.74236959  1
  O  O189  1  0.73543140  0.31620244  0.74457646  1
  O  O190  1  0.41911355  0.53175573  0.74490267  1
  O  O191  1  0.90857408  0.51406250  0.74161024  1
  O  O192  1  0.34049471  0.51205172  0.24482244  1
  O  O193  1  0.84051637  0.51185986  0.24468364  1
  O  O194  1  0.40874237  0.30418742  0.24166696  1
  O  O195  1  0.90873354  0.30398441  0.24167212  1
  O  O196  1  0.23553019  0.15748252  0.24357684  1
  O  O197  1  0.73556856  0.15786697  0.24331034  1
  O  O198  1  0.31937158  0.50762376  0.92120306  1
  O  O199  1  0.81896458  0.50647712  0.92212067  1
  O  O200  1  0.42020382  0.35619553  0.92423390  1
  O  O201  1  0.91969632  0.35305829  0.92488658  1
  O  O202  1  0.24579989  0.13605813  0.92090832  1
  O  O203  1  0.74332243  0.13521983  0.92071978  1
  O  O204  1  0.31863367  0.13112751  0.42172241  1
  O  O205  1  0.81882955  0.13106114  0.42133328  1
  O  O206  1  0.24562843  0.35481663  0.42129091  1
  O  O207  1  0.74577525  0.35480196  0.42076560  1
  O  O208  1  0.42011077  0.48667523  0.42419258  1
  O  O209  1  0.91960946  0.48564052  0.42550330  1
  O  O210  1  0.17614076  0.50564276  0.07899237  1
  O  O211  1  0.67568096  0.50454366  0.07915774  1
  O  O212  1  0.07020363  0.64894302  0.07605501  1
  O  O213  1  0.57020794  0.64867890  0.07604730  1
  O  O214  1  0.24982313  0.86381129  0.07564649  1
  O  O215  1  0.74951908  0.86316882  0.07564879  1
  O  O216  1  0.17878594  0.84749510  0.57755172  1
  O  O217  1  0.67959856  0.85072914  0.57981065  1
  O  O218  1  0.25198779  0.63841096  0.57821177  1
  O  O219  1  0.74966406  0.63568964  0.57531368  1
  O  O220  1  0.07065513  0.49219013  0.57623994  1
  O  O221  1  0.57083323  0.49147284  0.57632782  1
  O  O222  1  0.15705534  0.84409539  0.25578731  1
  O  O223  1  0.65714941  0.84440481  0.25535935  1
  O  O224  1  0.25680633  0.69677007  0.25875276  1
  O  O225  1  0.75685186  0.69656490  0.25862488  1
  O  O226  1  0.08493312  0.48651400  0.25414999  1
  O  O227  1  0.58522220  0.48630788  0.25421588  1
  O  O228  1  0.15714859  0.46997898  0.75523552  1
  O  O229  1  0.65282651  0.46476110  0.75547138  1
  O  O230  1  0.08486775  0.68220366  0.75439849  1
  O  O231  1  0.57744890  0.68569693  0.75434047  1
  O  O232  1  0.25618682  0.82546547  0.75741694  1
  O  O233  1  0.75413204  0.81045279  0.75847986  1
