# generated using pymatgen
data_Na3CaZr3P5SO24
_symmetry_space_group_name_H-M   'P 1'
_cell_length_a   9.06128999
_cell_length_b   9.03090144
_cell_length_c   23.34315679
_cell_angle_alpha   89.93695851
_cell_angle_beta   90.10516095
_cell_angle_gamma   119.95033960
_symmetry_Int_Tables_number   1
_chemical_formula_structural   Na3CaZr3P5SO24
_chemical_formula_sum   'Na9 Ca3 Zr9 P15 S3 O72'
_cell_volume   1655.11325913
_cell_formula_units_Z   3
loop_
 _symmetry_equiv_pos_site_id
 _symmetry_equiv_pos_as_xyz
  1  'x, y, z'
loop_
 _atom_site_type_symbol
 _atom_site_label
 _atom_site_symmetry_multiplicity
 _atom_site_fract_x
 _atom_site_fract_y
 _atom_site_fract_z
 _atom_site_occupancy
  Na  Na0  1  0.99146420  0.36542330  0.74575290  1
  Na  Na1  1  0.31608159  0.97697135  0.08507641  1
  Na  Na2  1  0.32581246  0.03335400  0.41121107  1
  Na  Na3  1  0.98352257  0.99965162  0.49629442  1
  Na  Na4  1  0.98874009  0.00086991  0.99904429  1
  Na  Na5  1  0.65409098  0.33331154  0.82886259  1
  Na  Na6  1  0.66596521  0.33359331  0.32690676  1
  Na  Na7  1  0.33298209  0.65913191  0.16777546  1
  Na  Na8  1  0.34397141  0.66935483  0.66612987  1
  Ca  Ca9  1  0.99413281  0.00013012  0.35411760  1
  Ca  Ca10  1  0.66126948  0.33773681  0.68559814  1
  Ca  Ca11  1  0.66581396  0.33183048  0.18225009  1
  Zr  Zr12  1  0.00114614  0.99768290  0.85456860  1
  Zr  Zr13  1  0.99309439  0.99607086  0.64796556  1
  Zr  Zr14  1  0.00170981  0.99838137  0.14807053  1
  Zr  Zr15  1  0.67054874  0.33537157  0.98100543  1
  Zr  Zr16  1  0.68165583  0.34640651  0.48179081  1
  Zr  Zr17  1  0.33334956  0.66091466  0.01616114  1
  Zr  Zr18  1  0.33310455  0.65810803  0.51907016  1
  Zr  Zr19  1  0.33319614  0.67106627  0.31517007  1
  Zr  Zr20  1  0.33890903  0.67197636  0.81464676  1
  P  P21  1  0.29599903  0.99711167  0.25250887  1
  P  P22  1  0.28572930  0.28913150  0.75200379  1
  P  P23  1  0.00572347  0.71296205  0.75165070  1
  P  P24  1  0.70941977  0.99524220  0.75185807  1
  P  P25  1  0.96427257  0.33219109  0.58560524  1
  P  P26  1  0.66862638  0.63250114  0.58338293  1
  P  P27  1  0.96477802  0.62989891  0.08268495  1
  P  P28  1  0.66757871  0.03596734  0.08182902  1
  P  P29  1  0.37074059  0.33343525  0.08275464  1
  P  P30  1  0.62551040  0.66520512  0.91648470  1
  P  P31  1  0.03924412  0.37460011  0.91483568  1
  P  P32  1  0.33567551  0.96086951  0.91782770  1
  P  P33  1  0.61987552  0.95946243  0.41931930  1
  P  P34  1  0.34060436  0.37794118  0.41719813  1
  P  P35  1  0.04399725  0.66265697  0.41799914  1
  S  S36  1  0.70152849  0.70641305  0.25043007  1
  S  S37  1  0.00546087  0.29888742  0.25018388  1
  S  S38  1  0.36869672  0.03640572  0.58149730  1
  O  O39  1  0.21157940  0.01032392  0.30695323  1
  O  O40  1  0.79772812  0.78791598  0.30210211  1
  O  O41  1  0.98635805  0.20054774  0.30184249  1
  O  O42  1  0.18880327  0.18160896  0.80515919  1
  O  O43  1  0.99122347  0.80708230  0.80468521  1
  O  O44  1  0.82067112  0.01069408  0.80423562  1
  O  O45  1  0.79557755  0.97277943  0.69693583  1
  O  O46  1  0.17263343  0.20193802  0.69787779  1
  O  O47  1  0.02428302  0.82031777  0.69708037  1
  O  O48  1  0.78927455  0.81544272  0.19829898  1
  O  O49  1  0.02193233  0.20824289  0.19807796  1
  O  O50  1  0.18060534  0.97824410  0.19743877  1
  O  O51  1  0.89741847  0.36128390  0.64122243  1
  O  O52  1  0.47059808  0.10905432  0.63263489  1
  O  O53  1  0.63303578  0.52867314  0.63697373  1
  O  O54  1  0.89852233  0.52883706  0.13677996  1
  O  O55  1  0.62032437  0.10059278  0.13437070  1
  O  O56  1  0.47124559  0.36770426  0.13701758  1
  O  O57  1  0.45880068  0.29983791  0.03066609  1
  O  O58  1  0.84923645  0.54176787  0.02962744  1
  O  O59  1  0.69526265  0.15361059  0.02904528  1
  O  O60  1  0.45105555  0.14195590  0.52915124  1
  O  O61  1  0.69047558  0.53851582  0.53015982  1
  O  O62  1  0.84506449  0.30994773  0.53321556  1
  O  O63  1  0.53857645  0.69048787  0.96926414  1
  O  O64  1  0.15366577  0.46499275  0.96713835  1
  O  O65  1  0.31123711  0.85352087  0.97209215  1
  O  O66  1  0.52239337  0.84921541  0.47123791  1
  O  O67  1  0.32386174  0.47083995  0.47017268  1
  O  O68  1  0.15425036  0.67835252  0.47019460  1
  O  O69  1  0.13004541  0.63972370  0.36324630  1
  O  O70  1  0.50705603  0.87246052  0.36446686  1
  O  O71  1  0.36007742  0.48738148  0.36309900  1
  O  O72  1  0.12349965  0.48233063  0.86030365  1
  O  O73  1  0.35819466  0.86897546  0.86513355  1
  O  O74  1  0.51386953  0.64137816  0.86302675  1
  O  O75  1  0.03210469  0.82436892  0.41589160  1
  O  O76  1  0.79572180  0.98141243  0.41690671  1
  O  O77  1  0.18720240  0.19787283  0.41621008  1
  O  O78  1  0.02002642  0.19495541  0.91054737  1
  O  O79  1  0.17544685  0.97890331  0.91110390  1
  O  O80  1  0.80375346  0.82525746  0.91084063  1
  O  O81  1  0.98216678  0.16894788  0.58786164  1
  O  O82  1  0.19690932  0.02090346  0.58660701  1
  O  O83  1  0.83412260  0.81083859  0.58718908  1
  O  O84  1  0.98715254  0.81516645  0.08830845  1
  O  O85  1  0.82856550  0.01750606  0.08951518  1
  O  O86  1  0.19144001  0.16401994  0.08862743  1
  O  O87  1  0.69994296  0.15844116  0.74897610  1
  O  O88  1  0.46102215  0.30941702  0.75040820  1
  O  O89  1  0.85355027  0.53200045  0.75042889  1
  O  O90  1  0.68017120  0.53631925  0.24500321  1
  O  O91  1  0.86079873  0.32640003  0.24474225  1
  O  O92  1  0.47409225  0.14929074  0.24679095  1
  O  O93  1  0.64216576  0.50399634  0.92368244  1
  O  O94  1  0.86212926  0.35819709  0.92297418  1
  O  O95  1  0.49632242  0.13947858  0.92356054  1
  O  O96  1  0.62314221  0.13419021  0.42470512  1
  O  O97  1  0.50351486  0.36072223  0.42361036  1
  O  O98  1  0.86551297  0.49898933  0.42292329  1
  O  O99  1  0.33851365  0.48368949  0.07105910  1
  O  O100  1  0.15046816  0.66606930  0.07163114  1
  O  O101  1  0.50861710  0.85618969  0.07003149  1
  O  O102  1  0.34333211  0.86086432  0.57407374  1
  O  O103  1  0.51620452  0.66292620  0.57298270  1
  O  O104  1  0.14383474  0.48903077  0.57421021  1
  O  O105  1  0.30378811  0.82504427  0.25424724  1
  O  O106  1  0.52950708  0.69496502  0.25294253  1
  O  O107  1  0.16903705  0.46845091  0.25274043  1
  O  O108  1  0.29051270  0.46560231  0.75688536  1
  O  O109  1  0.17056677  0.69755854  0.75655867  1
  O  O110  1  0.53088136  0.83251513  0.75677175  1
