# generated using pymatgen
data_BiPS4
_symmetry_space_group_name_H-M   'P 1'
_cell_length_a   12.55768529
_cell_length_b   12.55792615
_cell_length_c   12.55743501
_cell_angle_alpha   129.83551933
_cell_angle_beta   127.04061140
_cell_angle_gamma   75.93651463
_symmetry_Int_Tables_number   1
_chemical_formula_structural   BiPS4
_chemical_formula_sum   'Bi8 P8 S32'
_cell_volume   1180.34685291
_cell_formula_units_Z   8
loop_
 _symmetry_equiv_pos_site_id
 _symmetry_equiv_pos_as_xyz
  1  'x, y, z'
loop_
 _atom_site_type_symbol
 _atom_site_label
 _atom_site_symmetry_multiplicity
 _atom_site_fract_x
 _atom_site_fract_y
 _atom_site_fract_z
 _atom_site_occupancy
  Bi  Bi0  1  0.14118206  0.89111894  0.25007743  1
  Bi  Bi1  1  0.35887361  0.60892777  0.75001535  1
  Bi  Bi2  1  0.85882329  0.10888343  0.74992767  1
  Bi  Bi3  1  0.64113485  0.39107220  0.24998948  1
  Bi  Bi4  1  0.39887527  0.14890129  0.25000132  1
  Bi  Bi5  1  0.10110987  0.35107994  0.74998744  1
  Bi  Bi6  1  0.60111821  0.85109591  0.74999220  1
  Bi  Bi7  1  0.89888370  0.64891484  0.25000598  1
  P  P8  1  0.74998987  0.28023964  0.53024903  1
  P  P9  1  0.28601858  0.74998980  0.03601913  1
  P  P10  1  0.21405658  0.25000170  0.46404885  1
  P  P11  1  0.71398116  0.25000934  0.96398005  1
  P  P12  1  0.78595195  0.75000052  0.53595376  1
  P  P13  1  0.74999403  0.78028004  0.03028222  1
  P  P14  1  0.25000546  0.71975818  0.46974716  1
  P  P15  1  0.25000439  0.21972256  0.96972121  1
  S  S16  1  0.39716057  0.60051062  0.98176245  1
  S  S17  1  0.88121632  0.58462915  0.48174311  1
  S  S18  1  0.89709085  0.91537787  0.79657691  1
  S  S19  1  0.61872203  0.10052481  0.70334956  1
  S  S20  1  0.60283952  0.39948902  0.01823792  1
  S  S21  1  0.11878852  0.41537069  0.51825709  1
  S  S22  1  0.10292170  0.08462467  0.20343205  1
  S  S23  1  0.38127825  0.89947336  0.29664825  1
  S  S24  1  0.60154002  0.39128404  0.48534337  1
  S  S25  1  0.09403674  0.10868060  0.71023029  1
  S  S26  1  0.89845443  0.38377061  0.78974759  1
  S  S27  1  0.40597548  0.11621129  0.01466522  1
  S  S28  1  0.39845687  0.60871487  0.51465508  1
  S  S29  1  0.90595852  0.89131802  0.28977060  1
  S  S30  1  0.10154108  0.61622776  0.21024779  1
  S  S31  1  0.59402323  0.88378969  0.98533447  1
  S  S32  1  0.84609034  0.26023196  0.43555855  1
  S  S33  1  0.17535421  0.23973006  0.08586258  1
  S  S34  1  0.65386762  0.08946091  0.41412552  1
  S  S35  1  0.32463339  0.41049635  0.06434003  1
  S  S36  1  0.15390508  0.73976676  0.56443870  1
  S  S37  1  0.82464478  0.76027322  0.91414068  1
  S  S38  1  0.34612473  0.91053722  0.58586969  1
  S  S39  1  0.67536068  0.58950176  0.93565468  1
  S  S40  1  0.73406564  0.16140297  0.06441430  1
  S  S41  1  0.90299286  0.33861114  0.07262831  1
  S  S42  1  0.76589916  0.83034199  0.42726493  1
  S  S43  1  0.59692593  0.66964552  0.43555749  1
  S  S44  1  0.26593698  0.83859760  0.93558660  1
  S  S45  1  0.09700704  0.66138719  0.92737007  1
  S  S46  1  0.23410480  0.16966019  0.57273733  1
  S  S47  1  0.40308177  0.33035897  0.56444957  1
