# generated using pymatgen
data_Ba(AuF4)2
_symmetry_space_group_name_H-M   'P 1'
_cell_length_a   7.85981272
_cell_length_b   7.85985996
_cell_length_c   7.85968764
_cell_angle_alpha   103.14815247
_cell_angle_beta   103.14533242
_cell_angle_gamma   123.03306313
_symmetry_Int_Tables_number   1
_chemical_formula_structural   Ba(AuF4)2
_chemical_formula_sum   'Ba2 Au4 F16'
_cell_volume   357.78594414
_cell_formula_units_Z   2
loop_
 _symmetry_equiv_pos_site_id
 _symmetry_equiv_pos_as_xyz
  1  'x, y, z'
loop_
 _atom_site_type_symbol
 _atom_site_label
 _atom_site_symmetry_multiplicity
 _atom_site_fract_x
 _atom_site_fract_y
 _atom_site_fract_z
 _atom_site_occupancy
  Ba  Ba0  1  -0.00000418  -0.00000169  -0.00000326  1
  Ba  Ba1  1  0.25002505  0.75002678  0.50000673  1
  Au  Au2  1  0.78671209  0.40452324  0.93989337  1
  Au  Au3  1  0.59547154  0.53537264  0.38214994  1
  Au  Au4  1  0.46463938  0.84682102  0.06011695  1
  Au  Au5  1  0.15320518  0.21330974  0.61783484  1
  F  F6  1  0.72039933  0.80932832  0.59987304  1
  F  F7  1  0.87948213  0.27959801  0.08894780  1
  F  F8  1  0.19066180  0.79054834  0.91106605  1
  F  F9  1  0.20943984  0.12051462  0.40011379  1
  F  F10  1  0.23296792  0.05913994  0.73488251  1
  F  F11  1  0.50190993  0.76702941  0.82618733  1
  F  F12  1  0.85705089  0.56251083  0.49900724  1
  F  F13  1  0.64196474  0.14293743  0.70545488  1
  F  F14  1  0.43748635  0.93650865  0.29455431  1
  F  F15  1  0.06348797  0.35803093  0.50098431  1
  F  F16  1  0.73318623  0.89067925  0.19920332  1
  F  F17  1  0.46600880  0.26681171  0.15747578  1
  F  F18  1  0.10932257  0.30852311  0.84251240  1
  F  F19  1  0.69148122  0.53398131  0.80080720  1
  F  F20  1  0.32425021  0.49807636  0.26510927  1
  F  F21  1  0.94085301  0.67572806  0.17382219  1
