# generated using pymatgen
data_Na5Al3Si3Sn(SO8)3
_symmetry_space_group_name_H-M   'P 1'
_cell_length_a   8.74771571
_cell_length_b   8.75580585
_cell_length_c   21.91523881
_cell_angle_alpha   90.38432274
_cell_angle_beta   90.62987529
_cell_angle_gamma   120.27139744
_symmetry_Int_Tables_number   1
_chemical_formula_structural   Na5Al3Si3Sn(SO8)3
_chemical_formula_sum   'Na15 Al9 Si9 Sn3 S9 O72'
_cell_volume   1449.45080275
_cell_formula_units_Z   3
loop_
 _symmetry_equiv_pos_site_id
 _symmetry_equiv_pos_as_xyz
  1  'x, y, z'
loop_
 _atom_site_type_symbol
 _atom_site_label
 _atom_site_symmetry_multiplicity
 _atom_site_fract_x
 _atom_site_fract_y
 _atom_site_fract_z
 _atom_site_occupancy
  Na  Na0  1  0.64126644  0.00088908  0.25814057  1
  Na  Na1  1  0.00400943  0.62525461  0.24977488  1
  Na  Na2  1  0.62639166  0.63651151  0.74437830  1
  Na  Na3  1  0.36967631  0.01116723  0.75565572  1
  Na  Na4  1  0.66940537  0.96262818  0.58778924  1
  Na  Na5  1  0.97117166  0.67984272  0.92305339  1
  Na  Na6  1  0.68964828  0.02213038  0.90784664  1
  Na  Na7  1  0.96098356  0.30418325  0.40635937  1
  Na  Na8  1  0.71132035  0.68225267  0.42340427  1
  Na  Na9  1  0.00702377  0.97649550  0.50291001  1
  Na  Na10  1  0.01232825  0.98639690  0.00211431  1
  Na  Na11  1  0.64220982  0.32560542  0.83230493  1
  Na  Na12  1  0.65888050  0.32394581  0.33100255  1
  Na  Na13  1  0.31021395  0.63345721  0.16308776  1
  Na  Na14  1  0.32409402  0.63654779  0.66309696  1
  Al  Al15  1  0.99027864  0.99832244  0.35583346  1
  Al  Al16  1  0.00448175  0.01318313  0.85425573  1
  Al  Al17  1  0.98496179  0.99209542  0.65127523  1
  Al  Al18  1  0.00874184  0.00513020  0.14747049  1
  Al  Al19  1  0.65004522  0.33485347  0.69001911  1
  Al  Al20  1  0.69605247  0.34359821  0.18242620  1
  Al  Al21  1  0.33094516  0.68868452  0.01756116  1
  Al  Al22  1  0.34636346  0.67868140  0.51752829  1
  Al  Al23  1  0.31652208  0.65590012  0.31659894  1
  Si  Si24  1  0.00800792  0.28671023  0.25023559  1
  Si  Si25  1  0.27376243  0.27676383  0.74820713  1
  Si  Si26  1  0.72014007  0.01821032  0.74909439  1
  Si  Si27  1  0.66495825  0.62891767  0.58589028  1
  Si  Si28  1  0.97950192  0.64352284  0.08716769  1
  Si  Si29  1  0.62389765  0.67216036  0.91954123  1
  Si  Si30  1  0.32491066  0.96161697  0.91629378  1
  Si  Si31  1  0.61467545  0.94869281  0.41442407  1
  Si  Si32  1  0.05860143  0.68233239  0.41570730  1
  Sn  Sn33  1  0.65996157  0.34413763  0.98544174  1
  Sn  Sn34  1  0.67363659  0.33870153  0.48089808  1
  Sn  Sn35  1  0.34354417  0.66748104  0.81183325  1
  S  S36  1  0.29066784  0.00796341  0.24990293  1
  S  S37  1  0.70693690  0.70351663  0.24867161  1
  S  S38  1  0.99090822  0.70760687  0.74910300  1
  S  S39  1  0.96759944  0.33603997  0.58509793  1
  S  S40  1  0.36872712  0.03928675  0.58438081  1
  S  S41  1  0.66983552  0.03945081  0.08662138  1
  S  S42  1  0.37467245  0.33082090  0.08979465  1
  S  S43  1  0.05304216  0.37719570  0.91980518  1
  S  S44  1  0.32742426  0.37867403  0.41538113  1
  O  O45  1  0.20868468  0.02921750  0.30536905  1
  O  O46  1  0.81736926  0.78075346  0.30599045  1
  O  O47  1  0.96795162  0.16303980  0.31112451  1
  O  O48  1  0.19106945  0.15503246  0.80753894  1
  O  O49  1  0.96475504  0.78278604  0.80613411  1
  O  O50  1  0.82650379  0.03027367  0.81225705  1
  O  O51  1  0.79590337  0.96773491  0.68956096  1
  O  O52  1  0.16635568  0.17535889  0.68700344  1
  O  O53  1  0.01775979  0.81740152  0.69518427  1
  O  O54  1  0.79509168  0.81733080  0.19616557  1
  O  O55  1  0.02296910  0.18123927  0.19248632  1
  O  O56  1  0.17628065  0.97411707  0.19545174  1
  O  O57  1  0.87008135  0.35587287  0.63522264  1
  O  O58  1  0.48726336  0.12883933  0.63789331  1
  O  O59  1  0.64424980  0.50082889  0.64221059  1
  O  O60  1  0.87822065  0.51577203  0.14528318  1
  O  O61  1  0.64531651  0.13114253  0.14025488  1
  O  O62  1  0.49640717  0.34525633  0.14015963  1
  O  O63  1  0.43311872  0.28722658  0.03070953  1
  O  O64  1  0.85576819  0.55796408  0.02427464  1
  O  O65  1  0.69621799  0.14476901  0.03011038  1
  O  O66  1  0.44717448  0.14543072  0.52774112  1
  O  O67  1  0.69423850  0.55081036  0.52023894  1
  O  O68  1  0.85696100  0.29106177  0.52540454  1
  O  O69  1  0.51267186  0.69306339  0.97468974  1
  O  O70  1  0.15934083  0.46636236  0.97477042  1
  O  O71  1  0.28390097  0.82585539  0.97144655  1
  O  O72  1  0.53810661  0.83391377  0.47581452  1
  O  O73  1  0.30524327  0.45826704  0.47148972  1
  O  O74  1  0.17254219  0.68947365  0.47530454  1
  O  O75  1  0.12609732  0.63123593  0.35365854  1
  O  O76  1  0.50047553  0.85085304  0.35235272  1
  O  O77  1  0.35514250  0.48836217  0.36087741  1
  O  O78  1  0.11850578  0.48762430  0.86408517  1
  O  O79  1  0.36778231  0.88506891  0.85319797  1
  O  O80  1  0.51967591  0.62650360  0.85309295  1
  O  O81  1  0.03096214  0.85312526  0.40712575  1
  O  O82  1  0.81743114  0.98038218  0.40893750  1
  O  O83  1  0.16941178  0.20131046  0.40887663  1
  O  O84  1  0.04053943  0.20546444  0.91337374  1
  O  O85  1  0.15228096  0.98043020  0.90800944  1
  O  O86  1  0.81883691  0.85279973  0.91349942  1
  O  O87  1  0.98715067  0.17806143  0.58989996  1
  O  O88  1  0.19074639  0.01251035  0.58925280  1
  O  O89  1  0.84286932  0.82842911  0.59123685  1
  O  O90  1  0.99268363  0.83580094  0.09574399  1
  O  O91  1  0.82694457  0.02107511  0.09362777  1
  O  O92  1  0.19439023  0.17837159  0.09592027  1
  O  O93  1  0.69257249  0.18826671  0.73924822  1
  O  O94  1  0.48110569  0.31615227  0.74371139  1
  O  O95  1  0.83381072  0.52921617  0.74209958  1
  O  O96  1  0.68730622  0.52433835  0.24252047  1
  O  O97  1  0.82440993  0.30722171  0.24369235  1
  O  O98  1  0.47067481  0.16504460  0.24335508  1
  O  O99  1  0.66244989  0.50567668  0.92142669  1
  O  O100  1  0.86800707  0.34671679  0.92480158  1
  O  O101  1  0.51605875  0.14750496  0.92565045  1
  O  O102  1  0.63701116  0.14891553  0.41919818  1
  O  O103  1  0.48882559  0.36160471  0.41803675  1
  O  O104  1  0.85108020  0.50457039  0.41857040  1
  O  O105  1  0.37186854  0.49592556  0.08440584  1
  O  O106  1  0.16843241  0.65119668  0.07695909  1
  O  O107  1  0.50804045  0.86461150  0.08096894  1
  O  O108  1  0.36258960  0.86641397  0.57880861  1
  O  O109  1  0.48841076  0.65108145  0.57717368  1
  O  O110  1  0.13967156  0.49779945  0.57742167  1
  O  O111  1  0.31208317  0.84722119  0.25269016  1
  O  O112  1  0.53094912  0.68748891  0.25385482  1
  O  O113  1  0.18025535  0.49003620  0.25658082  1
  O  O114  1  0.29132674  0.47471407  0.75013666  1
  O  O115  1  0.15258657  0.69191354  0.75246225  1
  O  O116  1  0.51330033  0.83930550  0.74879256  1
