# generated using pymatgen
data_Na14Ti4Al4Si9(SO16)3
_symmetry_space_group_name_H-M   'P 1'
_cell_length_a   17.73826657
_cell_length_b   8.86713621
_cell_length_c   21.67973680
_cell_angle_alpha   90.11590361
_cell_angle_beta   90.16632879
_cell_angle_gamma   120.00197818
_symmetry_Int_Tables_number   1
_chemical_formula_structural   Na14Ti4Al4Si9(SO16)3
_chemical_formula_sum   'Na42 Ti12 Al12 Si27 S9 O144'
_cell_volume   2953.01199735
_cell_formula_units_Z   3
loop_
 _symmetry_equiv_pos_site_id
 _symmetry_equiv_pos_as_xyz
  1  'x, y, z'
loop_
 _atom_site_type_symbol
 _atom_site_label
 _atom_site_symmetry_multiplicity
 _atom_site_fract_x
 _atom_site_fract_y
 _atom_site_fract_z
 _atom_site_occupancy
  Na  Na0  1  0.81919665  0.00747616  0.25474832  1
  Na  Na1  1  0.17311783  0.35384061  0.25572087  1
  Na  Na2  1  0.68990163  0.37044031  0.25447831  1
  Na  Na3  1  0.99742140  0.62863616  0.24629033  1
  Na  Na4  1  0.50252986  0.63733360  0.25260366  1
  Na  Na5  1  0.31727551  0.62859586  0.75058954  1
  Na  Na6  1  0.00100288  0.36448042  0.74371907  1
  Na  Na7  1  0.49883855  0.36787776  0.74225158  1
  Na  Na8  1  0.18821157  0.00945092  0.74909207  1
  Na  Na9  1  0.68020217  0.99610091  0.75003248  1
  Na  Na10  1  0.14882080  0.32765038  0.58210566  1
  Na  Na11  1  0.64763765  0.32824477  0.58070662  1
  Na  Na12  1  0.33562583  0.98110838  0.58902781  1
  Na  Na13  1  0.83281840  0.96806051  0.58156079  1
  Na  Na14  1  0.14220042  0.96130484  0.08022146  1
  Na  Na15  1  0.65237166  0.97429928  0.07790991  1
  Na  Na16  1  0.33301839  0.69393812  0.08098012  1
  Na  Na17  1  0.83569175  0.69047779  0.08882209  1
  Na  Na18  1  0.48185370  0.67507982  0.91415492  1
  Na  Na19  1  0.98227934  0.67212544  0.92413392  1
  Na  Na20  1  0.34784131  0.02787874  0.90671341  1
  Na  Na21  1  0.84775720  0.02741769  0.90860922  1
  Na  Na22  1  0.17068405  0.29899038  0.90803439  1
  Na  Na23  1  0.66670240  0.29588944  0.90979534  1
  Na  Na24  1  0.48575016  0.29858501  0.42893533  1
  Na  Na25  1  0.97975358  0.28595571  0.42064939  1
  Na  Na26  1  0.16591911  0.03856040  0.41452704  1
  Na  Na27  1  0.67257704  0.04555262  0.41576880  1
  Na  Na28  1  0.34843033  0.66865593  0.41442648  1
  Na  Na29  1  0.84731047  0.66621988  0.41884397  1
  Na  Na30  1  0.99924867  0.98840728  0.49968125  1
  Na  Na31  1  0.50557176  0.00925745  0.50193854  1
  Na  Na32  1  0.00284742  0.00015749  0.00082191  1
  Na  Na33  1  0.50397391  0.00920397  0.99735574  1
  Na  Na34  1  0.32997953  0.33806850  0.82873894  1
  Na  Na35  1  0.82699727  0.33689340  0.83110629  1
  Na  Na36  1  0.32685472  0.31249223  0.33506997  1
  Na  Na37  1  0.83012031  0.32423649  0.33301097  1
  Na  Na38  1  0.15547835  0.65065451  0.16716532  1
  Na  Na39  1  0.66173579  0.65049828  0.16856624  1
  Na  Na40  1  0.16014792  0.67079992  0.66790229  1
  Na  Na41  1  0.66043792  0.66112124  0.66444192  1
  Ti  Ti42  1  0.99883237  0.01474175  0.64071354  1
  Ti  Ti43  1  0.50545092  0.01109330  0.65020512  1
  Ti  Ti44  1  0.00434210  0.00040606  0.15006691  1
  Ti  Ti45  1  0.50543401  0.98296760  0.14529907  1
  Ti  Ti46  1  0.82656836  0.32001003  0.68408081  1
  Ti  Ti47  1  0.32925106  0.34941225  0.18849409  1
  Ti  Ti48  1  0.16490448  0.67016035  0.02054574  1
  Ti  Ti49  1  0.66920483  0.67014292  0.02134768  1
  Ti  Ti50  1  0.16820634  0.66802438  0.52143787  1
  Ti  Ti51  1  0.67143298  0.65715547  0.52439202  1
  Ti  Ti52  1  0.17700854  0.67472677  0.30822410  1
  Ti  Ti53  1  0.67804549  0.68205974  0.80688623  1
  Al  Al54  1  0.99850841  0.01618231  0.35074695  1
  Al  Al55  1  0.50420454  0.00786603  0.35336598  1
  Al  Al56  1  0.00459070  0.99797257  0.85199042  1
  Al  Al57  1  0.49809749  0.98113437  0.85013374  1
  Al  Al58  1  0.33552583  0.31915161  0.69101546  1
  Al  Al59  1  0.83550921  0.35130716  0.19148452  1
  Al  Al60  1  0.32434698  0.33811707  0.97857894  1
  Al  Al61  1  0.82095392  0.33851579  0.98131552  1
  Al  Al62  1  0.32221346  0.30544863  0.48141868  1
  Al  Al63  1  0.82481228  0.32101268  0.48200720  1
  Al  Al64  1  0.68318043  0.69032899  0.31422801  1
  Al  Al65  1  0.18108846  0.67701432  0.81229865  1
  Si  Si66  1  0.14596075  0.00154143  0.25370173  1
  Si  Si67  1  0.64768425  0.99547161  0.25404960  1
  Si  Si68  1  0.36106993  0.72408268  0.25126873  1
  Si  Si69  1  0.85712911  0.71496554  0.25289806  1
  Si  Si70  1  0.99640562  0.28963471  0.25116932  1
  Si  Si71  1  0.14474853  0.29461887  0.75217061  1
  Si  Si72  1  0.64509236  0.28869370  0.75561260  1
  Si  Si73  1  0.49708093  0.70497943  0.75136974  1
  Si  Si74  1  0.35641876  0.99822763  0.75283436  1
  Si  Si75  1  0.86259928  0.00675405  0.75265570  1
  Si  Si76  1  0.47305792  0.33592518  0.58287121  1
  Si  Si77  1  0.97664389  0.34607594  0.58163031  1
  Si  Si78  1  0.18991321  0.04403314  0.58558696  1
  Si  Si79  1  0.68278775  0.03436305  0.57972213  1
  Si  Si80  1  0.83927571  0.61712353  0.57913626  1
  Si  Si81  1  0.47713467  0.60989724  0.08118779  1
  Si  Si82  1  0.97288669  0.60956067  0.08283581  1
  Si  Si83  1  0.18335229  0.33260161  0.08002467  1
  Si  Si84  1  0.68834280  0.33517895  0.08607675  1
  Si  Si85  1  0.31462244  0.66896326  0.91665430  1
  Si  Si86  1  0.81535866  0.66955842  0.91617343  1
  Si  Si87  1  0.16849098  0.95950192  0.91315728  1
  Si  Si88  1  0.66883783  0.96507719  0.91730085  1
  Si  Si89  1  0.31604607  0.96131425  0.41636977  1
  Si  Si90  1  0.81530924  0.96386490  0.41722423  1
  Si  Si91  1  0.16813291  0.37210108  0.41688080  1
  Si  Si92  1  0.66679969  0.37644122  0.41160973  1
  S  S93  1  0.49730655  0.28162994  0.25125943  1
  S  S94  1  0.99917912  0.71106674  0.75359992  1
  S  S95  1  0.33523266  0.61634723  0.58105449  1
  S  S96  1  0.33557951  0.05534022  0.08123212  1
  S  S97  1  0.83569774  0.05416012  0.08148812  1
  S  S98  1  0.02240510  0.37766233  0.91559713  1
  S  S99  1  0.51949032  0.37668147  0.91857713  1
  S  S100  1  0.02288668  0.66549754  0.41527802  1
  S  S101  1  0.52286617  0.66893802  0.41461987  1
  O  O102  1  0.10104048  0.04190203  0.31165640  1
  O  O103  1  0.60123320  0.03517028  0.31114428  1
  O  O104  1  0.42285241  0.81596023  0.30988313  1
  O  O105  1  0.92106618  0.81338269  0.31096461  1
  O  O106  1  0.48917540  0.18568788  0.30905307  1
  O  O107  1  0.97960876  0.17530219  0.31312133  1
  O  O108  1  0.10216088  0.16735449  0.81206281  1
  O  O109  1  0.59704870  0.16114587  0.81365800  1
  O  O110  1  0.47898872  0.78237391  0.81415842  1
  O  O111  1  0.99189477  0.79316200  0.81171392  1
  O  O112  1  0.41815257  0.02451531  0.81225092  1
  O  O113  1  0.92242934  0.02830588  0.81219791  1
  O  O114  1  0.40048590  0.96772787  0.69028944  1
  O  O115  1  0.90426433  0.98343355  0.68886537  1
  O  O116  1  0.08103006  0.20374478  0.69140787  1
  O  O117  1  0.58608371  0.20631748  0.69190394  1
  O  O118  1  0.01144225  0.82180733  0.69929792  1
  O  O119  1  0.51860782  0.84663109  0.69561221  1
  O  O120  1  0.40261089  0.82838129  0.18698082  1
  O  O121  1  0.90082504  0.83302262  0.18958403  1
  O  O122  1  0.01858174  0.19193980  0.19464659  1
  O  O123  1  0.50791157  0.19247490  0.19710848  1
  O  O124  1  0.08663182  0.96697333  0.19014820  1
  O  O125  1  0.58306831  0.95552690  0.19124457  1
  O  O126  1  0.42942232  0.35307107  0.64576830  1
  O  O127  1  0.93288680  0.36000324  0.64630392  1
  O  O128  1  0.25160788  0.13297638  0.64552550  1
  O  O129  1  0.74461804  0.12339302  0.64265238  1
  O  O130  1  0.32465831  0.51412093  0.63732406  1
  O  O131  1  0.82010776  0.48631939  0.63810982  1
  O  O132  1  0.43129885  0.50534933  0.14536357  1
  O  O133  1  0.93007807  0.50599670  0.14577881  1
  O  O134  1  0.32672739  0.14335784  0.13605753  1
  O  O135  1  0.82497992  0.13506727  0.13739568  1
  O  O136  1  0.24672479  0.36338113  0.14228151  1
  O  O137  1  0.74940414  0.36469684  0.14576736  1
  O  O138  1  0.22859238  0.29852201  0.02082696  1
  O  O139  1  0.72420507  0.29046240  0.02332625  1
  O  O140  1  0.41419148  0.51323728  0.02315909  1
  O  O141  1  0.91299752  0.51271167  0.02200476  1
  O  O142  1  0.34135252  0.14852645  0.02343018  1
  O  O143  1  0.83948477  0.14820372  0.02435026  1
  O  O144  1  0.22631739  0.15835119  0.52265698  1
  O  O145  1  0.72641673  0.15893906  0.52044408  1
  O  O146  1  0.33910205  0.52916442  0.52405761  1
  O  O147  1  0.84665130  0.52805924  0.51656723  1
  O  O148  1  0.41276704  0.31016651  0.52190244  1
  O  O149  1  0.91503000  0.31258465  0.52268576  1
  O  O150  1  0.26370464  0.69532097  0.97689835  1
  O  O151  1  0.76753731  0.70106902  0.97694366  1
  O  O152  1  0.07742308  0.46690725  0.97087866  1
  O  O153  1  0.57704278  0.46993542  0.97249189  1
  O  O154  1  0.15081336  0.83537725  0.97551774  1
  O  O155  1  0.65367338  0.83785312  0.97778374  1
  O  O156  1  0.26822543  0.83412132  0.47641476  1
  O  O157  1  0.76469148  0.83171639  0.47570000  1
  O  O158  1  0.15344884  0.47033674  0.47685957  1
  O  O159  1  0.64918693  0.46309463  0.47387021  1
  O  O160  1  0.07838217  0.68699801  0.47034213  1
  O  O161  1  0.57725800  0.69031661  0.46914232  1
  O  O162  1  0.06395207  0.64562861  0.35915020  1
  O  O163  1  0.56173276  0.64328082  0.35754913  1
  O  O164  1  0.24861089  0.86094570  0.35867131  1
  O  O165  1  0.75351684  0.88261873  0.35621071  1
  O  O166  1  0.18410950  0.49782046  0.35647243  1
  O  O167  1  0.67771231  0.50413832  0.35359166  1
  O  O168  1  0.06196667  0.48330895  0.85985541  1
  O  O169  1  0.55584690  0.47930161  0.86179124  1
  O  O170  1  0.18198909  0.85732316  0.85549923  1
  O  O171  1  0.68463860  0.87020003  0.85755230  1
  O  O172  1  0.25197774  0.62963677  0.85695766  1
  O  O173  1  0.74705812  0.63360374  0.85959122  1
  O  O174  1  0.01555939  0.82539920  0.41475175  1
  O  O175  1  0.51568477  0.83071965  0.41228274  1
  O  O176  1  0.41146009  0.97759822  0.40933111  1
  O  O177  1  0.91056540  0.97436110  0.41333491  1
  O  O178  1  0.08096183  0.17946897  0.41266216  1
  O  O179  1  0.57936125  0.18037465  0.40915459  1
  O  O180  1  0.01704514  0.20439452  0.91458630  1
  O  O181  1  0.51367550  0.20451892  0.91749575  1
  O  O182  1  0.08155306  0.98092384  0.91044066  1
  O  O183  1  0.58153620  0.98286466  0.91338442  1
  O  O184  1  0.40980030  0.84754754  0.91448776  1
  O  O185  1  0.91146217  0.84338892  0.91024089  1
  O  O186  1  0.48383413  0.15857284  0.58592264  1
  O  O187  1  0.98824634  0.16897907  0.58420845  1
  O  O188  1  0.09359660  0.02359522  0.59383780  1
  O  O189  1  0.58859937  0.02291710  0.58762907  1
  O  O190  1  0.41073535  0.79440352  0.58254673  1
  O  O191  1  0.91971512  0.81629090  0.58713324  1
  O  O192  1  0.48598600  0.80892540  0.08417368  1
  O  O193  1  0.98452357  0.80890270  0.08458674  1
  O  O194  1  0.41102515  0.02713234  0.08444015  1
  O  O195  1  0.91127850  0.02664790  0.08282550  1
  O  O196  1  0.08905699  0.15758806  0.08667979  1
  O  O197  1  0.58994409  0.16235501  0.09370131  1
  O  O198  1  0.34534918  0.17101664  0.74991368  1
  O  O199  1  0.85024858  0.17867136  0.75037089  1
  O  O200  1  0.24208840  0.32022121  0.74211015  1
  O  O201  1  0.74013379  0.30357673  0.74760117  1
  O  O202  1  0.41120061  0.51509175  0.74129570  1
  O  O203  1  0.92154100  0.53655559  0.75055237  1
  O  O204  1  0.35023448  0.52495808  0.24799881  1
  O  O205  1  0.84508570  0.51944161  0.24903491  1
  O  O206  1  0.41873288  0.30134096  0.24767774  1
  O  O207  1  0.91060510  0.30704772  0.24111317  1
  O  O208  1  0.24263946  0.17645545  0.24395331  1
  O  O209  1  0.74308461  0.16426385  0.24232348  1
  O  O210  1  0.32576615  0.49587546  0.92191798  1
  O  O211  1  0.82252075  0.49290086  0.92141485  1
  O  O212  1  0.43056295  0.35155360  0.92563503  1
  O  O213  1  0.93352602  0.35162233  0.92143895  1
  O  O214  1  0.25774251  0.15126642  0.92055188  1
  O  O215  1  0.75840594  0.15539157  0.92391373  1
  O  O216  1  0.32294242  0.15207697  0.42078634  1
  O  O217  1  0.82623073  0.15851724  0.42367914  1
  O  O218  1  0.25775176  0.36071865  0.42301109  1
  O  O219  1  0.75477634  0.35986678  0.41631054  1
  O  O220  1  0.43334806  0.51633947  0.41907513  1
  O  O221  1  0.93564127  0.50905459  0.41864895  1
  O  O222  1  0.18104592  0.51460129  0.07834454  1
  O  O223  1  0.68310053  0.51506646  0.07823510  1
  O  O224  1  0.07487453  0.64751896  0.07661711  1
  O  O225  1  0.57786234  0.65055508  0.07933046  1
  O  O226  1  0.25355458  0.87741148  0.08090018  1
  O  O227  1  0.75421086  0.87315543  0.08048356  1
  O  O228  1  0.18421890  0.85282086  0.57724890  1
  O  O229  1  0.67834670  0.84688774  0.57642211  1
  O  O230  1  0.25347116  0.63301157  0.58023597  1
  O  O231  1  0.74889583  0.63261504  0.57845835  1
  O  O232  1  0.07762268  0.51050956  0.57848049  1
  O  O233  1  0.57362588  0.49983383  0.57662710  1
  O  O234  1  0.15016980  0.82258079  0.25697789  1
  O  O235  1  0.65051774  0.81319616  0.25848331  1
  O  O236  1  0.26100303  0.68719914  0.25234159  1
  O  O237  1  0.75988347  0.69651692  0.25498512  1
  O  O238  1  0.08390168  0.48355634  0.25571990  1
  O  O239  1  0.57552301  0.45994767  0.25296211  1
  O  O240  1  0.14934090  0.48524760  0.75888735  1
  O  O241  1  0.64934362  0.47702226  0.75906408  1
  O  O242  1  0.07854193  0.69118752  0.75672608  1
  O  O243  1  0.58471132  0.68588847  0.75630281  1
  O  O244  1  0.25874431  0.82277933  0.75430655  1
  O  O245  1  0.76250150  0.83595870  0.75352191  1
