# generated using pymatgen
data_Na2Nb5Al3Si6(SO8)6
_symmetry_space_group_name_H-M   'P 1'
_cell_length_a   17.53721105
_cell_length_b   8.75290202
_cell_length_c   22.60742229
_cell_angle_alpha   89.97906670
_cell_angle_beta   90.00932062
_cell_angle_gamma   120.24327568
_symmetry_Int_Tables_number   1
_chemical_formula_structural   Na2Nb5Al3Si6(SO8)6
_chemical_formula_sum   'Na6 Nb15 Al9 Si18 S18 O144'
_cell_volume   2997.94998951
_cell_formula_units_Z   3
loop_
 _symmetry_equiv_pos_site_id
 _symmetry_equiv_pos_as_xyz
  1  'x, y, z'
loop_
 _atom_site_type_symbol
 _atom_site_label
 _atom_site_symmetry_multiplicity
 _atom_site_fract_x
 _atom_site_fract_y
 _atom_site_fract_z
 _atom_site_occupancy
  Na  Na0  1  0.99617308  0.98757109  0.49795887  1
  Na  Na1  1  0.50122488  0.99924272  0.99847023  1
  Na  Na2  1  0.33431279  0.32376400  0.83965027  1
  Na  Na3  1  0.83251860  0.33612043  0.83884416  1
  Na  Na4  1  0.32821453  0.32605880  0.33751007  1
  Na  Na5  1  0.83581988  0.34081715  0.34405737  1
  Nb  Nb6  1  0.49424204  0.99371142  0.36279710  1
  Nb  Nb7  1  0.00602067  0.00706194  0.86432998  1
  Nb  Nb8  1  0.49850977  0.00163413  0.63960772  1
  Nb  Nb9  1  0.00071501  0.01187198  0.14555823  1
  Nb  Nb10  1  0.32793961  0.33616497  0.69184406  1
  Nb  Nb11  1  0.82427948  0.32686127  0.68439416  1
  Nb  Nb12  1  0.33989512  0.34554874  0.19152313  1
  Nb  Nb13  1  0.83336210  0.31828211  0.18955472  1
  Nb  Nb14  1  0.16487317  0.66673393  0.01967904  1
  Nb  Nb15  1  0.66444278  0.66012805  0.02454572  1
  Nb  Nb16  1  0.16714824  0.67305729  0.52054111  1
  Nb  Nb17  1  0.67427623  0.66322774  0.52543435  1
  Nb  Nb18  1  0.16342263  0.67898480  0.30778442  1
  Nb  Nb19  1  0.16572532  0.67040344  0.80738617  1
  Nb  Nb20  1  0.66509433  0.64653652  0.81371498  1
  Al  Al21  1  0.00649378  0.00103032  0.35370275  1
  Al  Al22  1  0.50491652  0.03473169  0.85215282  1
  Al  Al23  1  0.99569235  0.00576414  0.64653075  1
  Al  Al24  1  0.49414581  0.97661607  0.14450622  1
  Al  Al25  1  0.34390251  0.34195056  0.97648382  1
  Al  Al26  1  0.83547218  0.32774999  0.97466723  1
  Al  Al27  1  0.33173461  0.33343491  0.48025944  1
  Al  Al28  1  0.82919262  0.36133467  0.47785803  1
  Al  Al29  1  0.67206772  0.66534059  0.31728186  1
  Si  Si30  1  0.14069180  0.00580421  0.25132964  1
  Si  Si31  1  0.35972938  0.72726691  0.24857602  1
  Si  Si32  1  0.99972916  0.27673166  0.25815515  1
  Si  Si33  1  0.13326393  0.27405324  0.74662489  1
  Si  Si34  1  0.64071755  0.27627488  0.75162198  1
  Si  Si35  1  0.36221662  0.00348246  0.75171192  1
  Si  Si36  1  0.69257564  0.05387816  0.57505124  1
  Si  Si37  1  0.33159693  0.61029844  0.57739098  1
  Si  Si38  1  0.84686596  0.63796075  0.58219471  1
  Si  Si39  1  0.47251643  0.62657342  0.07864390  1
  Si  Si40  1  0.83399581  0.05028541  0.07594671  1
  Si  Si41  1  0.80966038  0.65184820  0.92089896  1
  Si  Si42  1  0.01732032  0.38371811  0.91630110  1
  Si  Si43  1  0.51669239  0.36367025  0.91855844  1
  Si  Si44  1  0.17749555  0.97259532  0.91764372  1
  Si  Si45  1  0.30709574  0.97102121  0.41845561  1
  Si  Si46  1  0.67297487  0.38863703  0.41324164  1
  Si  Si47  1  0.01392042  0.66508040  0.41636670  1
  S  S48  1  0.64040411  0.98848152  0.25079322  1
  S  S49  1  0.85246292  0.71430041  0.25253749  1
  S  S50  1  0.50733715  0.29208704  0.24939782  1
  S  S51  1  0.99858020  0.71602564  0.74792405  1
  S  S52  1  0.50178112  0.72123260  0.75253490  1
  S  S53  1  0.85836543  0.00138128  0.74940139  1
  S  S54  1  0.47323987  0.33464543  0.58075714  1
  S  S55  1  0.97541591  0.32613799  0.58235256  1
  S  S56  1  0.18771279  0.04953224  0.58260969  1
  S  S57  1  0.97436440  0.61715946  0.08151801  1
  S  S58  1  0.33756513  0.04952412  0.08276272  1
  S  S59  1  0.19325255  0.33399820  0.08127773  1
  S  S60  1  0.68718099  0.32374844  0.08380227  1
  S  S61  1  0.31404534  0.66674939  0.91616626  1
  S  S62  1  0.66416128  0.95739779  0.91633935  1
  S  S63  1  0.81133587  0.95509501  0.41377401  1
  S  S64  1  0.16667830  0.37224267  0.41701713  1
  S  S65  1  0.52351180  0.65876963  0.41534451  1
  O  O66  1  0.09826552  0.03963216  0.30806708  1
  O  O67  1  0.60545943  0.03032154  0.30356192  1
  O  O68  1  0.42311444  0.80792669  0.30690848  1
  O  O69  1  0.90935173  0.78891615  0.30427021  1
  O  O70  1  0.48775666  0.17778765  0.30246754  1
  O  O71  1  0.97751400  0.14513476  0.31181920  1
  O  O72  1  0.09464827  0.15544157  0.80642195  1
  O  O73  1  0.60155178  0.16054665  0.80972549  1
  O  O74  1  0.48384126  0.79391423  0.80504778  1
  O  O75  1  0.98301170  0.78840260  0.80234049  1
  O  O76  1  0.41846108  0.02962794  0.80994870  1
  O  O77  1  0.91206522  0.02796396  0.80256445  1
  O  O78  1  0.40284846  0.97046811  0.69129903  1
  O  O79  1  0.89650072  0.97137312  0.69573912  1
  O  O80  1  0.07791701  0.18015259  0.68905267  1
  O  O81  1  0.58346509  0.19283757  0.69190156  1
  O  O82  1  0.01091970  0.82237067  0.69524453  1
  O  O83  1  0.51362368  0.82030116  0.69715340  1
  O  O84  1  0.40597258  0.84539366  0.19165167  1
  O  O85  1  0.89285190  0.81952097  0.19707271  1
  O  O86  1  0.00973746  0.18975279  0.19474776  1
  O  O87  1  0.51905087  0.21188391  0.19576368  1
  O  O88  1  0.08133820  0.97170956  0.19076318  1
  O  O89  1  0.59022920  0.96935595  0.19639060  1
  O  O90  1  0.43480210  0.35923839  0.63541188  1
  O  O91  1  0.93747245  0.35909929  0.63743195  1
  O  O92  1  0.24385089  0.12729713  0.63683439  1
  O  O93  1  0.75021310  0.13131856  0.63888629  1
  O  O94  1  0.32043775  0.49382751  0.63843913  1
  O  O95  1  0.82162496  0.50504763  0.64114954  1
  O  O96  1  0.42813462  0.49871205  0.13850941  1
  O  O97  1  0.93504679  0.50983176  0.13652614  1
  O  O98  1  0.31835392  0.12152793  0.13649122  1
  O  O99  1  0.82140407  0.14452968  0.13859136  1
  O  O100  1  0.24456888  0.35957070  0.13638112  1
  O  O101  1  0.74394703  0.35679077  0.13759743  1
  O  O102  1  0.23125239  0.30381795  0.02890267  1
  O  O103  1  0.72720476  0.29724131  0.03106310  1
  O  O104  1  0.40739354  0.52160064  0.02506187  1
  O  O105  1  0.92130008  0.53702787  0.02911441  1
  O  O106  1  0.34819176  0.15527950  0.02970158  1
  O  O107  1  0.84795833  0.18432234  0.02469335  1
  O  O108  1  0.23040434  0.15681526  0.52979755  1
  O  O109  1  0.74541637  0.18128640  0.52240499  1
  O  O110  1  0.34703438  0.51373963  0.52300857  1
  O  O111  1  0.85782840  0.54508686  0.52562152  1
  O  O112  1  0.41911763  0.30509808  0.52820463  1
  O  O113  1  0.92156981  0.29656243  0.53022272  1
  O  O114  1  0.27119883  0.69732376  0.97053050  1
  O  O115  1  0.76504506  0.69857814  0.97531585  1
  O  O116  1  0.08382071  0.47193080  0.97517035  1
  O  O117  1  0.58404899  0.47012313  0.97344682  1
  O  O118  1  0.15690468  0.83540196  0.97511624  1
  O  O119  1  0.65066941  0.84731889  0.96990699  1
  O  O120  1  0.26613402  0.83866504  0.47597772  1
  O  O121  1  0.76808696  0.84056695  0.46818044  1
  O  O122  1  0.15254991  0.45598320  0.47089220  1
  O  O123  1  0.65120198  0.47391043  0.47216297  1
  O  O124  1  0.08297938  0.69655898  0.47353065  1
  O  O125  1  0.57618411  0.69102320  0.46914882  1
  O  O126  1  0.06739139  0.63784575  0.36029512  1
  O  O127  1  0.56553332  0.63886858  0.36121672  1
  O  O128  1  0.25009566  0.87405892  0.36011501  1
  O  O129  1  0.75296905  0.86829527  0.36115600  1
  O  O130  1  0.18374893  0.48257029  0.36415684  1
  O  O131  1  0.68214873  0.50719207  0.35674775  1
  O  O132  1  0.06978470  0.50758236  0.86010956  1
  O  O133  1  0.56662387  0.49554961  0.85939503  1
  O  O134  1  0.18720211  0.87081034  0.86052990  1
  O  O135  1  0.68167474  0.87933875  0.86273477  1
  O  O136  1  0.25747962  0.63754560  0.86359022  1
  O  O137  1  0.74863054  0.63035831  0.86074309  1
  O  O138  1  0.00745398  0.84314523  0.40721649  1
  O  O139  1  0.51566005  0.82254163  0.40872450  1
  O  O140  1  0.40416987  0.98352552  0.40873624  1
  O  O141  1  0.89732285  0.96440972  0.40867885  1
  O  O142  1  0.08542846  0.19640714  0.41209289  1
  O  O143  1  0.58392303  0.19151399  0.40216649  1
  O  O144  1  0.01219367  0.19297830  0.90923398  1
  O  O145  1  0.51220145  0.17558783  0.91233404  1
  O  O146  1  0.08364356  0.96824268  0.91017879  1
  O  O147  1  0.58321422  0.96792673  0.90900405  1
  O  O148  1  0.40202198  0.82378487  0.91060278  1
  O  O149  1  0.90320682  0.82563365  0.90271354  1
  O  O150  1  0.48463103  0.17764093  0.58646625  1
  O  O151  1  0.98645517  0.16941723  0.59153900  1
  O  O152  1  0.10007947  0.02933220  0.59015415  1
  O  O153  1  0.59677502  0.02941652  0.59295152  1
  O  O154  1  0.41737976  0.80445696  0.59169266  1
  O  O155  1  0.92741838  0.83270958  0.59621311  1
  O  O156  1  0.48933299  0.82453500  0.08981665  1
  O  O157  1  0.98599742  0.79443406  0.09026571  1
  O  O158  1  0.41778400  0.03509296  0.09052053  1
  O  O159  1  0.91797528  0.02436812  0.09204578  1
  O  O160  1  0.10211494  0.17668442  0.08910283  1
  O  O161  1  0.59764314  0.16910418  0.09407650  1
  O  O162  1  0.34903570  0.17572923  0.73985996  1
  O  O163  1  0.85191605  0.16531917  0.74344167  1
  O  O164  1  0.23560795  0.30368703  0.74188670  1
  O  O165  1  0.74312880  0.31019186  0.74496016  1
  O  O166  1  0.42258793  0.53510527  0.74476763  1
  O  O167  1  0.92250390  0.53157961  0.74242731  1
  O  O168  1  0.34869677  0.52455081  0.24205543  1
  O  O169  1  0.84138832  0.53310525  0.24184998  1
  O  O170  1  0.42312646  0.30383921  0.24342634  1
  O  O171  1  0.91384411  0.30893308  0.24297087  1
  O  O172  1  0.24116483  0.17203215  0.23913008  1
  O  O173  1  0.73235769  0.15623377  0.24293879  1
  O  O174  1  0.31719448  0.50361770  0.92477001  1
  O  O175  1  0.81651734  0.47859702  0.93029512  1
  O  O176  1  0.42416468  0.35852345  0.92348122  1
  O  O177  1  0.92191739  0.35889844  0.92383158  1
  O  O178  1  0.25679105  0.16493380  0.93181192  1
  O  O179  1  0.74350604  0.13493056  0.92428742  1
  O  O180  1  0.32268553  0.16563485  0.42993875  1
  O  O181  1  0.81926277  0.12771815  0.42137939  1
  O  O182  1  0.24581142  0.35298758  0.42586599  1
  O  O183  1  0.75399140  0.35600667  0.42157035  1
  O  O184  1  0.43356838  0.50423600  0.42088615  1
  O  O185  1  0.92303397  0.48183976  0.42695081  1
  O  O186  1  0.18308208  0.49295965  0.07575793  1
  O  O187  1  0.68014299  0.48635753  0.07861915  1
  O  O188  1  0.06438478  0.63507412  0.07644829  1
  O  O189  1  0.56921860  0.64127819  0.07149095  1
  O  O190  1  0.25875246  0.86625502  0.07485556  1
  O  O191  1  0.74706730  0.85737442  0.07354137  1
  O  O192  1  0.17957253  0.87122420  0.57736649  1
  O  O193  1  0.67639568  0.85386143  0.56849905  1
  O  O194  1  0.24446661  0.63102032  0.57143871  1
  O  O195  1  0.75470328  0.64888669  0.57504797  1
  O  O196  1  0.06524343  0.48636399  0.57591386  1
  O  O197  1  0.56250043  0.49412742  0.57503092  1
  O  O198  1  0.15281225  0.83334862  0.25514338  1
  O  O199  1  0.65432936  0.83771555  0.26044949  1
  O  O200  1  0.26145895  0.68758619  0.26196743  1
  O  O201  1  0.76496741  0.69807992  0.25981712  1
  O  O202  1  0.08436090  0.47109295  0.26021491  1
  O  O203  1  0.58124356  0.47247112  0.25930277  1
  O  O204  1  0.15205520  0.47403645  0.75953430  1
  O  O205  1  0.65425060  0.47803794  0.75772819  1
  O  O206  1  0.07964175  0.70046187  0.75422035  1
  O  O207  1  0.58048492  0.70124778  0.75867796  1
  O  O208  1  0.26218486  0.83304502  0.76016283  1
  O  O209  1  0.76776923  0.84807550  0.75700011  1
