# generated using pymatgen
data_MgTl2(SbO3)2
_symmetry_space_group_name_H-M   'P 1'
_cell_length_a   8.31153688
_cell_length_b   8.30988810
_cell_length_c   8.31818436
_cell_angle_alpha   40.53914227
_cell_angle_beta   40.56437520
_cell_angle_gamma   40.54644462
_symmetry_Int_Tables_number   1
_chemical_formula_structural   MgTl2(SbO3)2
_chemical_formula_sum   'Mg1 Tl2 Sb2 O6'
_cell_volume   219.01802209
_cell_formula_units_Z   1
loop_
 _symmetry_equiv_pos_site_id
 _symmetry_equiv_pos_as_xyz
  1  'x, y, z'
loop_
 _atom_site_type_symbol
 _atom_site_label
 _atom_site_symmetry_multiplicity
 _atom_site_fract_x
 _atom_site_fract_y
 _atom_site_fract_z
 _atom_site_occupancy
  Mg  Mg0  1  0.27621300  0.27600000  0.27331700  1
  Tl  Tl1  1  0.60711400  0.60689100  0.60532300  1
  Tl  Tl2  1  0.39830700  0.39812700  0.39909000  1
  Sb  Sb3  1  0.83602200  0.83574700  0.83584200  1
  Sb  Sb4  1  0.15739500  0.15734300  0.15734300  1
  O  O5  1  0.82528600  0.43061100  0.09085800  1
  O  O6  1  0.42923700  0.09070100  0.82605500  1
  O  O7  1  0.09079800  0.82539800  0.43000500  1
  O  O8  1  0.20088400  0.49949500  0.95839900  1
  O  O9  1  0.96067100  0.20127800  0.49734200  1
  O  O10  1  0.49932200  0.95965800  0.19986300  1
