# generated using pymatgen
data_Na6Mg4Ta20Si21(S5O48)3
_symmetry_space_group_name_H-M   'P 1'
_cell_length_a   17.68265725
_cell_length_b   8.83961402
_cell_length_c   22.89254248
_cell_angle_alpha   90.03365013
_cell_angle_beta   89.98213797
_cell_angle_gamma   119.95075885
_symmetry_Int_Tables_number   1
_chemical_formula_structural   Na6Mg4Ta20Si21(S5O48)3
_chemical_formula_sum   'Na6 Mg4 Ta20 Si21 S15 O144'
_cell_volume   3100.42116902
_cell_formula_units_Z   1
loop_
 _symmetry_equiv_pos_site_id
 _symmetry_equiv_pos_as_xyz
  1  'x, y, z'
loop_
 _atom_site_type_symbol
 _atom_site_label
 _atom_site_symmetry_multiplicity
 _atom_site_fract_x
 _atom_site_fract_y
 _atom_site_fract_z
 _atom_site_occupancy
  Na  Na0  1  0.99873317  0.99778264  0.49921857  1
  Na  Na1  1  0.49996007  0.00087232  0.00133646  1
  Na  Na2  1  0.33515517  0.32302121  0.83594979  1
  Na  Na3  1  0.83345740  0.33271175  0.83420808  1
  Na  Na4  1  0.33538425  0.33550022  0.33305501  1
  Na  Na5  1  0.83166294  0.34338479  0.33356811  1
  Mg  Mg6  1  0.99731684  0.98231130  0.35431913  1
  Mg  Mg7  1  0.49741669  0.01391435  0.85437514  1
  Mg  Mg8  1  0.99394514  0.00467690  0.64608779  1
  Mg  Mg9  1  0.49675083  0.97652033  0.14915739  1
  Ta  Ta10  1  0.50247017  0.99072859  0.35897405  1
  Ta  Ta11  1  0.99461218  0.00194594  0.86088141  1
  Ta  Ta12  1  0.49309813  0.99282017  0.63919028  1
  Ta  Ta13  1  0.99277682  0.99315637  0.13941779  1
  Ta  Ta14  1  0.33583785  0.33606533  0.68663182  1
  Ta  Ta15  1  0.83705261  0.32116831  0.68484740  1
  Ta  Ta16  1  0.33852242  0.35583732  0.18629838  1
  Ta  Ta17  1  0.83179039  0.32668505  0.19071544  1
  Ta  Ta18  1  0.33455081  0.33484219  0.97946126  1
  Ta  Ta19  1  0.84068774  0.34219602  0.97901827  1
  Ta  Ta20  1  0.34061713  0.33973130  0.47683555  1
  Ta  Ta21  1  0.83353288  0.33097069  0.47752875  1
  Ta  Ta22  1  0.16011085  0.66071538  0.02480776  1
  Ta  Ta23  1  0.66478655  0.65745093  0.02503781  1
  Ta  Ta24  1  0.16535221  0.67211475  0.52323980  1
  Ta  Ta25  1  0.66054346  0.66035922  0.52296114  1
  Ta  Ta26  1  0.16756872  0.67822566  0.31205061  1
  Ta  Ta27  1  0.66608599  0.65912609  0.30683338  1
  Ta  Ta28  1  0.16767883  0.67876618  0.81085357  1
  Ta  Ta29  1  0.66728374  0.65867988  0.81271508  1
  Si  Si30  1  0.64120306  0.99848455  0.24916887  1
  Si  Si31  1  0.35688550  0.72026705  0.24958334  1
  Si  Si32  1  0.85923680  0.71603586  0.25154287  1
  Si  Si33  1  0.35803297  0.00111332  0.75125086  1
  Si  Si34  1  0.85603850  0.99629031  0.74906565  1
  Si  Si35  1  0.47740179  0.33433751  0.58307145  1
  Si  Si36  1  0.97982132  0.32509216  0.58104727  1
  Si  Si37  1  0.68982805  0.04460373  0.58217845  1
  Si  Si38  1  0.32868533  0.61348778  0.58263587  1
  Si  Si39  1  0.47934250  0.63688462  0.08177200  1
  Si  Si40  1  0.97529954  0.61767467  0.08587404  1
  Si  Si41  1  0.82933551  0.04489123  0.08310605  1
  Si  Si42  1  0.19011929  0.33349843  0.08297022  1
  Si  Si43  1  0.80672618  0.65892026  0.91834070  1
  Si  Si44  1  0.02553135  0.38614806  0.91592867  1
  Si  Si45  1  0.52240067  0.37124680  0.91708156  1
  Si  Si46  1  0.16784745  0.95726626  0.91750814  1
  Si  Si47  1  0.31036104  0.95458710  0.41745977  1
  Si  Si48  1  0.66700282  0.38145151  0.41603785  1
  Si  Si49  1  0.02242768  0.67447509  0.41652230  1
  Si  Si50  1  0.52628204  0.66666215  0.41519740  1
  S  S51  1  0.14477452  0.00360908  0.24987977  1
  S  S52  1  0.00138023  0.28686315  0.25135946  1
  S  S53  1  0.49829780  0.28220331  0.24853162  1
  S  S54  1  0.14383456  0.28780334  0.75048078  1
  S  S55  1  0.64465068  0.28657716  0.75018075  1
  S  S56  1  0.99945946  0.71465610  0.74934180  1
  S  S57  1  0.50010001  0.71402430  0.75125871  1
  S  S58  1  0.18865698  0.04830468  0.58316548  1
  S  S59  1  0.83492849  0.62145136  0.58305135  1
  S  S60  1  0.33505723  0.04718772  0.08324755  1
  S  S61  1  0.68846733  0.32813739  0.08309360  1
  S  S62  1  0.31082674  0.66849120  0.91662470  1
  S  S63  1  0.66453629  0.95085860  0.91698798  1
  S  S64  1  0.81104010  0.95223569  0.41685094  1
  S  S65  1  0.16465557  0.37873272  0.41699875  1
  O  O66  1  0.11007358  0.03798201  0.30268646  1
  O  O67  1  0.59840017  0.03415557  0.30820496  1
  O  O68  1  0.41697361  0.80422038  0.30818293  1
  O  O69  1  0.91622227  0.79191403  0.30783928  1
  O  O70  1  0.48354650  0.17973465  0.30234155  1
  O  O71  1  0.98613145  0.18175821  0.30348344  1
  O  O72  1  0.10519592  0.17770345  0.80306336  1
  O  O73  1  0.60970234  0.18214713  0.80251408  1
  O  O74  1  0.48440350  0.78725730  0.80320984  1
  O  O75  1  0.98699399  0.79409015  0.80248212  1
  O  O76  1  0.41421398  0.03903548  0.80787642  1
  O  O77  1  0.91820197  0.02993861  0.80751424  1
  O  O78  1  0.40457301  0.97400672  0.69265508  1
  O  O79  1  0.89550906  0.96134177  0.69302344  1
  O  O80  1  0.09387802  0.21308713  0.69754949  1
  O  O81  1  0.59108721  0.20792175  0.69750029  1
  O  O82  1  0.01656025  0.81771558  0.69671129  1
  O  O83  1  0.51320443  0.81772954  0.69768174  1
  O  O84  1  0.38997217  0.82558954  0.19154230  1
  O  O85  1  0.90571628  0.83873878  0.19280835  1
  O  O86  1  0.01456520  0.20924674  0.19774423  1
  O  O87  1  0.51334261  0.21316705  0.19597842  1
  O  O88  1  0.09128202  0.97497382  0.19739516  1
  O  O89  1  0.58946199  0.97062351  0.19109334  1
  O  O90  1  0.42872337  0.36152836  0.63985055  1
  O  O91  1  0.93230990  0.36314481  0.63945380  1
  O  O92  1  0.24494969  0.13061688  0.63632539  1
  O  O93  1  0.75193099  0.14197104  0.64032625  1
  O  O94  1  0.31649392  0.49448971  0.64075668  1
  O  O95  1  0.81887712  0.51004497  0.63615444  1
  O  O96  1  0.43243939  0.50219335  0.13915015  1
  O  O97  1  0.92834057  0.49291335  0.14042050  1
  O  O98  1  0.31754309  0.12474327  0.13543368  1
  O  O99  1  0.81695391  0.13911011  0.13990140  1
  O  O100  1  0.25259489  0.36107435  0.14012929  1
  O  O101  1  0.74426888  0.36062685  0.13556525  1
  O  O102  1  0.23528384  0.30023826  0.02603275  1
  O  O103  1  0.73206745  0.30692611  0.02986258  1
  O  O104  1  0.41453247  0.51766188  0.02736431  1
  O  O105  1  0.91632656  0.53151259  0.02619069  1
  O  O106  1  0.34494169  0.15596039  0.02944178  1
  O  O107  1  0.84485154  0.16974055  0.02594328  1
  O  O108  1  0.23003918  0.15640617  0.53087980  1
  O  O109  1  0.73535408  0.17103908  0.52666469  1
  O  O110  1  0.34431985  0.51759420  0.52692899  1
  O  O111  1  0.84610134  0.53466396  0.53012927  1
  O  O112  1  0.41498358  0.29995078  0.52641279  1
  O  O113  1  0.91399240  0.30810286  0.52743544  1
  O  O114  1  0.26943342  0.69305479  0.96900093  1
  O  O115  1  0.76391280  0.69584238  0.97412548  1
  O  O116  1  0.08394057  0.47422815  0.97398257  1
  O  O117  1  0.58543248  0.48296873  0.97230078  1
  O  O118  1  0.15555644  0.83306357  0.97311542  1
  O  O119  1  0.65385856  0.84597870  0.96991860  1
  O  O120  1  0.26343703  0.83294595  0.47396652  1
  O  O121  1  0.76972443  0.84709652  0.47006657  1
  O  O122  1  0.15403236  0.46203051  0.47043018  1
  O  O123  1  0.65733364  0.48064767  0.47415071  1
  O  O124  1  0.08474978  0.68758535  0.47260960  1
  O  O125  1  0.58313823  0.69276721  0.47463890  1
  O  O126  1  0.06785499  0.63361530  0.35950214  1
  O  O127  1  0.56983238  0.63148909  0.35953253  1
  O  O128  1  0.24646677  0.86064305  0.36016535  1
  O  O129  1  0.75644698  0.87498963  0.36434591  1
  O  O130  1  0.18200596  0.49044032  0.36423799  1
  O  O131  1  0.68380389  0.50628684  0.35963797  1
  O  O132  1  0.07114361  0.50355575  0.85845455  1
  O  O133  1  0.56856244  0.50225997  0.85937744  1
  O  O134  1  0.18266533  0.86121922  0.85935779  1
  O  O135  1  0.68155361  0.87178260  0.86373831  1
  O  O136  1  0.25485815  0.63778125  0.86339808  1
  O  O137  1  0.74770278  0.63385783  0.85943624  1
  O  O138  1  0.01600413  0.84694861  0.41555131  1
  O  O139  1  0.51287022  0.83356610  0.41019821  1
  O  O140  1  0.40529783  0.98342620  0.40397276  1
  O  O141  1  0.89922035  0.98106089  0.41148394  1
  O  O142  1  0.08780353  0.20733972  0.40953216  1
  O  O143  1  0.58054390  0.19463777  0.40581945  1
  O  O144  1  0.01500608  0.19383354  0.90733388  1
  O  O145  1  0.51551038  0.18567944  0.91499442  1
  O  O146  1  0.08273437  0.97243917  0.90113539  1
  O  O147  1  0.58754683  0.96749424  0.90860007  1
  O  O148  1  0.39826182  0.81658275  0.90966564  1
  O  O149  1  0.90360965  0.82588432  0.90505021  1
  O  O150  1  0.48852184  0.16601074  0.59404085  1
  O  O151  1  0.99066202  0.15878988  0.58551086  1
  O  O152  1  0.10186745  0.02421593  0.59173173  1
  O  O153  1  0.59583883  0.02258356  0.59960815  1
  O  O154  1  0.41764006  0.80100290  0.59356225  1
  O  O155  1  0.91383134  0.79059445  0.58884986  1
  O  O156  1  0.48650246  0.82127692  0.08204032  1
  O  O157  1  0.98933784  0.81211077  0.09348274  1
  O  O158  1  0.41345017  0.03573088  0.08780817  1
  O  O159  1  0.91788696  0.03318523  0.09239304  1
  O  O160  1  0.09590235  0.16913503  0.09884779  1
  O  O161  1  0.60159045  0.18169332  0.08824575  1
  O  O162  1  0.33845252  0.16530331  0.73787082  1
  O  O163  1  0.84496224  0.17672909  0.74392654  1
  O  O164  1  0.23458183  0.31063625  0.74439008  1
  O  O165  1  0.73626634  0.32095715  0.74120896  1
  O  O166  1  0.41974001  0.53139412  0.74246618  1
  O  O167  1  0.92002485  0.53603257  0.74395936  1
  O  O168  1  0.34461242  0.51472709  0.24370186  1
  O  O169  1  0.84351290  0.51853918  0.23700553  1
  O  O170  1  0.41819746  0.30442612  0.24306742  1
  O  O171  1  0.92228382  0.30945775  0.24315680  1
  O  O172  1  0.23629136  0.15204253  0.24101415  1
  O  O173  1  0.74266550  0.17172681  0.24346201  1
  O  O174  1  0.31578039  0.50346034  0.92215959  1
  O  O175  1  0.81526646  0.48403322  0.92395499  1
  O  O176  1  0.42658052  0.36164982  0.92514264  1
  O  O177  1  0.92668943  0.35785036  0.92329145  1
  O  O178  1  0.25341234  0.14909532  0.92392516  1
  O  O179  1  0.74466149  0.12812197  0.92328839  1
  O  O180  1  0.31387641  0.14357760  0.42543646  1
  O  O181  1  0.81656669  0.12899719  0.42347208  1
  O  O182  1  0.24475745  0.36102997  0.42425953  1
  O  O183  1  0.75256765  0.35792143  0.42586796  1
  O  O184  1  0.42685179  0.49493218  0.42395674  1
  O  O185  1  0.92692710  0.49276061  0.42596185  1
  O  O186  1  0.18479729  0.50969440  0.07134584  1
  O  O187  1  0.68496661  0.49400029  0.07568596  1
  O  O188  1  0.07155908  0.64098406  0.07443105  1
  O  O189  1  0.57128009  0.63755645  0.07173475  1
  O  O190  1  0.25598368  0.87289013  0.07313698  1
  O  O191  1  0.74742673  0.85473831  0.07096171  1
  O  O192  1  0.18428271  0.87603232  0.57700983  1
  O  O193  1  0.68478612  0.85890380  0.57211687  1
  O  O194  1  0.24680243  0.64019010  0.57222919  1
  O  O195  1  0.75662330  0.63934701  0.57468581  1
  O  O196  1  0.07205628  0.50722167  0.57195201  1
  O  O197  1  0.57235189  0.50458164  0.57539493  1
  O  O198  1  0.15256895  0.84085737  0.25683465  1
  O  O199  1  0.65759277  0.83565081  0.26591551  1
  O  O200  1  0.25588603  0.67544090  0.26578678  1
  O  O201  1  0.76047959  0.68888649  0.25867845  1
  O  O202  1  0.07844354  0.46482010  0.25794598  1
  O  O203  1  0.57487662  0.46403387  0.25753632  1
  O  O204  1  0.15589285  0.46517914  0.76094947  1
  O  O205  1  0.65252731  0.46482642  0.75722948  1
  O  O206  1  0.07653369  0.68657085  0.75906834  1
  O  O207  1  0.57659024  0.68836882  0.75751012  1
  O  O208  1  0.25929161  0.82555083  0.75914069  1
  O  O209  1  0.75666754  0.83708332  0.76534802  1
