# generated using pymatgen
data_Na10Ta4Al4Si9(SO16)3
_symmetry_space_group_name_H-M   'P 1'
_cell_length_a   17.72613327
_cell_length_b   8.83840115
_cell_length_c   22.14185552
_cell_angle_alpha   89.94980502
_cell_angle_beta   90.72744570
_cell_angle_gamma   119.78619666
_symmetry_Int_Tables_number   1
_chemical_formula_structural   Na10Ta4Al4Si9(SO16)3
_chemical_formula_sum   'Na30 Ta12 Al12 Si27 S9 O144'
_cell_volume   3010.37420259
_cell_formula_units_Z   3
loop_
 _symmetry_equiv_pos_site_id
 _symmetry_equiv_pos_as_xyz
  1  'x, y, z'
loop_
 _atom_site_type_symbol
 _atom_site_label
 _atom_site_symmetry_multiplicity
 _atom_site_fract_x
 _atom_site_fract_y
 _atom_site_fract_z
 _atom_site_occupancy
  Na  Na0  1  0.18721625  0.36798139  0.24082431  1
  Na  Na1  1  0.68724229  0.36922712  0.24026947  1
  Na  Na2  1  0.18777559  0.00578147  0.73915788  1
  Na  Na3  1  0.68460731  0.00232668  0.74018611  1
  Na  Na4  1  0.65054649  0.33639726  0.57904333  1
  Na  Na5  1  0.02175343  0.70761009  0.57307952  1
  Na  Na6  1  0.51863569  0.69392734  0.57839474  1
  Na  Na7  1  0.32766406  0.97185134  0.58457282  1
  Na  Na8  1  0.15089429  0.96425279  0.07797288  1
  Na  Na9  1  0.65079285  0.96397848  0.07782620  1
  Na  Na10  1  0.32944528  0.69189042  0.08120818  1
  Na  Na11  1  0.82955702  0.69234140  0.08111728  1
  Na  Na12  1  0.01999152  0.34327246  0.07888973  1
  Na  Na13  1  0.51981521  0.34333856  0.07876807  1
  Na  Na14  1  0.48742256  0.67101291  0.91318249  1
  Na  Na15  1  0.98740911  0.67116158  0.91414584  1
  Na  Na16  1  0.35179933  0.66451986  0.40700662  1
  Na  Na17  1  0.85236168  0.67090196  0.40691596  1
  Na  Na18  1  0.01708045  0.02806696  0.49258872  1
  Na  Na19  1  0.51348046  0.01550926  0.49122324  1
  Na  Na20  1  0.00846197  0.02513844  0.99051954  1
  Na  Na21  1  0.50854544  0.02532372  0.99058728  1
  Na  Na22  1  0.34251083  0.32969042  0.82562278  1
  Na  Na23  1  0.84284846  0.32802557  0.82715840  1
  Na  Na24  1  0.34752697  0.33912714  0.32676155  1
  Na  Na25  1  0.84907983  0.33745330  0.32487519  1
  Na  Na26  1  0.16880465  0.67607540  0.16201034  1
  Na  Na27  1  0.66887289  0.67592506  0.16175219  1
  Na  Na28  1  0.17499287  0.65465279  0.66185939  1
  Na  Na29  1  0.67757661  0.67726414  0.65949283  1
  Ta  Ta30  1  0.99477612  0.98830015  0.64578788  1
  Ta  Ta31  1  0.49375610  0.98517566  0.64336116  1
  Ta  Ta32  1  0.99574869  0.00020457  0.14538660  1
  Ta  Ta33  1  0.49550269  0.00054220  0.14535755  1
  Ta  Ta34  1  0.33340027  0.32383234  0.97772878  1
  Ta  Ta35  1  0.83340443  0.32382364  0.97790695  1
  Ta  Ta36  1  0.33230255  0.33612877  0.47899777  1
  Ta  Ta37  1  0.82970238  0.33931950  0.47634141  1
  Ta  Ta38  1  0.16044854  0.64775027  0.31128995  1
  Ta  Ta39  1  0.66084211  0.65188095  0.31150723  1
  Ta  Ta40  1  0.16290834  0.67579730  0.81112942  1
  Ta  Ta41  1  0.66264435  0.67596018  0.81111650  1
  Al  Al42  1  0.00107155  0.00104375  0.35473982  1
  Al  Al43  1  0.50071687  0.99888116  0.35411962  1
  Al  Al44  1  0.00000216  0.00672556  0.85368366  1
  Al  Al45  1  0.50053054  0.00660302  0.85362305  1
  Al  Al46  1  0.34279933  0.33880699  0.68463877  1
  Al  Al47  1  0.83482780  0.33319689  0.68817999  1
  Al  Al48  1  0.34334876  0.34815161  0.18483398  1
  Al  Al49  1  0.84335269  0.34816811  0.18449651  1
  Al  Al50  1  0.15869766  0.66242253  0.02217623  1
  Al  Al51  1  0.65873311  0.66229308  0.02221619  1
  Al  Al52  1  0.16532854  0.66320449  0.51936047  1
  Al  Al53  1  0.66007371  0.65742537  0.52450241  1
  Si  Si54  1  0.35764636  0.70604706  0.25468082  1
  Si  Si55  1  0.85809841  0.70666734  0.25506575  1
  Si  Si56  1  0.98916117  0.27361964  0.25279809  1
  Si  Si57  1  0.48936565  0.27429320  0.25325975  1
  Si  Si58  1  0.98916627  0.70081162  0.75405545  1
  Si  Si59  1  0.48847940  0.70111748  0.75437376  1
  Si  Si60  1  0.35941776  0.01039669  0.75327331  1
  Si  Si61  1  0.85896707  0.01099845  0.75383983  1
  Si  Si62  1  0.47935569  0.33828246  0.58471955  1
  Si  Si63  1  0.19039133  0.04587555  0.58642169  1
  Si  Si64  1  0.69492814  0.04044857  0.58776935  1
  Si  Si65  1  0.32123502  0.60302939  0.58607432  1
  Si  Si66  1  0.82826494  0.61512223  0.58567729  1
  Si  Si67  1  0.47877726  0.61936362  0.08307979  1
  Si  Si68  1  0.97889909  0.61954542  0.08302231  1
  Si  Si69  1  0.32684058  0.04341365  0.08651585  1
  Si  Si70  1  0.82692435  0.04320366  0.08656224  1
  Si  Si71  1  0.19317431  0.34073528  0.08675339  1
  Si  Si72  1  0.69314878  0.34078928  0.08683260  1
  Si  Si73  1  0.02523687  0.36923589  0.91926260  1
  Si  Si74  1  0.52533728  0.36914110  0.91923844  1
  Si  Si75  1  0.16208669  0.95729637  0.91901342  1
  Si  Si76  1  0.66228203  0.95741459  0.91924469  1
  Si  Si77  1  0.15859188  0.36632802  0.41965579  1
  Si  Si78  1  0.65606497  0.36752101  0.41964767  1
  Si  Si79  1  0.02565066  0.67823821  0.42081952  1
  Si  Si80  1  0.52477563  0.67783923  0.42093543  1
  S  S81  1  0.14339804  0.99739644  0.25283684  1
  S  S82  1  0.64384710  0.99839856  0.25249872  1
  S  S83  1  0.14231705  0.28602478  0.75260156  1
  S  S84  1  0.64465413  0.28905150  0.75169825  1
  S  S85  1  0.97736820  0.33373844  0.58486771  1
  S  S86  1  0.30990837  0.66922122  0.91873031  1
  S  S87  1  0.81023895  0.66950637  0.91864612  1
  S  S88  1  0.30983813  0.95524770  0.41755397  1
  S  S89  1  0.80949032  0.95255371  0.41869533  1
  O  O90  1  0.09699356  0.01107618  0.30474227  1
  O  O91  1  0.59726389  0.01108539  0.30466394  1
  O  O92  1  0.41344507  0.80332228  0.31430153  1
  O  O93  1  0.91390622  0.80345696  0.31480334  1
  O  O94  1  0.48856020  0.15903622  0.30885818  1
  O  O95  1  0.98806186  0.15894277  0.30864551  1
  O  O96  1  0.09923529  0.17743734  0.80522117  1
  O  O97  1  0.60162731  0.17858641  0.80372238  1
  O  O98  1  0.48844724  0.80639035  0.81373501  1
  O  O99  1  0.98562842  0.80248807  0.81309403  1
  O  O100  1  0.42011637  0.02606275  0.80924429  1
  O  O101  1  0.91884606  0.02735369  0.81041941  1
  O  O102  1  0.40324988  0.98210054  0.69007207  1
  O  O103  1  0.90542024  0.98535707  0.69194647  1
  O  O104  1  0.08957857  0.20836223  0.69597823  1
  O  O105  1  0.59372426  0.21292951  0.69418751  1
  O  O106  1  0.01427571  0.83384305  0.69403321  1
  O  O107  1  0.51476073  0.83330393  0.69435699  1
  O  O108  1  0.40557203  0.82848161  0.19355743  1
  O  O109  1  0.90589184  0.82856728  0.19384453  1
  O  O110  1  0.01663342  0.20190789  0.19123317  1
  O  O111  1  0.51676591  0.20221508  0.19160696  1
  O  O112  1  0.09314707  0.97423198  0.19474108  1
  O  O113  1  0.59330678  0.97461910  0.19458621  1
  O  O114  1  0.43433082  0.36980408  0.64144617  1
  O  O115  1  0.93487934  0.35407360  0.63810569  1
  O  O116  1  0.25107895  0.13218666  0.64559514  1
  O  O117  1  0.74833150  0.13677587  0.64840663  1
  O  O118  1  0.31227580  0.48564095  0.64265310  1
  O  O119  1  0.81819896  0.48695674  0.63990492  1
  O  O120  1  0.43311362  0.49361467  0.13882183  1
  O  O121  1  0.93310803  0.49397279  0.13872122  1
  O  O122  1  0.30902503  0.13695025  0.14153068  1
  O  O123  1  0.80887290  0.13684090  0.14139086  1
  O  O124  1  0.25135792  0.37039984  0.14699505  1
  O  O125  1  0.75134359  0.37059968  0.14706800  1
  O  O126  1  0.23878177  0.30139450  0.02822808  1
  O  O127  1  0.73880441  0.30146845  0.02835280  1
  O  O128  1  0.41805828  0.54450231  0.02089019  1
  O  O129  1  0.91818797  0.54456314  0.02082412  1
  O  O130  1  0.35398598  0.17122009  0.02579343  1
  O  O131  1  0.85403701  0.17117622  0.02585983  1
  O  O132  1  0.23697993  0.16443983  0.52587687  1
  O  O133  1  0.74281091  0.17348637  0.52920514  1
  O  O134  1  0.34752804  0.53339773  0.52417691  1
  O  O135  1  0.85242122  0.53827140  0.52343230  1
  O  O136  1  0.41519080  0.29471665  0.52450832  1
  O  O137  1  0.92589211  0.30891943  0.52846152  1
  O  O138  1  0.26816918  0.68140014  0.97402041  1
  O  O139  1  0.76832550  0.68124417  0.97399893  1
  O  O140  1  0.07858232  0.46498228  0.98057997  1
  O  O141  1  0.57866408  0.46437100  0.98063966  1
  O  O142  1  0.15122725  0.83425066  0.97630910  1
  O  O143  1  0.65179277  0.83434329  0.97642887  1
  O  O144  1  0.26865756  0.85715751  0.47328366  1
  O  O145  1  0.76651193  0.84541201  0.47127103  1
  O  O146  1  0.15444792  0.48060578  0.47460257  1
  O  O147  1  0.65344579  0.47070861  0.47817305  1
  O  O148  1  0.07989324  0.69215079  0.48171004  1
  O  O149  1  0.58034250  0.69482889  0.48112291  1
  O  O150  1  0.07597285  0.65445061  0.36171928  1
  O  O151  1  0.57593626  0.65587632  0.36134944  1
  O  O152  1  0.25734584  0.86479662  0.36284749  1
  O  O153  1  0.75857657  0.87689309  0.36173094  1
  O  O154  1  0.18005168  0.49165247  0.35728390  1
  O  O155  1  0.68159819  0.49805283  0.35946273  1
  O  O156  1  0.07565873  0.50336837  0.86173255  1
  O  O157  1  0.57617369  0.50324042  0.86186924  1
  O  O158  1  0.17815922  0.86744696  0.85745981  1
  O  O159  1  0.67823875  0.86790482  0.85761385  1
  O  O160  1  0.25789531  0.65226473  0.86365062  1
  O  O161  1  0.75844242  0.65286819  0.86353412  1
  O  O162  1  0.00612034  0.83844670  0.41222816  1
  O  O163  1  0.50673743  0.84021460  0.41122064  1
  O  O164  1  0.39645414  0.97061151  0.41470945  1
  O  O165  1  0.89683495  0.97135357  0.41444998  1
  O  O166  1  0.07585851  0.17695351  0.40842219  1
  O  O167  1  0.57615810  0.17633593  0.40802508  1
  O  O168  1  0.01179053  0.17803741  0.90908752  1
  O  O169  1  0.51188426  0.17802651  0.90858180  1
  O  O170  1  0.07475462  0.97001949  0.90932018  1
  O  O171  1  0.57512099  0.97107056  0.91012371  1
  O  O172  1  0.39842752  0.82171976  0.91568706  1
  O  O173  1  0.89874143  0.82189381  0.91583041  1
  O  O174  1  0.48999258  0.16165838  0.58868190  1
  O  O175  1  0.98881188  0.17766774  0.58857805  1
  O  O176  1  0.09251583  0.02813492  0.59070822  1
  O  O177  1  0.59650712  0.02771099  0.59028089  1
  O  O178  1  0.41448785  0.80142477  0.59041511  1
  O  O179  1  0.91910285  0.80913027  0.58989318  1
  O  O180  1  0.48959497  0.81657293  0.08990262  1
  O  O181  1  0.98952765  0.81649011  0.08971666  1
  O  O182  1  0.41682886  0.02676362  0.09088809  1
  O  O183  1  0.91677541  0.02626220  0.09093596  1
  O  O184  1  0.09574026  0.16136895  0.09070798  1
  O  O185  1  0.59571817  0.16151383  0.09082506  1
  O  O186  1  0.33994172  0.17013746  0.74422532  1
  O  O187  1  0.84031697  0.17218878  0.74430434  1
  O  O188  1  0.22794025  0.30038759  0.74805442  1
  O  O189  1  0.73135495  0.30512289  0.74759039  1
  O  O190  1  0.40579319  0.51256471  0.74417182  1
  O  O191  1  0.90847671  0.51057165  0.74131568  1
  O  O192  1  0.34121099  0.50953469  0.24516360  1
  O  O193  1  0.84132678  0.50977360  0.24544326  1
  O  O194  1  0.40665591  0.29770416  0.24230304  1
  O  O195  1  0.90652962  0.29702308  0.24157113  1
  O  O196  1  0.22856865  0.15576360  0.24982726  1
  O  O197  1  0.72868201  0.15630731  0.24979530  1
  O  O198  1  0.31847446  0.50749151  0.91868212  1
  O  O199  1  0.81875748  0.50765390  0.91862517  1
  O  O200  1  0.42984820  0.36836239  0.92074572  1
  O  O201  1  0.92966862  0.36830269  0.92068814  1
  O  O202  1  0.25036897  0.15069481  0.92135171  1
  O  O203  1  0.75054615  0.15105257  0.92133955  1
  O  O204  1  0.31727675  0.13039924  0.41747015  1
  O  O205  1  0.82016164  0.13208152  0.42298149  1
  O  O206  1  0.25047899  0.35722327  0.42185831  1
  O  O207  1  0.74968164  0.35772865  0.42273249  1
  O  O208  1  0.42668744  0.49667510  0.42155556  1
  O  O209  1  0.92754927  0.49325474  0.42245110  1
  O  O210  1  0.17992187  0.50857292  0.07644242  1
  O  O211  1  0.67996828  0.50871052  0.07655213  1
  O  O212  1  0.07647690  0.64835563  0.07789070  1
  O  O213  1  0.57636713  0.64818203  0.07783856  1
  O  O214  1  0.24761723  0.84801463  0.07397818  1
  O  O215  1  0.74758695  0.84776648  0.07409017  1
  O  O216  1  0.17576443  0.84731012  0.57733504  1
  O  O217  1  0.67841594  0.84615631  0.57785143  1
  O  O218  1  0.24536636  0.65185151  0.57455112  1
  O  O219  1  0.74515337  0.63776264  0.57499171  1
  O  O220  1  0.06427986  0.49215799  0.58112397  1
  O  O221  1  0.57598168  0.50384899  0.57850811  1
  O  O222  1  0.15373464  0.84003633  0.25542457  1
  O  O223  1  0.65415615  0.84070971  0.25491014  1
  O  O224  1  0.25884985  0.69122344  0.25593731  1
  O  O225  1  0.75932503  0.69201706  0.25662541  1
  O  O226  1  0.08062851  0.47362239  0.25651983  1
  O  O227  1  0.58155107  0.47418392  0.25735878  1
  O  O228  1  0.15182070  0.46349455  0.75673506  1
  O  O229  1  0.65474850  0.46634243  0.75655091  1
  O  O230  1  0.08232314  0.69020734  0.75543777  1
  O  O231  1  0.58167002  0.68821220  0.75631428  1
  O  O232  1  0.26041418  0.82647774  0.75654974  1
  O  O233  1  0.76022173  0.82892160  0.75655954  1
