# generated using pymatgen
data_Na9Ca2Ta10Si9(PO8)9
_symmetry_space_group_name_H-M   'P 1'
_cell_length_a   8.93820981
_cell_length_b   8.92816451
_cell_length_c   22.89782748
_cell_angle_alpha   90.00097252
_cell_angle_beta   89.98767651
_cell_angle_gamma   119.94356688
_symmetry_Int_Tables_number   1
_chemical_formula_structural   Na9Ca2Ta10Si9(PO8)9
_chemical_formula_sum   'Na9 Ca2 Ta10 Si9 P9 O72'
_cell_volume   1583.37692285
_cell_formula_units_Z   1
loop_
 _symmetry_equiv_pos_site_id
 _symmetry_equiv_pos_as_xyz
  1  'x, y, z'
loop_
 _atom_site_type_symbol
 _atom_site_label
 _atom_site_symmetry_multiplicity
 _atom_site_fract_x
 _atom_site_fract_y
 _atom_site_fract_z
 _atom_site_occupancy
  Na  Na0  1  0.63348494  0.00845906  0.24779533  1
  Na  Na1  1  0.37718802  0.36639197  0.24706148  1
  Na  Na2  1  0.99222809  0.36693539  0.74703347  1
  Na  Na3  1  0.00013404  0.99937235  0.49870214  1
  Na  Na4  1  0.99987334  0.99930611  0.99925190  1
  Na  Na5  1  0.65394203  0.33216606  0.82855159  1
  Na  Na6  1  0.67953656  0.34502017  0.32928075  1
  Na  Na7  1  0.32496070  0.66467465  0.16509630  1
  Na  Na8  1  0.34215198  0.67334095  0.66581976  1
  Ca  Ca9  1  0.65729065  0.33266025  0.68546653  1
  Ca  Ca10  1  0.67603131  0.34210944  0.18391746  1
  Ta  Ta11  1  0.99396903  0.99773912  0.35784425  1
  Ta  Ta12  1  0.00521267  0.00281537  0.85758591  1
  Ta  Ta13  1  0.00267721  0.00268676  0.64576679  1
  Ta  Ta14  1  0.99719585  0.00058664  0.14598877  1
  Ta  Ta15  1  0.66724445  0.33439575  0.97797092  1
  Ta  Ta16  1  0.66627762  0.33426332  0.47822488  1
  Ta  Ta17  1  0.33348097  0.66626743  0.01701642  1
  Ta  Ta18  1  0.33294713  0.66610646  0.51744158  1
  Ta  Ta19  1  0.32993734  0.66371160  0.31429278  1
  Ta  Ta20  1  0.33767068  0.66770619  0.81362727  1
  Si  Si21  1  0.71110916  0.71227279  0.25231329  1
  Si  Si22  1  0.00291084  0.28948272  0.25201056  1
  Si  Si23  1  0.28990135  0.29007731  0.75217700  1
  Si  Si24  1  0.62231565  0.66696465  0.91660337  1
  Si  Si25  1  0.04490066  0.38000495  0.91598754  1
  Si  Si26  1  0.33538282  0.95498945  0.91644175  1
  Si  Si27  1  0.61949217  0.95561177  0.41654821  1
  Si  Si28  1  0.33364618  0.37735114  0.41672143  1
  Si  Si29  1  0.04438226  0.66639620  0.41711733  1
  P  P30  1  0.27670634  0.99103258  0.25162391  1
  P  P31  1  0.00738756  0.72053514  0.75201709  1
  P  P32  1  0.71405504  0.99171730  0.75170479  1
  P  P33  1  0.96244323  0.33443370  0.58343406  1
  P  P34  1  0.37254602  0.03730971  0.58249209  1
  P  P35  1  0.66584860  0.62878106  0.58236658  1
  P  P36  1  0.96417031  0.62948249  0.08186223  1
  P  P37  1  0.66484753  0.03634456  0.08291330  1
  P  P38  1  0.37034040  0.33355888  0.08277375  1
  O  O39  1  0.18818348  0.01556397  0.30512965  1
  O  O40  1  0.83321823  0.81693221  0.30747222  1
  O  O41  1  0.99042550  0.16795140  0.30713124  1
  O  O42  1  0.17585521  0.16859841  0.80687723  1
  O  O43  1  0.98678843  0.81300016  0.80530428  1
  O  O44  1  0.82631950  0.00871078  0.80507731  1
  O  O45  1  0.80174919  0.96762319  0.69517194  1
  O  O46  1  0.15891300  0.19144241  0.69402379  1
  O  O47  1  0.02610260  0.83146385  0.69589233  1
  O  O48  1  0.80824145  0.83958400  0.19391862  1
  O  O49  1  0.03717046  0.19574642  0.19321938  1
  O  O50  1  0.16670242  0.96825378  0.19515266  1
  O  O51  1  0.90309783  0.36929781  0.64100070  1
  O  O52  1  0.47324030  0.09932000  0.63759840  1
  O  O53  1  0.62773687  0.52791551  0.63742988  1
  O  O54  1  0.90380934  0.52946366  0.13708943  1
  O  O55  1  0.62878403  0.09470920  0.14044539  1
  O  O56  1  0.46452989  0.36901411  0.14033980  1
  O  O57  1  0.46859744  0.30943129  0.03021355  1
  O  O58  1  0.84287150  0.53583420  0.02837033  1
  O  O59  1  0.69208476  0.15898971  0.03033342  1
  O  O60  1  0.46250398  0.15768851  0.52863479  1
  O  O61  1  0.69329612  0.53577319  0.52849003  1
  O  O62  1  0.84057669  0.30747076  0.53063702  1
  O  O63  1  0.52862390  0.69533421  0.97276574  1
  O  O64  1  0.16772853  0.47198950  0.97206683  1
  O  O65  1  0.30559859  0.83332543  0.97282470  1
  O  O66  1  0.52589518  0.83235651  0.47231762  1
  O  O67  1  0.30518290  0.47233972  0.47240047  1
  O  O68  1  0.16625100  0.69347027  0.47308801  1
  O  O69  1  0.13684720  0.63513645  0.35981087  1
  O  O70  1  0.50228453  0.86841810  0.35773963  1
  O  O71  1  0.36584532  0.49896613  0.35826956  1
  O  O72  1  0.13347204  0.49948572  0.85765520  1
  O  O73  1  0.36496735  0.86283405  0.85927846  1
  O  O74  1  0.49731291  0.63458543  0.85955583  1
  O  O75  1  0.02588006  0.83654820  0.40933780  1
  O  O76  1  0.81076899  0.97679971  0.41009701  1
  O  O77  1  0.16654935  0.18725507  0.40886555  1
  O  O78  1  0.02051214  0.18759439  0.90844766  1
  O  O79  1  0.16469300  0.97475080  0.90875585  1
  O  O80  1  0.81150905  0.83466446  0.90775452  1
  O  O81  1  0.97769794  0.16495613  0.58843576  1
  O  O82  1  0.18655014  0.01885790  0.58925939  1
  O  O83  1  0.83258563  0.81306258  0.58820237  1
  O  O84  1  0.98177369  0.81385814  0.08749566  1
  O  O85  1  0.83389802  0.02113164  0.08772499  1
  O  O86  1  0.18755203  0.16568248  0.08679471  1
  O  O87  1  0.70658327  0.15813807  0.74899014  1
  O  O88  1  0.47462947  0.30951710  0.75433255  1
  O  O89  1  0.85533709  0.53677889  0.74969790  1
  O  O90  1  0.67119516  0.51831472  0.25294827  1
  O  O91  1  0.82705844  0.29219998  0.25214798  1
  O  O92  1  0.45628214  0.15021321  0.24776966  1
  O  O93  1  0.64006780  0.49486237  0.92766916  1
  O  O94  1  0.85426675  0.35912401  0.92764041  1
  O  O95  1  0.50461039  0.14591760  0.92797994  1
  O  O96  1  0.64101786  0.14655402  0.42793461  1
  O  O97  1  0.50598309  0.36037536  0.42756879  1
  O  O98  1  0.85455222  0.49484231  0.42791642  1
  O  O99  1  0.34442592  0.49133076  0.07068310  1
  O  O100  1  0.14833035  0.65646077  0.06987369  1
  O  O101  1  0.50906766  0.85266624  0.07068560  1
  O  O102  1  0.34248850  0.85220923  0.57033949  1
  O  O103  1  0.50917773  0.65672591  0.57024058  1
  O  O104  1  0.14637153  0.48971528  0.57104624  1
  O  O105  1  0.29617433  0.82745627  0.25657616  1
  O  O106  1  0.52425415  0.71167676  0.25673904  1
  O  O107  1  0.18431054  0.47665305  0.25656985  1
  O  O108  1  0.28801532  0.47584133  0.75657856  1
  O  O109  1  0.17641719  0.70881181  0.75651524  1
  O  O110  1  0.53278465  0.82797194  0.75681447  1
