# generated using pymatgen
data_K2TeS3
_symmetry_space_group_name_H-M   'P 1'
_cell_length_a   9.13773204
_cell_length_b   6.40237003
_cell_length_c   14.65000235
_cell_angle_alpha   64.94139879
_cell_angle_beta   90.00000000
_cell_angle_gamma   90.00000000
_symmetry_Int_Tables_number   1
_chemical_formula_structural   K2TeS3
_chemical_formula_sum   'K8 Te4 S12'
_cell_volume   776.39939708
_cell_formula_units_Z   4
loop_
 _symmetry_equiv_pos_site_id
 _symmetry_equiv_pos_as_xyz
  1  'x, y, z'
loop_
 _atom_site_type_symbol
 _atom_site_label
 _atom_site_symmetry_multiplicity
 _atom_site_fract_x
 _atom_site_fract_y
 _atom_site_fract_z
 _atom_site_occupancy
  K  K0  1  0.11047302  0.00131979  0.74987750  1
  K  K1  1  0.38952698  0.00131979  0.24987750  1
  K  K2  1  0.88952698  0.99868021  0.25012250  1
  K  K3  1  0.61047302  0.99868021  0.75012250  1
  K  K4  1  0.36885524  0.66214007  0.58395527  1
  K  K5  1  0.86885524  0.33785993  0.91604473  1
  K  K6  1  0.63114476  0.33785993  0.41604473  1
  K  K7  1  0.13114476  0.66214007  0.08395527  1
  Te  Te8  1  0.67978004  0.71934190  0.08067462  1
  Te  Te9  1  0.17978004  0.28065810  0.41932538  1
  Te  Te10  1  0.32021996  0.28065810  0.91932538  1
  Te  Te11  1  0.82021996  0.71934190  0.58067462  1
  S  S12  1  0.86070664  0.07387952  0.58829159  1
  S  S13  1  0.63929336  0.07387952  0.08829159  1
  S  S14  1  0.13929336  0.92612048  0.41170841  1
  S  S15  1  0.36070664  0.92612048  0.91170841  1
  S  S16  1  0.66315366  0.81570640  0.44010784  1
  S  S17  1  0.16315366  0.18429360  0.05989216  1
  S  S18  1  0.33684634  0.18429360  0.55989216  1
  S  S19  1  0.83684634  0.81570640  0.94010784  1
  S  S20  1  0.65939512  0.53106252  0.71776168  1
  S  S21  1  0.15939512  0.46893748  0.78223832  1
  S  S22  1  0.34060488  0.46893748  0.28223832  1
  S  S23  1  0.84060488  0.53106252  0.21776168  1
