# generated using pymatgen
data_Na5NbAl3SiP5O24
_symmetry_space_group_name_H-M   'P 1'
_cell_length_a   8.64184470
_cell_length_b   8.65591421
_cell_length_c   21.78367878
_cell_angle_alpha   90.07315635
_cell_angle_beta   90.06364628
_cell_angle_gamma   119.85742696
_symmetry_Int_Tables_number   1
_chemical_formula_structural   Na5NbAl3SiP5O24
_chemical_formula_sum   'Na15 Nb3 Al9 Si3 P15 O72'
_cell_volume   1413.19523641
_cell_formula_units_Z   3
loop_
 _symmetry_equiv_pos_site_id
 _symmetry_equiv_pos_as_xyz
  1  'x, y, z'
loop_
 _atom_site_type_symbol
 _atom_site_label
 _atom_site_symmetry_multiplicity
 _atom_site_fract_x
 _atom_site_fract_y
 _atom_site_fract_z
 _atom_site_occupancy
  Na  Na0  1  0.63486208  0.99938539  0.25132560  1
  Na  Na1  1  0.36527193  0.36555681  0.25065745  1
  Na  Na2  1  0.00057316  0.63454377  0.25091995  1
  Na  Na3  1  0.30466759  0.33641905  0.58655779  1
  Na  Na4  1  0.03037043  0.70047136  0.58513554  1
  Na  Na5  1  0.66750887  0.96633757  0.58501069  1
  Na  Na6  1  0.30003933  0.96582594  0.08196322  1
  Na  Na7  1  0.97168559  0.66885115  0.91347967  1
  Na  Na8  1  0.70037033  0.02789442  0.91162333  1
  Na  Na9  1  0.99757264  0.99790070  0.49639183  1
  Na  Na10  1  0.00422555  0.01183980  0.99900750  1
  Na  Na11  1  0.65751904  0.33093398  0.82529625  1
  Na  Na12  1  0.66704361  0.33223843  0.33346610  1
  Na  Na13  1  0.33403159  0.65805652  0.16330467  1
  Na  Na14  1  0.33680075  0.66621325  0.66643254  1
  Nb  Nb15  1  0.66471801  0.33076789  0.97976624  1
  Nb  Nb16  1  0.66907578  0.34048246  0.47650291  1
  Nb  Nb17  1  0.32922508  0.66681959  0.80776284  1
  Al  Al18  1  0.99860514  0.99935291  0.35415147  1
  Al  Al19  1  0.01006674  0.00936420  0.85137714  1
  Al  Al20  1  0.99746985  0.99803268  0.64941935  1
  Al  Al21  1  0.99588380  0.00046467  0.14786526  1
  Al  Al22  1  0.66391784  0.33536564  0.68862867  1
  Al  Al23  1  0.66728124  0.33517637  0.18391646  1
  Al  Al24  1  0.32915097  0.66033102  0.01994621  1
  Al  Al25  1  0.33801881  0.66699795  0.51670572  1
  Al  Al26  1  0.33432066  0.66708072  0.31602956  1
  Si  Si27  1  0.66544218  0.62882421  0.58812494  1
  Si  Si28  1  0.05673119  0.37239977  0.91890567  1
  Si  Si29  1  0.32212153  0.95025858  0.91891409  1
  P  P30  1  0.28665976  0.00023123  0.25000916  1
  P  P31  1  0.71425518  0.71406186  0.25024969  1
  P  P32  1  0.99971374  0.28554791  0.25021093  1
  P  P33  1  0.28799469  0.27641415  0.74762003  1
  P  P34  1  0.98739222  0.71229609  0.74867755  1
  P  P35  1  0.72180954  0.01102454  0.74844578  1
  P  P36  1  0.95828491  0.33491849  0.58614724  1
  P  P37  1  0.37685540  0.04219730  0.58590397  1
  P  P38  1  0.96094644  0.62888955  0.08771780  1
  P  P39  1  0.67022926  0.03679529  0.08733243  1
  P  P40  1  0.37080802  0.33781651  0.08789429  1
  P  P41  1  0.61799973  0.67021421  0.91816780  1
  P  P42  1  0.62308916  0.94663507  0.41481714  1
  P  P43  1  0.32037912  0.37613725  0.41463205  1
  P  P44  1  0.05732015  0.67813941  0.41508277  1
  O  O45  1  0.20140934  0.03789762  0.30532382  1
  O  O46  1  0.83548285  0.79614622  0.30633843  1
  O  O47  1  0.96047934  0.16484267  0.30626371  1
  O  O48  1  0.19987293  0.16871128  0.80505197  1
  O  O49  1  0.96827214  0.79746722  0.80767881  1
  O  O50  1  0.82620564  0.02855261  0.80751656  1
  O  O51  1  0.80215780  0.97746591  0.69060071  1
  O  O52  1  0.17475299  0.19905057  0.68924967  1
  O  O53  1  0.02464264  0.82678434  0.69104126  1
  O  O54  1  0.79587733  0.83445518  0.19398057  1
  O  O55  1  0.03879193  0.20366132  0.19388604  1
  O  O56  1  0.17061048  0.96323362  0.19185549  1
  O  O57  1  0.86993463  0.37091333  0.64037369  1
  O  O58  1  0.50343122  0.12543503  0.64010466  1
  O  O59  1  0.62250383  0.48713429  0.64162627  1
  O  O60  1  0.86793145  0.50809548  0.14324222  1
  O  O61  1  0.63321812  0.12862350  0.14213007  1
  O  O62  1  0.48943982  0.36234627  0.14440458  1
  O  O63  1  0.46046836  0.29998951  0.03097597  1
  O  O64  1  0.84536370  0.54356693  0.02872966  1
  O  O65  1  0.69824869  0.15447771  0.02841227  1
  O  O66  1  0.46130405  0.16302627  0.52774116  1
  O  O67  1  0.70582939  0.53585103  0.52615354  1
  O  O68  1  0.83629858  0.29378868  0.52764477  1
  O  O69  1  0.53593009  0.70529281  0.97443771  1
  O  O70  1  0.17163160  0.46703188  0.97815076  1
  O  O71  1  0.29728996  0.83457543  0.97993307  1
  O  O72  1  0.53682960  0.83981543  0.47356488  1
  O  O73  1  0.30065160  0.46203801  0.47363444  1
  O  O74  1  0.16233234  0.69635757  0.47418197  1
  O  O75  1  0.13659084  0.64249124  0.35724348  1
  O  O76  1  0.50715612  0.86539540  0.35705945  1
  O  O77  1  0.35828767  0.49245110  0.35713657  1
  O  O78  1  0.13253562  0.50481204  0.85860433  1
  O  O79  1  0.37712676  0.86881693  0.85963507  1
  O  O80  1  0.50331658  0.63026706  0.85989389  1
  O  O81  1  0.03032966  0.83905470  0.40878869  1
  O  O82  1  0.80980402  0.96936012  0.40836901  1
  O  O83  1  0.15927589  0.18913306  0.40811003  1
  O  O84  1  0.01039268  0.17100454  0.90885674  1
  O  O85  1  0.14756389  0.96596264  0.90854922  1
  O  O86  1  0.80559573  0.83049477  0.91009768  1
  O  O87  1  0.98154411  0.16984840  0.59120718  1
  O  O88  1  0.19150834  0.02641596  0.59130067  1
  O  O89  1  0.84406552  0.82422695  0.59145048  1
  O  O90  1  0.98056016  0.81567579  0.09297989  1
  O  O91  1  0.83932127  0.02513913  0.09298349  1
  O  O92  1  0.18965845  0.16409935  0.09284983  1
  O  O93  1  0.69673190  0.17378533  0.74221753  1
  O  O94  1  0.47504717  0.29900400  0.74271230  1
  O  O95  1  0.82791104  0.52322878  0.74313770  1
  O  O96  1  0.69090007  0.52316288  0.24271225  1
  O  O97  1  0.83190703  0.30906990  0.24211206  1
  O  O98  1  0.47767797  0.16730836  0.24286362  1
  O  O99  1  0.64353024  0.50426377  0.92435521  1
  O  O100  1  0.85513732  0.35921761  0.92443625  1
  O  O101  1  0.50465781  0.14771219  0.92339360  1
  O  O102  1  0.64090356  0.13639430  0.42086507  1
  O  O103  1  0.49377978  0.35748126  0.42055091  1
  O  O104  1  0.86670820  0.50340717  0.42025333  1
  O  O105  1  0.36079724  0.50655218  0.07893308  1
  O  O106  1  0.14723982  0.64833875  0.08143652  1
  O  O107  1  0.49904660  0.85637834  0.07885910  1
  O  O108  1  0.35267072  0.85442224  0.57562770  1
  O  O109  1  0.48914617  0.64699755  0.57530689  1
  O  O110  1  0.14238924  0.50310362  0.57587296  1
  O  O111  1  0.31014540  0.83294511  0.25708666  1
  O  O112  1  0.52262306  0.68946557  0.25723916  1
  O  O113  1  0.16634986  0.47655861  0.25739171  1
  O  O114  1  0.30844204  0.46834693  0.75300248  1
  O  O115  1  0.16233014  0.69520735  0.75264746  1
  O  O116  1  0.53182723  0.83753167  0.75281071  1
