# generated using pymatgen
data_Na10Mg3Zr5(PO4)12
_symmetry_space_group_name_H-M   'P 1'
_cell_length_a   18.01526974
_cell_length_b   9.01362962
_cell_length_c   22.85534573
_cell_angle_alpha   89.97962901
_cell_angle_beta   89.99038011
_cell_angle_gamma   120.02646946
_symmetry_Int_Tables_number   1
_chemical_formula_structural   Na10Mg3Zr5(PO4)12
_chemical_formula_sum   'Na30 Mg9 Zr15 P36 O144'
_cell_volume   3213.23836649
_cell_formula_units_Z   3
loop_
 _symmetry_equiv_pos_site_id
 _symmetry_equiv_pos_as_xyz
  1  'x, y, z'
loop_
 _atom_site_type_symbol
 _atom_site_label
 _atom_site_symmetry_multiplicity
 _atom_site_fract_x
 _atom_site_fract_y
 _atom_site_fract_z
 _atom_site_occupancy
  Na  Na0  1  0.32095114  0.00947315  0.24910227  1
  Na  Na1  1  0.68492332  0.35850743  0.24896356  1
  Na  Na2  1  0.31800734  0.62693928  0.74881368  1
  Na  Na3  1  0.81792404  0.62665545  0.74875347  1
  Na  Na4  1  0.15389599  0.34569361  0.57934557  1
  Na  Na5  1  0.65385340  0.34470983  0.57865109  1
  Na  Na6  1  0.01832834  0.69189708  0.57961513  1
  Na  Na7  1  0.51844857  0.69267058  0.57975653  1
  Na  Na8  1  0.32761567  0.96286996  0.57975789  1
  Na  Na9  1  0.82744042  0.96421406  0.57947695  1
  Na  Na10  1  0.15388160  0.96285472  0.07946584  1
  Na  Na11  1  0.65425138  0.96371216  0.08000827  1
  Na  Na12  1  0.32755993  0.69103327  0.08013364  1
  Na  Na13  1  0.82766523  0.69204328  0.07954764  1
  Na  Na14  1  0.01795498  0.34511986  0.07972121  1
  Na  Na15  1  0.51802441  0.34428931  0.08032694  1
  Na  Na16  1  0.66097043  0.02894619  0.41227954  1
  Na  Na17  1  0.35258533  0.67698057  0.41154566  1
  Na  Na18  1  0.00012908  0.99932548  0.49418496  1
  Na  Na19  1  0.49965301  0.01273517  0.48977184  1
  Na  Na20  1  0.99994583  0.99963825  0.99566543  1
  Na  Na21  1  0.49993270  0.99952768  0.99604163  1
  Na  Na22  1  0.33363801  0.32168369  0.82922390  1
  Na  Na23  1  0.83356844  0.32178395  0.82919267  1
  Na  Na24  1  0.33495229  0.33803760  0.32495146  1
  Na  Na25  1  0.84244475  0.33998247  0.32539667  1
  Na  Na26  1  0.16281210  0.65583147  0.16510994  1
  Na  Na27  1  0.66568778  0.67650089  0.16514475  1
  Na  Na28  1  0.16204310  0.66725252  0.66595420  1
  Na  Na29  1  0.66220802  0.66772871  0.66598186  1
  Mg  Mg30  1  0.49926923  0.00576433  0.34999968  1
  Mg  Mg31  1  0.33362577  0.32673582  0.68594218  1
  Mg  Mg32  1  0.83358142  0.32632559  0.68575722  1
  Mg  Mg33  1  0.33436954  0.34300266  0.18553236  1
  Mg  Mg34  1  0.83589390  0.33021278  0.18553477  1
  Mg  Mg35  1  0.16674910  0.66685182  0.01458113  1
  Mg  Mg36  1  0.66668297  0.66675663  0.01455136  1
  Mg  Mg37  1  0.16602098  0.66717480  0.51435539  1
  Mg  Mg38  1  0.66652059  0.66367116  0.51394810  1
  Zr  Zr39  1  0.00008006  0.99941401  0.35193351  1
  Zr  Zr40  1  0.00076174  0.00233695  0.85399178  1
  Zr  Zr41  1  0.50078761  0.00255404  0.85394218  1
  Zr  Zr42  1  0.00135239  0.00322671  0.65074974  1
  Zr  Zr43  1  0.50151922  0.00227803  0.65020476  1
  Zr  Zr44  1  0.99989715  0.00007292  0.15067030  1
  Zr  Zr45  1  0.49999981  0.99704108  0.15160504  1
  Zr  Zr46  1  0.33318074  0.33429044  0.97877503  1
  Zr  Zr47  1  0.83342934  0.33444427  0.97881166  1
  Zr  Zr48  1  0.33281888  0.32430843  0.47913644  1
  Zr  Zr49  1  0.83599018  0.34036278  0.47893150  1
  Zr  Zr50  1  0.16410927  0.66105693  0.31429336  1
  Zr  Zr51  1  0.66465823  0.66792150  0.31531727  1
  Zr  Zr52  1  0.16394761  0.66767198  0.81642624  1
  Zr  Zr53  1  0.66385285  0.66739871  0.81647489  1
  P  P54  1  0.15018611  0.00452927  0.24965033  1
  P  P55  1  0.64916869  0.00422817  0.25250253  1
  P  P56  1  0.35344015  0.70137491  0.25340757  1
  P  P57  1  0.85185436  0.69963012  0.24987411  1
  P  P58  1  0.99707392  0.29376149  0.24983094  1
  P  P59  1  0.49782838  0.29252998  0.25096440  1
  P  P60  1  0.15023880  0.29682873  0.75006324  1
  P  P61  1  0.65013429  0.29659843  0.74995270  1
  P  P62  1  0.99835598  0.70163262  0.74944413  1
  P  P63  1  0.49835052  0.70160435  0.74948292  1
  P  P64  1  0.35250430  0.00377873  0.75008827  1
  P  P65  1  0.85232326  0.00368553  0.75021612  1
  P  P66  1  0.48025323  0.33751046  0.58539738  1
  P  P67  1  0.97998412  0.33745224  0.58499263  1
  P  P68  1  0.18822495  0.03950369  0.58520903  1
  P  P69  1  0.68857030  0.04010073  0.58381821  1
  P  P70  1  0.33179946  0.62410491  0.58488687  1
  P  P71  1  0.83177771  0.62522329  0.58647802  1
  P  P72  1  0.47993285  0.62266525  0.08462614  1
  P  P73  1  0.97974311  0.62279314  0.08496651  1
  P  P74  1  0.33168556  0.03952059  0.08593566  1
  P  P75  1  0.83159184  0.04040986  0.08460556  1
  P  P76  1  0.18840100  0.33650748  0.08473449  1
  P  P77  1  0.68799738  0.33659710  0.08592664  1
  P  P78  1  0.31231810  0.66745993  0.91828764  1
  P  P79  1  0.81228646  0.66730554  0.91829736  1
  P  P80  1  0.02103210  0.37487272  0.92000013  1
  P  P81  1  0.52103801  0.37483896  0.92006656  1
  P  P82  1  0.16629124  0.95806599  0.91990775  1
  P  P83  1  0.66626896  0.95815934  0.91989717  1
  P  P84  1  0.31404944  0.95577000  0.41772575  1
  P  P85  1  0.81284203  0.95697471  0.42008826  1
  P  P86  1  0.16553992  0.37413843  0.42023289  1
  P  P87  1  0.66379627  0.36948869  0.41843334  1
  P  P88  1  0.02218738  0.67012659  0.41953337  1
  P  P89  1  0.52025613  0.67038696  0.41966644  1
  O  O90  1  0.10111392  0.02091374  0.30237739  1
  O  O91  1  0.60514065  0.02690004  0.30607807  1
  O  O92  1  0.40575698  0.79059105  0.30763846  1
  O  O93  1  0.90935463  0.79789281  0.30255984  1
  O  O94  1  0.48569385  0.17643352  0.30234970  1
  O  O95  1  0.98991946  0.17966099  0.30277366  1
  O  O96  1  0.10106735  0.18137275  0.80225158  1
  O  O97  1  0.60104861  0.18144155  0.80225868  1
  O  O98  1  0.48761447  0.79888645  0.80157661  1
  O  O99  1  0.98767746  0.79904267  0.80155065  1
  O  O100  1  0.40984910  0.01934242  0.80266625  1
  O  O101  1  0.90987512  0.01949199  0.80266189  1
  O  O102  1  0.39419767  0.97123522  0.69396244  1
  O  O103  1  0.89399201  0.97116871  0.69405057  1
  O  O104  1  0.09485337  0.21403612  0.69345720  1
  O  O105  1  0.59468536  0.21370821  0.69341487  1
  O  O106  1  0.01241873  0.81348522  0.69289319  1
  O  O107  1  0.51243717  0.81328044  0.69290414  1
  O  O108  1  0.39515522  0.81921470  0.19683688  1
  O  O109  1  0.89369768  0.81100635  0.19373171  1
  O  O110  1  0.01141188  0.21056675  0.19347155  1
  O  O111  1  0.51528338  0.21337802  0.19360306  1
  O  O112  1  0.09458277  0.97702333  0.19353497  1
  O  O113  1  0.59262626  0.97542725  0.19556654  1
  O  O114  1  0.43767931  0.36564432  0.63792382  1
  O  O115  1  0.93755153  0.36531968  0.63774648  1
  O  O116  1  0.24465677  0.12516532  0.63776876  1
  O  O117  1  0.74575642  0.12830169  0.63594452  1
  O  O118  1  0.31917055  0.51579819  0.63929044  1
  O  O119  1  0.81893268  0.51840052  0.64120004  1
  O  O120  1  0.43767672  0.51026189  0.13742427  1
  O  O121  1  0.93713233  0.51041391  0.13779576  1
  O  O122  1  0.31856568  0.11937660  0.14098720  1
  O  O123  1  0.81740932  0.12424902  0.13751220  1
  O  O124  1  0.24447832  0.36344711  0.13751181  1
  O  O125  1  0.74122262  0.36298698  0.14090360  1
  O  O126  1  0.22848504  0.30138653  0.02943985  1
  O  O127  1  0.73087818  0.30346030  0.03183689  1
  O  O128  1  0.42195586  0.54254638  0.02943952  1
  O  O129  1  0.92201202  0.54285273  0.02966517  1
  O  O130  1  0.34841092  0.15864227  0.03188432  1
  O  O131  1  0.84956374  0.15667968  0.02950985  1
  O  O132  1  0.22838459  0.15494091  0.52974874  1
  O  O133  1  0.72683415  0.15134235  0.52716835  1
  O  O134  1  0.34819325  0.54198914  0.52948871  1
  O  O135  1  0.84872366  0.53979290  0.53228148  1
  O  O136  1  0.42207143  0.30117517  0.53004408  1
  O  O137  1  0.92202966  0.30180944  0.52971420  1
  O  O138  1  0.27247302  0.69113426  0.97353020  1
  O  O139  1  0.77249773  0.69100545  0.97355381  1
  O  O140  1  0.07161743  0.45163192  0.97574640  1
  O  O141  1  0.57167769  0.45168350  0.97577905  1
  O  O142  1  0.15384571  0.85660345  0.97566174  1
  O  O143  1  0.65385953  0.85667404  0.97562452  1
  O  O144  1  0.27205084  0.84903912  0.47287290  1
  O  O145  1  0.77428931  0.85712205  0.47623696  1
  O  O146  1  0.15386963  0.45125350  0.47621808  1
  O  O147  1  0.65507119  0.45329055  0.47404916  1
  O  O148  1  0.07138701  0.69309279  0.47596024  1
  O  O149  1  0.57350594  0.69519533  0.47472983  1
  O  O150  1  0.06631495  0.64538431  0.36517957  1
  O  O151  1  0.56458725  0.64351060  0.36534914  1
  O  O152  1  0.25795743  0.87064284  0.36213348  1
  O  O153  1  0.75432743  0.86922722  0.36611411  1
  O  O154  1  0.18037014  0.49056008  0.36607749  1
  O  O155  1  0.67734751  0.48159724  0.36279073  1
  O  O156  1  0.06583032  0.48697942  0.86512532  1
  O  O157  1  0.56569111  0.48710125  0.86518653  1
  O  O158  1  0.17762224  0.86871370  0.86500072  1
  O  O159  1  0.67773713  0.86892711  0.86497887  1
  O  O160  1  0.25863625  0.64518657  0.86186313  1
  O  O161  1  0.75861653  0.64497745  0.86188034  1
  O  O162  1  0.01072602  0.82853770  0.41058620  1
  O  O163  1  0.50982748  0.82895509  0.41189118  1
  O  O164  1  0.40238269  0.97123213  0.41096683  1
  O  O165  1  0.90342002  0.98135370  0.41081348  1
  O  O166  1  0.08752063  0.19285334  0.41097954  1
  O  O167  1  0.58767623  0.18661943  0.41154426  1
  O  O168  1  0.01053685  0.19402794  0.91081792  1
  O  O169  1  0.51051311  0.19404029  0.91085130  1
  O  O170  1  0.08650727  0.97946731  0.91049710  1
  O  O171  1  0.58646579  0.97945571  0.91046254  1
  O  O172  1  0.40332877  0.82740534  0.91015063  1
  O  O173  1  0.90335526  0.82717654  0.91015720  1
  O  O174  1  0.48840196  0.17071983  0.58971951  1
  O  O175  1  0.98832545  0.17046472  0.58955225  1
  O  O176  1  0.09651753  0.02318302  0.58930600  1
  O  O177  1  0.59689339  0.02402823  0.58905842  1
  O  O178  1  0.41515063  0.80808015  0.58910500  1
  O  O179  1  0.91526972  0.80869658  0.58940987  1
  O  O180  1  0.48808398  0.80627223  0.08929805  1
  O  O181  1  0.98831068  0.80686408  0.08943109  1
  O  O182  1  0.41502930  0.02212222  0.08942364  1
  O  O183  1  0.91508284  0.02306990  0.08932365  1
  O  O184  1  0.09626437  0.16957830  0.08930936  1
  O  O185  1  0.59629621  0.16921062  0.08917456  1
  O  O186  1  0.34310321  0.16026239  0.74487973  1
  O  O187  1  0.84299781  0.16020611  0.74478889  1
  O  O188  1  0.23985233  0.32091705  0.74509235  1
  O  O189  1  0.73976061  0.32053885  0.74514080  1
  O  O190  1  0.41627741  0.52910061  0.74432820  1
  O  O191  1  0.91634611  0.52905916  0.74437755  1
  O  O192  1  0.34154707  0.52437050  0.24481973  1
  O  O193  1  0.84010794  0.52090624  0.24544239  1
  O  O194  1  0.41819561  0.30880701  0.24303795  1
  O  O195  1  0.91809645  0.31057121  0.24559512  1
  O  O196  1  0.23999234  0.15879303  0.24545011  1
  O  O197  1  0.73624249  0.16651166  0.24420214  1
  O  O198  1  0.32195118  0.50514704  0.92161537  1
  O  O199  1  0.82187259  0.50500489  0.92168772  1
  O  O200  1  0.43028457  0.35522642  0.92230926  1
  O  O201  1  0.93036292  0.35573617  0.92212411  1
  O  O202  1  0.24763122  0.13894875  0.92224115  1
  O  O203  1  0.74741889  0.13938785  0.92235751  1
  O  O204  1  0.32219109  0.13711658  0.42207185  1
  O  O205  1  0.81834644  0.13631416  0.42282190  1
  O  O206  1  0.25006462  0.36417041  0.42320416  1
  O  O207  1  0.74693365  0.35106853  0.42229989  1
  O  O208  1  0.42811705  0.50891978  0.42315940  1
  O  O209  1  0.93102260  0.50681919  0.42205786  1
  O  O210  1  0.17520525  0.49219843  0.07719846  1
  O  O211  1  0.67549277  0.49270072  0.07741148  1
  O  O212  1  0.07086619  0.64943148  0.07742681  1
  O  O213  1  0.57117862  0.65006593  0.07709354  1
  O  O214  1  0.25370202  0.85788879  0.07747243  1
  O  O215  1  0.75391873  0.85800654  0.07700295  1
  O  O216  1  0.17517206  0.85794718  0.57746855  1
  O  O217  1  0.67484430  0.85747871  0.57731660  1
  O  O218  1  0.25369777  0.64989229  0.57751476  1
  O  O219  1  0.75356754  0.64926859  0.57789125  1
  O  O220  1  0.07105445  0.49263736  0.57736490  1
  O  O221  1  0.57108954  0.49262076  0.57723991  1
  O  O222  1  0.15787542  0.83976825  0.25531490  1
  O  O223  1  0.65699024  0.83950060  0.25619774  1
  O  O224  1  0.26438110  0.69709636  0.25597900  1
  O  O225  1  0.76149244  0.68281794  0.25596113  1
  O  O226  1  0.08069991  0.47074426  0.25575496  1
  O  O227  1  0.58301762  0.47017037  0.25573575  1
  O  O228  1  0.15849963  0.47730917  0.75544885  1
  O  O229  1  0.65851947  0.47726947  0.75547551  1
  O  O230  1  0.08020701  0.68787556  0.75514699  1
  O  O231  1  0.58016865  0.68772282  0.75519216  1
  O  O232  1  0.26519487  0.83200730  0.75558350  1
  O  O233  1  0.76510945  0.83190503  0.75561973  1
