# generated using pymatgen
data_Na6Ta16Zn8Si15(S7O48)3
_symmetry_space_group_name_H-M   'P 1'
_cell_length_a   17.67960212
_cell_length_b   8.84385356
_cell_length_c   22.80356525
_cell_angle_alpha   89.99925443
_cell_angle_beta   89.51724032
_cell_angle_gamma   120.03275568
_symmetry_Int_Tables_number   1
_chemical_formula_structural   Na6Ta16Zn8Si15(S7O48)3
_chemical_formula_sum   'Na6 Ta16 Zn8 Si15 S21 O144'
_cell_volume   3086.62146271
_cell_formula_units_Z   1
loop_
 _symmetry_equiv_pos_site_id
 _symmetry_equiv_pos_as_xyz
  1  'x, y, z'
loop_
 _atom_site_type_symbol
 _atom_site_label
 _atom_site_symmetry_multiplicity
 _atom_site_fract_x
 _atom_site_fract_y
 _atom_site_fract_z
 _atom_site_occupancy
  Na  Na0  1  0.99763825  0.99585784  0.49682746  1
  Na  Na1  1  0.49885480  0.00149434  0.00135003  1
  Na  Na2  1  0.33408808  0.33590196  0.84497287  1
  Na  Na3  1  0.83509359  0.32840926  0.84251187  1
  Na  Na4  1  0.33583419  0.34177820  0.34102607  1
  Na  Na5  1  0.83590490  0.34747432  0.34150157  1
  Ta  Ta6  1  0.49643702  0.99660105  0.35792673  1
  Ta  Ta7  1  0.99553404  0.99385446  0.85902029  1
  Ta  Ta8  1  0.50377647  0.99591284  0.64732760  1
  Ta  Ta9  1  0.99646462  0.00173393  0.15063004  1
  Ta  Ta10  1  0.33009521  0.33779710  0.68463095  1
  Ta  Ta11  1  0.83757601  0.34265615  0.69218997  1
  Ta  Ta12  1  0.33580791  0.33349296  0.19177880  1
  Ta  Ta13  1  0.83113492  0.32613565  0.18822649  1
  Ta  Ta14  1  0.16176357  0.66454161  0.02022362  1
  Ta  Ta15  1  0.66725900  0.66816551  0.02683941  1
  Ta  Ta16  1  0.16628383  0.66437039  0.52478231  1
  Ta  Ta17  1  0.66284426  0.65917893  0.51730369  1
  Ta  Ta18  1  0.16341598  0.66311871  0.30426102  1
  Ta  Ta19  1  0.66495774  0.65160507  0.30987438  1
  Ta  Ta20  1  0.16380060  0.67141768  0.81338647  1
  Ta  Ta21  1  0.66351754  0.66573531  0.80483137  1
  Zn  Zn22  1  0.99654120  0.99254280  0.33741873  1
  Zn  Zn23  1  0.50480833  0.98940925  0.84802135  1
  Zn  Zn24  1  0.99131948  0.97584496  0.65428950  1
  Zn  Zn25  1  0.49245949  0.00453657  0.15578412  1
  Zn  Zn26  1  0.32739038  0.31977393  0.97956328  1
  Zn  Zn27  1  0.84353894  0.32722434  0.98016657  1
  Zn  Zn28  1  0.34370214  0.36398130  0.47773617  1
  Zn  Zn29  1  0.82912543  0.33694257  0.47757955  1
  Si  Si30  1  0.14085326  0.00392645  0.25208756  1
  Si  Si31  1  0.36024758  0.71687681  0.24845014  1
  Si  Si32  1  0.85576450  0.70906729  0.25377353  1
  Si  Si33  1  0.99425863  0.27875436  0.25442098  1
  Si  Si34  1  0.50183589  0.28036555  0.24715224  1
  Si  Si35  1  0.64117239  0.28054532  0.75273547  1
  Si  Si36  1  0.00486106  0.72568919  0.74766829  1
  Si  Si37  1  0.49235462  0.70632902  0.75410908  1
  Si  Si38  1  0.86080494  0.00447963  0.74851047  1
  Si  Si39  1  0.33495180  0.62751839  0.58055769  1
  Si  Si40  1  0.83715247  0.04967373  0.08068177  1
  Si  Si41  1  0.01793498  0.37623300  0.91691169  1
  Si  Si42  1  0.17136776  0.96640862  0.91643232  1
  Si  Si43  1  0.67077076  0.37388844  0.41512128  1
  Si  Si44  1  0.51923699  0.66034784  0.41458828  1
  S  S45  1  0.64355465  0.99970035  0.25035132  1
  S  S46  1  0.14548206  0.28892836  0.75034002  1
  S  S47  1  0.35551838  0.00141481  0.74987506  1
  S  S48  1  0.47733615  0.33068036  0.58265127  1
  S  S49  1  0.97482383  0.32779920  0.57980695  1
  S  S50  1  0.18830811  0.04931443  0.57874357  1
  S  S51  1  0.69123549  0.04384864  0.58362061  1
  S  S52  1  0.83407390  0.62419306  0.58025908  1
  S  S53  1  0.47453956  0.62203647  0.07942296  1
  S  S54  1  0.97732313  0.62410816  0.08224685  1
  S  S55  1  0.33453707  0.04351214  0.07982162  1
  S  S56  1  0.19043294  0.33626192  0.08282357  1
  S  S57  1  0.68794720  0.32523567  0.07831537  1
  S  S58  1  0.31314376  0.67415555  0.91745557  1
  S  S59  1  0.80512894  0.66141339  0.91641425  1
  S  S60  1  0.52472723  0.38011423  0.91747472  1
  S  S61  1  0.66317007  0.94601943  0.91811038  1
  S  S62  1  0.30570729  0.94958040  0.41650301  1
  S  S63  1  0.81352808  0.95623574  0.41786474  1
  S  S64  1  0.16323172  0.37864824  0.41766399  1
  S  S65  1  0.02519263  0.66965704  0.41804152  1
  O  O66  1  0.11411331  0.05934248  0.31126772  1
  O  O67  1  0.60325835  0.03409931  0.30264499  1
  O  O68  1  0.42140883  0.80356353  0.30636992  1
  O  O69  1  0.91262493  0.75965791  0.31152235  1
  O  O70  1  0.48229915  0.15593078  0.30543626  1
  O  O71  1  0.96852805  0.16935734  0.31306204  1
  O  O72  1  0.10571416  0.17709971  0.80278100  1
  O  O73  1  0.60915056  0.16868781  0.81105211  1
  O  O74  1  0.46235816  0.76468784  0.81079012  1
  O  O75  1  0.98488554  0.81049306  0.80571094  1
  O  O76  1  0.40722917  0.04599020  0.80264554  1
  O  O77  1  0.92199896  0.03845612  0.80641494  1
  O  O78  1  0.39895347  0.97770149  0.69727735  1
  O  O79  1  0.89171228  0.96683248  0.68832363  1
  O  O80  1  0.09724753  0.22823536  0.69681032  1
  O  O81  1  0.57983497  0.19290358  0.69488051  1
  O  O82  1  0.03065760  0.83349913  0.68882634  1
  O  O83  1  0.51033987  0.83147879  0.69574579  1
  O  O84  1  0.39099683  0.81484963  0.18795324  1
  O  O85  1  0.90440601  0.83365410  0.19579916  1
  O  O86  1  0.01335987  0.19457561  0.19594578  1
  O  O87  1  0.52787920  0.22517632  0.18813998  1
  O  O88  1  0.08206015  0.96982064  0.19380983  1
  O  O89  1  0.59568606  0.96743448  0.19671853  1
  O  O90  1  0.43212252  0.35619705  0.63555119  1
  O  O91  1  0.93541760  0.35920377  0.63396667  1
  O  O92  1  0.24346932  0.12485174  0.63373590  1
  O  O93  1  0.74561953  0.13031070  0.63555464  1
  O  O94  1  0.31563797  0.49526738  0.63941262  1
  O  O95  1  0.82286272  0.51596073  0.63445205  1
  O  O96  1  0.43603603  0.51262636  0.13320519  1
  O  O97  1  0.93442681  0.50988406  0.13465793  1
  O  O98  1  0.32173870  0.12701701  0.13326491  1
  O  O99  1  0.81625752  0.13870363  0.13811143  1
  O  O100  1  0.24770071  0.36502556  0.13422468  1
  O  O101  1  0.74152689  0.36175555  0.13226889  1
  O  O102  1  0.22718298  0.30813218  0.02927449  1
  O  O103  1  0.73255039  0.31523126  0.02591087  1
  O  O104  1  0.42201341  0.53923670  0.02776940  1
  O  O105  1  0.92739130  0.55582818  0.02954122  1
  O  O106  1  0.34572141  0.14938947  0.02758448  1
  O  O107  1  0.85337460  0.15715401  0.02279226  1
  O  O108  1  0.23418830  0.15290614  0.52762269  1
  O  O109  1  0.72574751  0.14623534  0.53036700  1
  O  O110  1  0.35684279  0.54940993  0.52618072  1
  O  O111  1  0.84487667  0.53878083  0.52866459  1
  O  O112  1  0.42657279  0.29558354  0.53047984  1
  O  O113  1  0.92145389  0.30432670  0.52870620  1
  O  O114  1  0.26270047  0.68297020  0.97110403  1
  O  O115  1  0.76375568  0.68615399  0.97027678  1
  O  O116  1  0.07972890  0.47428402  0.97557972  1
  O  O117  1  0.58006540  0.47413427  0.97000686  1
  O  O118  1  0.15730614  0.83699642  0.97408092  1
  O  O119  1  0.66039287  0.83872475  0.97152951  1
  O  O120  1  0.26379866  0.84143031  0.47101645  1
  O  O121  1  0.76097156  0.84210085  0.47310606  1
  O  O122  1  0.16169763  0.48388889  0.47223284  1
  O  O123  1  0.65638390  0.47445469  0.47411512  1
  O  O124  1  0.08068411  0.68056755  0.47101666  1
  O  O125  1  0.57910254  0.68324726  0.47568779  1
  O  O126  1  0.07207624  0.65770062  0.36508487  1
  O  O127  1  0.58043978  0.66106019  0.36116607  1
  O  O128  1  0.25263570  0.85951114  0.36519332  1
  O  O129  1  0.76121357  0.87059720  0.36579776  1
  O  O130  1  0.17030341  0.48705317  0.36590319  1
  O  O131  1  0.68229704  0.50137134  0.35938725  1
  O  O132  1  0.07858409  0.50035600  0.86128433  1
  O  O133  1  0.57178385  0.48675396  0.86406018  1
  O  O134  1  0.18381386  0.86179950  0.85973007  1
  O  O135  1  0.66890070  0.85150088  0.86548272  1
  O  O136  1  0.26092479  0.65525362  0.86400458  1
  O  O137  1  0.75254353  0.64651809  0.86467122  1
  O  O138  1  0.02052379  0.82868068  0.41920852  1
  O  O139  1  0.51441968  0.83960896  0.40697864  1
  O  O140  1  0.39214534  0.95760182  0.41213227  1
  O  O141  1  0.89616451  0.95894669  0.42001543  1
  O  O142  1  0.08150540  0.21456043  0.42100554  1
  O  O143  1  0.57923497  0.19099845  0.40558315  1
  O  O144  1  0.01542128  0.19067303  0.90640082  1
  O  O145  1  0.51685773  0.20774921  0.91546123  1
  O  O146  1  0.08026756  0.96705078  0.90490116  1
  O  O147  1  0.58078704  0.94772425  0.92011748  1
  O  O148  1  0.39627251  0.83907716  0.91664956  1
  O  O149  1  0.89241002  0.82670015  0.91169497  1
  O  O150  1  0.49119157  0.18258175  0.59654180  1
  O  O151  1  0.99419977  0.18745722  0.58706440  1
  O  O152  1  0.10179168  0.02778315  0.58648623  1
  O  O153  1  0.60054102  0.02048231  0.59409350  1
  O  O154  1  0.41307250  0.82161584  0.59953660  1
  O  O155  1  0.90999891  0.80054251  0.58480773  1
  O  O156  1  0.49393096  0.80135199  0.08627222  1
  O  O157  1  0.99460851  0.80246482  0.09337990  1
  O  O158  1  0.40954069  0.01686667  0.08426720  1
  O  O159  1  0.91689947  0.01423143  0.09548582  1
  O  O160  1  0.10243958  0.18474202  0.09324919  1
  O  O161  1  0.60013928  0.17567278  0.08456334  1
  O  O162  1  0.33752350  0.14728304  0.73599439  1
  O  O163  1  0.84578325  0.17612086  0.74019433  1
  O  O164  1  0.23512400  0.29839531  0.74400033  1
  O  O165  1  0.73916706  0.31522803  0.73300923  1
  O  O166  1  0.41354562  0.50566489  0.73546089  1
  O  O167  1  0.91672716  0.52688506  0.73979260  1
  O  O168  1  0.34512713  0.51517506  0.24065557  1
  O  O169  1  0.83452714  0.51253750  0.23228585  1
  O  O170  1  0.41356602  0.30152019  0.23871064  1
  O  O171  1  0.91415747  0.31791444  0.23670582  1
  O  O172  1  0.23956930  0.16381919  0.23228156  1
  O  O173  1  0.73318273  0.16595157  0.24498723  1
  O  O174  1  0.32036334  0.51685021  0.92211577  1
  O  O175  1  0.81470607  0.50818799  0.92119746  1
  O  O176  1  0.44133416  0.37791683  0.92067215  1
  O  O177  1  0.92730033  0.37260696  0.91563524  1
  O  O178  1  0.25645289  0.15421922  0.91887569  1
  O  O179  1  0.74158969  0.11755496  0.91917903  1
  O  O180  1  0.31469131  0.12142998  0.42227718  1
  O  O181  1  0.81955695  0.12639432  0.42493588  1
  O  O182  1  0.24235803  0.36600906  0.42022261  1
  O  O183  1  0.75558359  0.35604575  0.41923937  1
  O  O184  1  0.42775103  0.48262125  0.41510965  1
  O  O185  1  0.94185102  0.50545718  0.42188010  1
  O  O186  1  0.18219417  0.49763922  0.07653092  1
  O  O187  1  0.67814702  0.49020749  0.07131191  1
  O  O188  1  0.06620281  0.63523793  0.07704447  1
  O  O189  1  0.56365211  0.62872955  0.07211599  1
  O  O190  1  0.25172196  0.86615807  0.07401598  1
  O  O191  1  0.74722086  0.84939421  0.07240168  1
  O  O192  1  0.17950957  0.86812256  0.57303156  1
  O  O193  1  0.67960883  0.86586865  0.57875518  1
  O  O194  1  0.24607534  0.64393904  0.57322576  1
  O  O195  1  0.75149822  0.63489485  0.57556456  1
  O  O196  1  0.06333793  0.49948492  0.57297083  1
  O  O197  1  0.56520153  0.49344962  0.57896016  1
  O  O198  1  0.15533639  0.83392027  0.26128114  1
  O  O199  1  0.66204066  0.85789562  0.26279949  1
  O  O200  1  0.26303148  0.68454780  0.26830842  1
  O  O201  1  0.76291814  0.70537210  0.25935335  1
  O  O202  1  0.08119313  0.47463808  0.26083713  1
  O  O203  1  0.57941624  0.47953281  0.26315457  1
  O  O204  1  0.16777796  0.47187981  0.76279517  1
  O  O205  1  0.65576228  0.47903682  0.76103324  1
  O  O206  1  0.08405405  0.68374300  0.76364467  1
  O  O207  1  0.58014309  0.68949396  0.76122405  1
  O  O208  1  0.26945466  0.83848017  0.75544686  1
  O  O209  1  0.76291343  0.84328781  0.76847355  1
