# generated using pymatgen
data_Cs4Na2MgV2O8
_symmetry_space_group_name_H-M   'P 1'
_cell_length_a   6.59017398
_cell_length_b   6.55116523
_cell_length_c   8.48312597
_cell_angle_alpha   82.30125756
_cell_angle_beta   89.14320553
_cell_angle_gamma   81.09076851
_symmetry_Int_Tables_number   1
_chemical_formula_structural   Cs4Na2MgV2O8
_chemical_formula_sum   'Cs4 Na2 Mg1 V2 O8'
_cell_volume   358.55820444
_cell_formula_units_Z   1
loop_
 _symmetry_equiv_pos_site_id
 _symmetry_equiv_pos_as_xyz
  1  'x, y, z'
loop_
 _atom_site_type_symbol
 _atom_site_label
 _atom_site_symmetry_multiplicity
 _atom_site_fract_x
 _atom_site_fract_y
 _atom_site_fract_z
 _atom_site_occupancy
  Cs  Cs0  1  0.87830054  0.30236805  0.57164265  1
  Cs  Cs1  1  0.17596853  0.75074160  0.47786563  1
  Cs  Cs2  1  0.62308548  0.66918378  0.15410438  1
  Cs  Cs3  1  0.36506489  0.24281669  0.83078429  1
  Na  Na4  1  0.10914996  0.74293551  0.94382258  1
  Na  Na5  1  0.83787673  0.19765508  0.01715360  1
  Mg  Mg6  1  0.57151032  0.04266440  0.41942958  1
  V  V7  1  0.27034018  0.26575082  0.23288605  1
  V  V8  1  0.69195614  0.75338122  0.75487648  1
  O  O9  1  0.14484186  0.08879263  0.14699907  1
  O  O10  1  0.85925779  0.51723993  0.84369713  1
  O  O11  1  0.80039060  0.96502956  0.82739279  1
  O  O12  1  0.19175158  0.53481121  0.18278301  1
  O  O13  1  0.42879818  0.73474300  0.80218696  1
  O  O14  1  0.71533139  0.79167725  0.52771793  1
  O  O15  1  0.56437903  0.18778607  0.20512544  1
  O  O16  1  0.30324681  0.19159019  0.45997044  1
