# generated using pymatgen
data_Na2Si3Sn4(SO8)3
_symmetry_space_group_name_H-M   'P 1'
_cell_length_a   8.85343999
_cell_length_b   8.82832891
_cell_length_c   23.06610410
_cell_angle_alpha   90.61675674
_cell_angle_beta   90.63871891
_cell_angle_gamma   119.80509285
_symmetry_Int_Tables_number   1
_chemical_formula_structural   Na2Si3Sn4(SO8)3
_chemical_formula_sum   'Na6 Si9 Sn12 S9 O72'
_cell_volume   1564.01662247
_cell_formula_units_Z   3
loop_
 _symmetry_equiv_pos_site_id
 _symmetry_equiv_pos_as_xyz
  1  'x, y, z'
loop_
 _atom_site_type_symbol
 _atom_site_label
 _atom_site_symmetry_multiplicity
 _atom_site_fract_x
 _atom_site_fract_y
 _atom_site_fract_z
 _atom_site_occupancy
  Na  Na0  1  0.96943795  0.96681383  0.49396000  1
  Na  Na1  1  0.00943525  0.97987007  0.00164466  1
  Na  Na2  1  0.63850753  0.30270840  0.82696821  1
  Na  Na3  1  0.68244828  0.31541219  0.33606185  1
  Na  Na4  1  0.30077282  0.65822810  0.17602101  1
  Na  Na5  1  0.36074403  0.66132770  0.66475524  1
  Si  Si6  1  0.29875078  0.00618648  0.24935813  1
  Si  Si7  1  0.01227998  0.28901615  0.25138008  1
  Si  Si8  1  0.29098632  0.29368464  0.74966118  1
  Si  Si9  1  0.71437163  0.00832602  0.74967367  1
  Si  Si10  1  0.66422042  0.62435026  0.58366005  1
  Si  Si11  1  0.94908015  0.62429438  0.08445674  1
  Si  Si12  1  0.32863529  0.96138807  0.91654705  1
  Si  Si13  1  0.63203687  0.96099019  0.41633572  1
  Si  Si14  1  0.04568777  0.67002136  0.41811648  1
  Sn  Sn15  1  0.00807009  0.00151787  0.35427430  1
  Sn  Sn16  1  0.01333705  0.01340899  0.84869122  1
  Sn  Sn17  1  0.98944520  0.00068947  0.64677146  1
  Sn  Sn18  1  0.00562617  0.99299113  0.15259637  1
  Sn  Sn19  1  0.65521908  0.33259750  0.68690172  1
  Sn  Sn20  1  0.68165264  0.33231876  0.19222053  1
  Sn  Sn21  1  0.66310833  0.33319697  0.98145946  1
  Sn  Sn22  1  0.67828826  0.34368946  0.47630422  1
  Sn  Sn23  1  0.31481187  0.67333739  0.02100045  1
  Sn  Sn24  1  0.35318869  0.68331586  0.51561190  1
  Sn  Sn25  1  0.31995378  0.67676474  0.31398560  1
  Sn  Sn26  1  0.34988050  0.68219931  0.80959408  1
  S  S27  1  0.70321686  0.70805026  0.24952634  1
  S  S28  1  -0.00008512  0.70776757  0.75000701  1
  S  S29  1  0.96183558  0.33777307  0.58410383  1
  S  S30  1  0.37008641  0.03876719  0.58356618  1
  S  S31  1  0.66836345  0.03683202  0.08201757  1
  S  S32  1  0.37195017  0.33766380  0.08065287  1
  S  S33  1  0.62280539  0.66764237  0.91892723  1
  S  S34  1  0.04136944  0.37583859  0.91666591  1
  S  S35  1  0.33431321  0.37861268  0.41675329  1
  O  O36  1  0.20822857  0.03076992  0.30564639  1
  O  O37  1  0.81498121  0.78713206  0.30106637  1
  O  O38  1  0.97222363  0.16411487  0.30522537  1
  O  O39  1  0.22253679  0.18027076  0.80872593  1
  O  O40  1  0.97009322  0.78272325  0.80423578  1
  O  O41  1  0.81943083  0.02908562  0.81136523  1
  O  O42  1  0.79025022  0.96095415  0.69343295  1
  O  O43  1  0.17656963  0.20093871  0.69137459  1
  O  O44  1  0.02801068  0.81497270  0.69869372  1
  O  O45  1  0.77683241  0.80974433  0.19516185  1
  O  O46  1  0.02243982  0.20507678  0.18762224  1
  O  O47  1  0.18548674  0.95736993  0.18776250  1
  O  O48  1  0.87801034  0.35443849  0.63750535  1
  O  O49  1  0.47633476  0.11294955  0.63800303  1
  O  O50  1  0.64063951  0.51446757  0.64270659  1
  O  O51  1  0.85269288  0.50013269  0.13827760  1
  O  O52  1  0.63236215  0.11419516  0.13281642  1
  O  O53  1  0.47790549  0.36143935  0.13270916  1
  O  O54  1  0.44557869  0.30317942  0.02696234  1
  O  O55  1  0.84287377  0.54176772  0.02258349  1
  O  O56  1  0.68665113  0.13586041  0.02784088  1
  O  O57  1  0.45420752  0.14185644  0.53227743  1
  O  O58  1  0.68701479  0.52845454  0.52664694  1
  O  O59  1  0.85094553  0.30460620  0.53162261  1
  O  O60  1  0.53825450  0.68663593  0.97156218  1
  O  O61  1  0.14823792  0.45069203  0.97135182  1
  O  O62  1  0.30108808  0.85246302  0.97615217  1
  O  O63  1  0.56496740  0.85050331  0.47611299  1
  O  O64  1  0.31267027  0.45641387  0.47155717  1
  O  O65  1  0.15531384  0.69081473  0.47828547  1
  O  O66  1  0.11663470  0.62187434  0.36017774  1
  O  O67  1  0.51424024  0.86720144  0.35881508  1
  O  O68  1  0.35766263  0.48331709  0.36550923  1
  O  O69  1  0.12439562  0.47824735  0.86585894  1
  O  O70  1  0.36085489  0.87037428  0.86019866  1
  O  O71  1  0.51500093  0.63470567  0.86563311  1
  O  O72  1  0.03954906  0.85216896  0.41303787  1
  O  O73  1  0.82981247  0.99460484  0.41049322  1
  O  O74  1  0.17773318  0.20487665  0.41402617  1
  O  O75  1  0.01593774  0.19593902  0.91432226  1
  O  O76  1  0.15165193  0.97630956  0.91164657  1
  O  O77  1  0.79597283  0.82620804  0.91491742  1
  O  O78  1  0.98360816  0.17990948  0.58643430  1
  O  O79  1  0.19756035  0.02755788  0.58857468  1
  O  O80  1  0.84466092  0.81698037  0.58717037  1
  O  O81  1  0.96633127  0.81773265  0.08782035  1
  O  O82  1  0.82695673  0.02445592  0.08703202  1
  O  O83  1  0.19246670  0.18689926  0.08330850  1
  O  O84  1  0.70784742  0.18990381  0.74308260  1
  O  O85  1  0.48932347  0.32623799  0.74623578  1
  O  O86  1  0.84578535  0.53262146  0.74445802  1
  O  O87  1  0.68801404  0.53370150  0.24309120  1
  O  O88  1  0.84386780  0.32129018  0.24865080  1
  O  O89  1  0.48258159  0.18994137  0.24180895  1
  O  O90  1  0.64409240  0.51013937  0.92213841  1
  O  O91  1  0.86774404  0.36356342  0.92184629  1
  O  O92  1  0.50653923  0.15660595  0.92269790  1
  O  O93  1  0.62695081  0.14453338  0.42373248  1
  O  O94  1  0.49001681  0.35770535  0.42123253  1
  O  O95  1  0.84727635  0.50291737  0.42027055  1
  O  O96  1  0.36603184  0.50354292  0.07367547  1
  O  O97  1  0.14323054  0.63893243  0.08177878  1
  O  O98  1  0.51571810  0.85537339  0.07628103  1
  O  O99  1  0.34521840  0.85944823  0.58069146  1
  O  O100  1  0.48812739  0.64199347  0.57916226  1
  O  O101  1  0.13313149  0.49581552  0.58045531  1
  O  O102  1  0.33242241  0.84005471  0.25229451  1
  O  O103  1  0.53062194  0.68769901  0.25454086  1
  O  O104  1  0.19331289  0.47690009  0.25561983  1
  O  O105  1  0.29264160  0.48029901  0.75710030  1
  O  O106  1  0.15555188  0.68924397  0.75619702  1
  O  O107  1  0.51625745  0.84055689  0.75246296  1
