# generated using pymatgen
data_NaZrGaP2SO12
_symmetry_space_group_name_H-M   'P 1'
_cell_length_a   8.77298837
_cell_length_b   8.73470160
_cell_length_c   22.86161806
_cell_angle_alpha   90.88054562
_cell_angle_beta   90.00000000
_cell_angle_gamma   120.14510444
_symmetry_Int_Tables_number   1
_chemical_formula_structural   NaZrGaP2SO12
_chemical_formula_sum   'Na6 Zr6 Ga6 P12 S6 O72'
_cell_volume   1514.70396587
_cell_formula_units_Z   6
loop_
 _symmetry_equiv_pos_site_id
 _symmetry_equiv_pos_as_xyz
  1  'x, y, z'
loop_
 _atom_site_type_symbol
 _atom_site_label
 _atom_site_symmetry_multiplicity
 _atom_site_fract_x
 _atom_site_fract_y
 _atom_site_fract_z
 _atom_site_occupancy
  Na  Na0  1  0.98949344  0.99286499  0.50391967  1
  Na  Na1  1  0.00337156  0.99286499  0.00391967  1
  Na  Na2  1  0.65616044  0.32619799  0.83725267  1
  Na  Na3  1  0.67003856  0.32619799  0.33725267  1
  Na  Na4  1  0.32282644  0.65953199  0.17058667  1
  Na  Na5  1  0.33670456  0.65953199  0.67058667  1
  Zr  Zr6  1  0.99943937  0.00222583  0.35433427  1
  Zr  Zr7  1  0.00278646  0.00222583  0.85433427  1
  Zr  Zr8  1  0.66610637  0.33555883  0.68766727  1
  Zr  Zr9  1  0.66945346  0.33555883  0.18766727  1
  Zr  Zr10  1  0.33277237  0.66889283  0.02100127  1
  Zr  Zr11  1  0.33611946  0.66889283  0.52100127  1
  Ga  Ga12  1  0.98434615  0.01017115  0.64843051  1
  Ga  Ga13  1  0.02582500  0.01017115  0.14843051  1
  Ga  Ga14  1  0.65101315  0.34350415  0.98176351  1
  Ga  Ga15  1  0.69249200  0.34350415  0.48176351  1
  Ga  Ga16  1  0.31767915  0.67683815  0.31509751  1
  Ga  Ga17  1  0.35915800  0.67683815  0.81509751  1
  P  P18  1  0.28763739  0.99208107  0.24944925  1
  P  P19  1  0.01223169  0.29517897  0.24892121  1
  P  P20  1  0.28294728  0.29517897  0.74892121  1
  P  P21  1  0.70444368  0.99208107  0.74944925  1
  P  P22  1  0.95430439  0.32541407  0.58278225  1
  P  P23  1  0.67889869  0.62851197  0.58225421  1
  P  P24  1  0.94961428  0.62851197  0.08225421  1
  P  P25  1  0.37111068  0.32541407  0.08278225  1
  P  P26  1  0.62097039  0.65874807  0.91611625  1
  P  P27  1  0.34556469  0.96184597  0.91558821  1
  P  P28  1  0.61628028  0.96184597  0.41558821  1
  P  P29  1  0.03777668  0.65874807  0.41611625  1
  S  S30  1  0.70376287  0.71524223  0.24864085  1
  S  S31  1  0.01147936  0.71524223  0.74864085  1
  S  S32  1  0.37042987  0.04857523  0.58197385  1
  S  S33  1  0.67814636  0.04857523  0.08197385  1
  S  S34  1  0.03709587  0.38190923  0.91530785  1
  S  S35  1  0.34481236  0.38190923  0.41530785  1
  O  O36  1  0.20353653  0.02292810  0.30439172  1
  O  O37  1  0.81330355  0.79220444  0.30227028  1
  O  O38  1  0.97691698  0.17996885  0.30379376  1
  O  O39  1  0.20305187  0.17996885  0.80379376  1
  O  O40  1  0.97890089  0.79220444  0.80227028  1
  O  O41  1  0.81939157  0.02292810  0.80439172  1
  O  O42  1  0.78581195  0.96082585  0.69443749  1
  O  O43  1  0.17200655  0.20408693  0.69370831  1
  O  O44  1  0.03237765  0.81994485  0.69639431  1
  O  O45  1  0.78756720  0.81994485  0.19639431  1
  O  O46  1  0.03208038  0.20408693  0.19370831  1
  O  O47  1  0.17501390  0.96082585  0.19443749  1
  O  O48  1  0.87020353  0.35626110  0.63772472  1
  O  O49  1  0.47997055  0.12553744  0.63560328  1
  O  O50  1  0.64358398  0.51330185  0.63712676  1
  O  O51  1  0.86971887  0.51330185  0.13712676  1
  O  O52  1  0.64556789  0.12553744  0.13560328  1
  O  O53  1  0.48605857  0.35626110  0.13772472  1
  O  O54  1  0.45247895  0.29415885  0.02777049  1
  O  O55  1  0.83867355  0.53741993  0.02704131  1
  O  O56  1  0.69904465  0.15327785  0.02972731  1
  O  O57  1  0.45423420  0.15327785  0.52972731  1
  O  O58  1  0.69874738  0.53741993  0.52704131  1
  O  O59  1  0.84168090  0.29415885  0.52777049  1
  O  O60  1  0.53686953  0.68959510  0.97105872  1
  O  O61  1  0.14663655  0.45887144  0.96893728  1
  O  O62  1  0.31024998  0.84663585  0.97046076  1
  O  O63  1  0.53638487  0.84663585  0.47046076  1
  O  O64  1  0.31223389  0.45887144  0.46893728  1
  O  O65  1  0.15272457  0.68959510  0.47105872  1
  O  O66  1  0.11914495  0.62749285  0.36110449  1
  O  O67  1  0.50533955  0.87075393  0.36037531  1
  O  O68  1  0.36571065  0.48661185  0.36306131  1
  O  O69  1  0.12090020  0.48661185  0.86306131  1
  O  O70  1  0.36541338  0.87075393  0.86037531  1
  O  O71  1  0.50834690  0.62749285  0.86110449  1
  O  O72  1  0.02075416  0.82668493  0.41050379  1
  O  O73  1  0.80297378  0.98247734  0.40999133  1
  O  O74  1  0.18180388  0.20272869  0.41127625  1
  O  O75  1  0.02092482  0.20272869  0.91127625  1
  O  O76  1  0.17950356  0.98247734  0.90999133  1
  O  O77  1  0.80593077  0.82668493  0.91050379  1
  O  O78  1  0.97598512  0.16166575  0.58911294  1
  O  O79  1  0.19396379  0.02626794  0.58945705  1
  O  O80  1  0.84544884  0.81245207  0.59096703  1
  O  O81  1  0.96700323  0.81245207  0.09096703  1
  O  O82  1  0.83230415  0.02626794  0.08945705  1
  O  O83  1  0.18568063  0.16166575  0.08911294  1
  O  O84  1  0.68742116  0.16001793  0.74383679  1
  O  O85  1  0.46964078  0.31581034  0.74332433  1
  O  O86  1  0.84847088  0.53606169  0.74460925  1
  O  O87  1  0.68759182  0.53606169  0.24460925  1
  O  O88  1  0.84617056  0.31581034  0.24332433  1
  O  O89  1  0.47259777  0.16001793  0.24383679  1
  O  O90  1  0.64265212  0.49499875  0.92244594  1
  O  O91  1  0.86063079  0.35960094  0.92279005  1
  O  O92  1  0.51211584  0.14578507  0.92430003  1
  O  O93  1  0.63367023  0.14578507  0.42430003  1
  O  O94  1  0.49897115  0.35960094  0.42279005  1
  O  O95  1  0.85234763  0.49499875  0.42244594  1
  O  O96  1  0.35408716  0.49335193  0.07717079  1
  O  O97  1  0.13630678  0.64914434  0.07665833  1
  O  O98  1  0.51513688  0.86939569  0.07794325  1
  O  O99  1  0.35425782  0.86939569  0.57794325  1
  O  O100  1  0.51283656  0.64914434  0.57665833  1
  O  O101  1  0.13926377  0.49335193  0.57717079  1
  O  O102  1  0.30931812  0.82833275  0.25577994  1
  O  O103  1  0.52729679  0.69293494  0.25612405  1
  O  O104  1  0.17878184  0.47911907  0.25763403  1
  O  O105  1  0.30033623  0.47911907  0.75763403  1
  O  O106  1  0.16563715  0.69293494  0.75612405  1
  O  O107  1  0.51901363  0.82833275  0.75577994  1
