# generated using pymatgen
data_MgSbS2NCl6
_symmetry_space_group_name_H-M   'P 1'
_cell_length_a   7.90025127
_cell_length_b   7.78884862
_cell_length_c   7.78884836
_cell_angle_alpha   68.50194361
_cell_angle_beta   59.54915053
_cell_angle_gamma   59.54915505
_symmetry_Int_Tables_number   1
_chemical_formula_structural   MgSbS2NCl6
_chemical_formula_sum   'Mg1 Sb1 S2 N1 Cl6'
_cell_volume   352.28116499
_cell_formula_units_Z   1
loop_
 _symmetry_equiv_pos_site_id
 _symmetry_equiv_pos_as_xyz
  1  'x, y, z'
loop_
 _atom_site_type_symbol
 _atom_site_label
 _atom_site_symmetry_multiplicity
 _atom_site_fract_x
 _atom_site_fract_y
 _atom_site_fract_z
 _atom_site_occupancy
  Mg  Mg0  1  0.82732900  0.67282600  0.67282600  1
  Sb  Sb1  1  0.97575400  0.02460900  0.02460900  1
  S  S2  1  0.49859200  0.67193500  0.33097400  1
  S  S3  1  0.49859200  0.33097400  0.67193500  1
  N  N4  1  0.49943300  0.50062200  0.50062200  1
  Cl  Cl5  1  0.94262500  0.79996500  0.79996500  1
  Cl  Cl6  1  0.99264300  0.70130200  0.31393500  1
  Cl  Cl7  1  0.58676100  0.18541300  0.18541300  1
  Cl  Cl8  1  0.99264300  0.31393500  0.70130200  1
  Cl  Cl9  1  0.04270800  0.18577200  0.18577200  1
  Cl  Cl10  1  0.45773600  0.80014700  0.80014700  1
