# generated using pymatgen
data_NaY3TaP3(SO8)3
_symmetry_space_group_name_H-M   'P 1'
_cell_length_a   9.07565660
_cell_length_b   9.06697656
_cell_length_c   23.80278702
_cell_angle_alpha   90.15147359
_cell_angle_beta   90.07758989
_cell_angle_gamma   120.12103664
_symmetry_Int_Tables_number   1
_chemical_formula_structural   NaY3TaP3(SO8)3
_chemical_formula_sum   'Na3 Y9 Ta3 P9 S9 O72'
_cell_volume   1694.19894980
_cell_formula_units_Z   3
loop_
 _symmetry_equiv_pos_site_id
 _symmetry_equiv_pos_as_xyz
  1  'x, y, z'
loop_
 _atom_site_type_symbol
 _atom_site_label
 _atom_site_symmetry_multiplicity
 _atom_site_fract_x
 _atom_site_fract_y
 _atom_site_fract_z
 _atom_site_occupancy
  Na  Na0  1  0.00267462  0.02397837  0.99909310  1
  Na  Na1  1  0.68880190  0.34572862  0.83452009  1
  Na  Na2  1  0.66247700  0.34424140  0.33560687  1
  Y  Y3  1  0.99812294  0.99689116  0.35797139  1
  Y  Y4  1  0.99895099  0.00191908  0.85386761  1
  Y  Y5  1  0.99445796  0.00169488  0.14829544  1
  Y  Y6  1  0.67073047  0.33684052  0.67833479  1
  Y  Y7  1  0.66842275  0.32873318  0.97875687  1
  Y  Y8  1  0.66269177  0.33360787  0.48858661  1
  Y  Y9  1  0.33419991  0.66037473  0.02625833  1
  Y  Y10  1  0.34177973  0.66258176  0.30958678  1
  Y  Y11  1  0.31841217  0.66122033  0.80729426  1
  Ta  Ta12  1  0.00124541  0.99316951  0.64475989  1
  Ta  Ta13  1  0.65952204  0.33235492  0.18225850  1
  Ta  Ta14  1  0.33091599  0.65685387  0.52211153  1
  P  P15  1  0.71411776  0.69623914  0.24936560  1
  P  P16  1  0.99369372  0.71256791  0.74785774  1
  P  P17  1  0.96915693  0.32796730  0.58348401  1
  P  P18  1  0.36277994  0.02524627  0.58300479  1
  P  P19  1  0.66616197  0.63793638  0.58337496  1
  P  P20  1  0.66662625  0.04718013  0.08442590  1
  P  P21  1  0.37661601  0.32852576  0.08316009  1
  P  P22  1  0.04179384  0.37587147  0.91678947  1
  P  P23  1  0.33686921  0.38200355  0.41802843  1
  S  S24  1  0.30551740  0.01413031  0.24877041  1
  S  S25  1  0.98279079  0.29200867  0.24959738  1
  S  S26  1  0.28707321  0.28098525  0.74626489  1
  S  S27  1  0.71694705  0.00296123  0.74653052  1
  S  S28  1  0.95016977  0.61839838  0.08600785  1
  S  S29  1  0.62363684  0.66700058  0.91586754  1
  S  S30  1  0.33212256  0.95673678  0.91655656  1
  S  S31  1  0.61371662  0.95178006  0.41917465  1
  S  S32  1  0.05029861  0.66233602  0.41876310  1
  O  O33  1  0.23468530  0.05147418  0.29932132  1
  O  O34  1  0.82558268  0.77118261  0.30240591  1
  O  O35  1  0.95162400  0.18449686  0.29989773  1
  O  O36  1  0.20991433  0.18351115  0.79770700  1
  O  O37  1  0.97225721  0.79634039  0.80026332  1
  O  O38  1  0.81797039  0.03041680  0.79802606  1
  O  O39  1  0.81304260  0.99217323  0.69648211  1
  O  O40  1  0.17765823  0.18621910  0.69608883  1
  O  O41  1  0.00320210  0.82818361  0.69513781  1
  O  O42  1  0.79723217  0.80474419  0.19815372  1
  O  O43  1  0.01395355  0.21678832  0.19986522  1
  O  O44  1  0.20252415  0.98946796  0.19890968  1
  O  O45  1  0.90106326  0.37807430  0.63366784  1
  O  O46  1  0.47813289  0.09571736  0.63384137  1
  O  O47  1  0.61817959  0.52135802  0.63367256  1
  O  O48  1  0.85376620  0.51056058  0.13679846  1
  O  O49  1  0.65947764  0.15426330  0.13788404  1
  O  O50  1  0.49395039  0.34209131  0.13748961  1
  O  O51  1  0.46211987  0.30781015  0.03154982  1
  O  O52  1  0.84934741  0.54384573  0.03498718  1
  O  O53  1  0.69625438  0.15607165  0.03246251  1
  O  O54  1  0.43235399  0.14336536  0.53270912  1
  O  O55  1  0.71364528  0.56988093  0.53253353  1
  O  O56  1  0.85460718  0.28418935  0.53238255  1
  O  O57  1  0.54250027  0.68358695  0.96727175  1
  O  O58  1  0.14278862  0.46606561  0.97012336  1
  O  O59  1  0.32071855  0.86159964  0.96771762  1
  O  O60  1  0.52099715  0.84597300  0.46943165  1
  O  O61  1  0.32572236  0.48645955  0.47108209  1
  O  O62  1  0.15618985  0.67615012  0.46963721  1
  O  O63  1  0.12899546  0.64328526  0.36761695  1
  O  O64  1  0.51331394  0.87687769  0.36771829  1
  O  O65  1  0.35954198  0.48951316  0.36621120  1
  O  O66  1  0.13196396  0.47606718  0.86311893  1
  O  O67  1  0.34818143  0.87378986  0.86530760  1
  O  O68  1  0.52699198  0.65544566  0.86467330  1
  O  O69  1  0.04019065  0.81961066  0.41593556  1
  O  O70  1  0.77927995  0.95878370  0.41489040  1
  O  O71  1  0.17130545  0.21064568  0.41365514  1
  O  O72  1  0.02132540  0.19541129  0.91523092  1
  O  O73  1  0.17739625  0.97354917  0.91377993  1
  O  O74  1  0.79782978  0.81975028  0.91409322  1
  O  O75  1  0.00029011  0.17910704  0.60036611  1
  O  O76  1  0.18059206  0.99752255  0.59904814  1
  O  O77  1  0.81772847  0.82023126  0.59901546  1
  O  O78  1  0.97168245  0.78870361  0.09287885  1
  O  O79  1  0.82285805  0.02695224  0.09172957  1
  O  O80  1  0.20398884  0.16983975  0.09171826  1
  O  O81  1  0.69484199  0.15272630  0.74010280  1
  O  O82  1  0.45581374  0.29717311  0.73971802  1
  O  O83  1  0.83667284  0.53535842  0.74010259  1
  O  O84  1  0.69209546  0.51205428  0.23706948  1
  O  O85  1  0.82666410  0.30803441  0.24036589  1
  O  O86  1  0.48226098  0.17055884  0.23973239  1
  O  O87  1  0.64079596  0.51250835  0.91832131  1
  O  O88  1  0.86229950  0.35750404  0.91693689  1
  O  O89  1  0.48399634  0.13138981  0.91781443  1
  O  O90  1  0.63784553  0.12472747  0.42549067  1
  O  O91  1  0.49472714  0.36337755  0.42585091  1
  O  O92  1  0.87909316  0.51033970  0.42500062  1
  O  O93  1  0.37146437  0.49271263  0.08359968  1
  O  O94  1  0.11303778  0.62337252  0.08490346  1
  O  O95  1  0.50022333  0.87981795  0.08277592  1
  O  O96  1  0.33222951  0.84465460  0.56556775  1
  O  O97  1  0.51420044  0.66801406  0.56733090  1
  O  O98  1  0.15197385  0.48339919  0.56731779  1
  O  O99  1  0.33098650  0.86878367  0.25712297  1
  O  O100  1  0.53446624  0.66587297  0.25730750  1
  O  O101  1  0.12732535  0.46519251  0.25758628  1
  O  O102  1  0.29889295  0.44809109  0.74863632  1
  O  O103  1  0.15997651  0.70937033  0.74901779  1
  O  O104  1  0.55303854  0.84441951  0.75017892  1
