# generated using pymatgen
data_Na8Ca2Sc2Si3(SO8)3
_symmetry_space_group_name_H-M   'P 1'
_cell_length_a   9.40694044
_cell_length_b   9.37002685
_cell_length_c   22.88544555
_cell_angle_alpha   91.27042574
_cell_angle_beta   89.99885274
_cell_angle_gamma   119.94633493
_symmetry_Int_Tables_number   1
_chemical_formula_structural   Na8Ca2Sc2Si3(SO8)3
_chemical_formula_sum   'Na24 Ca6 Sc6 Si9 S9 O72'
_cell_volume   1747.31716414
_cell_formula_units_Z   3
loop_
 _symmetry_equiv_pos_site_id
 _symmetry_equiv_pos_as_xyz
  1  'x, y, z'
loop_
 _atom_site_type_symbol
 _atom_site_label
 _atom_site_symmetry_multiplicity
 _atom_site_fract_x
 _atom_site_fract_y
 _atom_site_fract_z
 _atom_site_occupancy
  Na  Na0  1  0.64415520  0.02527844  0.26057184  1
  Na  Na1  1  0.34507813  0.34040162  0.25532577  1
  Na  Na2  1  0.00466387  0.62323959  0.24266713  1
  Na  Na3  1  0.62259977  0.62394490  0.73431508  1
  Na  Na4  1  0.99028120  0.34352837  0.73776516  1
  Na  Na5  1  0.38301441  0.02914054  0.75210566  1
  Na  Na6  1  0.30657096  0.35340031  0.59286513  1
  Na  Na7  1  0.01265903  0.67495473  0.58680418  1
  Na  Na8  1  0.67038925  0.95660558  0.57893654  1
  Na  Na9  1  0.28088674  0.94440198  0.08029600  1
  Na  Na10  1  0.68295850  0.69805693  0.08215150  1
  Na  Na11  1  0.02824017  0.35135594  0.09442847  1
  Na  Na12  1  0.99393075  0.69086108  0.91811387  1
  Na  Na13  1  0.68377641  0.02722130  0.89988669  1
  Na  Na14  1  0.32626808  0.27732230  0.90264732  1
  Na  Na15  1  0.94800551  0.27696415  0.41574506  1
  Na  Na16  1  0.34543113  0.03474200  0.40898941  1
  Na  Na17  1  0.69301410  0.68492652  0.42999345  1
  Na  Na18  1  0.96909557  0.99431623  0.50648884  1
  Na  Na19  1  0.01626180  0.98553310  0.99774284  1
  Na  Na20  1  0.64254527  0.30954852  0.82030360  1
  Na  Na21  1  0.66388263  0.30446807  0.33183225  1
  Na  Na22  1  0.30039407  0.65988213  0.17268459  1
  Na  Na23  1  0.34115779  0.64742269  0.66070911  1
  Ca  Ca24  1  0.00000142  0.00496293  0.34798584  1
  Ca  Ca25  1  0.00487176  0.00722576  0.84485556  1
  Ca  Ca26  1  0.66783088  0.33405364  0.68105350  1
  Ca  Ca27  1  0.67276256  0.33275450  0.18340190  1
  Ca  Ca28  1  0.32704485  0.67129232  0.01431114  1
  Ca  Ca29  1  0.34117087  0.66838648  0.51658419  1
  Sc  Sc30  1  0.98575122  0.01499910  0.65041320  1
  Sc  Sc31  1  0.01188253  0.99675593  0.15625155  1
  Sc  Sc32  1  0.66850790  0.33549176  0.98279528  1
  Sc  Sc33  1  0.67621444  0.32789302  0.48954259  1
  Sc  Sc34  1  0.33228755  0.68216125  0.31403777  1
  Sc  Sc35  1  0.34743925  0.68519176  0.81016744  1
  Si  Si36  1  0.30229502  0.99727473  0.25224234  1
  Si  Si37  1  0.00784913  0.30421170  0.25033806  1
  Si  Si38  1  0.29972612  0.30617985  0.75313330  1
  Si  Si39  1  0.69554808  0.99752183  0.75347441  1
  Si  Si40  1  0.97045382  0.33336049  0.58511788  1
  Si  Si41  1  0.67584974  0.63732177  0.58412639  1
  Si  Si42  1  0.96402674  0.63828193  0.08380426  1
  Si  Si43  1  0.33726208  0.97278421  0.92009164  1
  Si  Si44  1  0.63213480  0.97174901  0.41726915  1
  S  S45  1  0.69663332  0.70445011  0.24868589  1
  S  S46  1  0.00665482  0.70261915  0.75150469  1
  S  S47  1  0.36255693  0.03726769  0.58205637  1
  S  S48  1  0.67372790  0.03587384  0.08072372  1
  S  S49  1  0.36811971  0.33031952  0.08177278  1
  S  S50  1  0.62910531  0.65910132  0.91854926  1
  S  S51  1  0.02736121  0.36654310  0.91838995  1
  S  S52  1  0.33992005  0.37134284  0.41451527  1
  S  S53  1  0.03199484  0.66112960  0.41562511  1
  O  O54  1  0.22199893  0.01926850  0.31114533  1
  O  O55  1  0.79701318  0.77760892  0.30200774  1
  O  O56  1  0.97281064  0.19298287  0.30697163  1
  O  O57  1  0.23001819  0.20192616  0.81223979  1
  O  O58  1  0.98518959  0.77605125  0.80636768  1
  O  O59  1  0.79049433  0.01546495  0.81439786  1
  O  O60  1  0.79288769  0.97327386  0.69696962  1
  O  O61  1  0.17659236  0.20460190  0.69623759  1
  O  O62  1  0.02858065  0.80664053  0.70043658  1
  O  O63  1  0.78214364  0.80927651  0.19678801  1
  O  O64  1  0.02895962  0.20494129  0.19103213  1
  O  O65  1  0.18085917  0.96864392  0.19360996  1
  O  O66  1  0.89283169  0.35969954  0.64396301  1
  O  O67  1  0.46114561  0.10901567  0.63570187  1
  O  O68  1  0.64237762  0.52843432  0.64130985  1
  O  O69  1  0.87974699  0.53258056  0.14097941  1
  O  O70  1  0.64385683  0.10778174  0.13465548  1
  O  O71  1  0.46358582  0.35205021  0.13609037  1
  O  O72  1  0.45522867  0.31024432  0.03013861  1
  O  O73  1  0.84317369  0.53756704  0.02553334  1
  O  O74  1  0.68767859  0.13997507  0.02982132  1
  O  O75  1  0.45066547  0.14241142  0.53044733  1
  O  O76  1  0.69285646  0.53503562  0.52493089  1
  O  O77  1  0.84843448  0.30505655  0.52672130  1
  O  O78  1  0.55592116  0.68015971  0.97315804  1
  O  O79  1  0.12689810  0.44086574  0.97243721  1
  O  O80  1  0.31476434  0.87260251  0.97943104  1
  O  O81  1  0.54794024  0.86609587  0.47413125  1
  O  O82  1  0.31709946  0.44870406  0.46757199  1
  O  O83  1  0.12936355  0.68321335  0.46866658  1
  O  O84  1  0.11793204  0.64246222  0.36268365  1
  O  O85  1  0.51318253  0.87247262  0.35805924  1
  O  O86  1  0.35372571  0.47069309  0.36198316  1
  O  O87  1  0.10793200  0.46900783  0.86745211  1
  O  O88  1  0.36273848  0.87467981  0.86302399  1
  O  O89  1  0.52380093  0.63942690  0.86725282  1
  O  O90  1  0.01057433  0.80695396  0.41068253  1
  O  O91  1  0.81580749  0.99163854  0.41485907  1
  O  O92  1  0.19671458  0.20216710  0.41061294  1
  O  O93  1  -0.00022212  0.19688468  0.91366272  1
  O  O94  1  0.17351621  0.99279155  0.91652429  1
  O  O95  1  0.79692853  0.80369907  0.91438296  1
  O  O96  1  0.98066410  0.16075529  0.58599243  1
  O  O97  1  0.20056609  0.02878074  0.58551877  1
  O  O98  1  0.85281394  0.81651751  0.58771044  1
  O  O99  1  0.97558459  0.82397318  0.08629568  1
  O  O100  1  0.82966105  0.03113666  0.08487148  1
  O  O101  1  0.20240596  0.17804810  0.08364043  1
  O  O102  1  0.67236458  0.15746541  0.74880631  1
  O  O103  1  0.48622368  0.33742559  0.74794408  1
  O  O104  1  0.86275716  0.53549422  0.74584617  1
  O  O105  1  0.66947932  0.53615200  0.24109825  1
  O  O106  1  0.85350761  0.33792738  0.24628731  1
  O  O107  1  0.48355892  0.15954449  0.24614083  1
  O  O108  1  0.64052629  0.50386626  0.92117110  1
  O  O109  1  0.86184814  0.35647351  0.92441690  1
  O  O110  1  0.50975911  0.15958415  0.92430874  1
  O  O111  1  0.64246566  0.15651969  0.41922885  1
  O  O112  1  0.49440067  0.36193696  0.41816241  1
  O  O113  1  0.86737852  0.50711922  0.41723386  1
  O  O114  1  0.35114289  0.47844180  0.07632786  1
  O  O115  1  0.14777447  0.65785083  0.08145010  1
  O  O116  1  0.53497389  0.86517342  0.07462243  1
  O  O117  1  0.33681856  0.86890921  0.57456263  1
  O  O118  1  0.52062260  0.67015569  0.58024710  1
  O  O119  1  0.15219903  0.49516093  0.57902870  1
  O  O120  1  0.31361544  0.82469821  0.25273494  1
  O  O121  1  0.53407195  0.69588224  0.25279047  1
  O  O122  1  0.18406056  0.48427302  0.25462893  1
  O  O123  1  0.30295013  0.48644397  0.75852667  1
  O  O124  1  0.15910767  0.68855238  0.75625500  1
  O  O125  1  0.51070472  0.82466842  0.75288896  1
