# generated using pymatgen
data_Mg2V2O7
_symmetry_space_group_name_H-M   'P 1'
_cell_length_a   4.94987179
_cell_length_b   5.40659891
_cell_length_c   10.56122502
_cell_angle_alpha   101.23643222
_cell_angle_beta   102.17180709
_cell_angle_gamma   98.62063513
_symmetry_Int_Tables_number   1
_chemical_formula_structural   Mg2V2O7
_chemical_formula_sum   'Mg4 V4 O14'
_cell_volume   265.55924353
_cell_formula_units_Z   2
loop_
 _symmetry_equiv_pos_site_id
 _symmetry_equiv_pos_as_xyz
  1  'x, y, z'
loop_
 _atom_site_type_symbol
 _atom_site_label
 _atom_site_symmetry_multiplicity
 _atom_site_fract_x
 _atom_site_fract_y
 _atom_site_fract_z
 _atom_site_occupancy
  Mg  Mg0  1  0.51321351  0.79014603  0.08520301  1
  Mg  Mg1  1  0.48678649  0.20985397  0.91479699  1
  Mg  Mg2  1  0.42517014  0.21179506  0.41736049  1
  Mg  Mg3  1  0.57482986  0.78820494  0.58263951  1
  V  V4  1  0.03712271  0.35064424  0.64133030  1
  V  V5  1  0.96287729  0.64935576  0.35866970  1
  V  V6  1  0.85517822  0.79630722  0.86534462  1
  V  V7  1  0.14482178  0.20369278  0.13465538  1
  O  O8  1  0.29277929  0.44558733  0.56317611  1
  O  O9  1  0.70722071  0.55441267  0.43682389  1
  O  O10  1  0.62490631  0.95895364  0.78439957  1
  O  O11  1  0.37509369  0.04104636  0.21560043  1
  O  O12  1  0.76322136  0.11644985  0.53994256  1
  O  O13  1  0.23677864  0.88355015  0.46005744  1
  O  O14  1  0.30924864  0.42391236  0.06820331  1
  O  O15  1  0.69075136  0.57608764  0.93179669  1
  O  O16  1  0.90188491  0.62676583  0.71024060  1
  O  O17  1  0.09811509  0.37323417  0.28975940  1
  O  O18  1  0.20786546  0.92260470  0.95897433  1
  O  O19  1  0.79213454  0.07739530  0.04102567  1
  O  O20  1  0.17686595  0.23750848  0.76851186  1
  O  O21  1  0.82313405  0.76249152  0.23148814  1
