# generated using pymatgen
data_MgNi(TeO3)4
_symmetry_space_group_name_H-M   'P 1'
_cell_length_a   5.83832694
_cell_length_b   11.80850664
_cell_length_c   10.66806045
_cell_angle_alpha   26.50104106
_cell_angle_beta   47.74251579
_cell_angle_gamma   53.00974675
_symmetry_Int_Tables_number   1
_chemical_formula_structural   MgNi(TeO3)4
_chemical_formula_sum   'Mg1 Ni1 Te4 O12'
_cell_volume   242.89594849
_cell_formula_units_Z   1
loop_
 _symmetry_equiv_pos_site_id
 _symmetry_equiv_pos_as_xyz
  1  'x, y, z'
loop_
 _atom_site_type_symbol
 _atom_site_label
 _atom_site_symmetry_multiplicity
 _atom_site_fract_x
 _atom_site_fract_y
 _atom_site_fract_z
 _atom_site_occupancy
  Mg  Mg0  1  0.66901500  0.49542500  0.66807100  1
  Ni  Ni1  1  0.30919500  0.00169900  0.31015500  1
  Te  Te2  1  0.98467600  0.98404300  0.99538900  1
  Te  Te3  1  0.98709400  0.51553000  0.97537800  1
  Te  Te4  1  0.50054000  0.98585600  0.53389500  1
  Te  Te5  1  0.47480300  0.51485500  0.43531800  1
  O  O6  1  0.35842500  0.33121500  0.07027600  1
  O  O7  1  0.22561300  0.11940100  0.63098800  1
  O  O8  1  0.08637600  0.30486900  0.73382800  1
  O  O9  1  0.89093300  0.19335100  0.23681600  1
  O  O10  1  0.36924400  0.83155800  0.07542600  1
  O  O11  1  0.74458500  0.38012000  0.33990700  1
  O  O12  1  0.22870600  0.64648000  0.61660200  1
  O  O13  1  0.61385500  0.16966200  0.90203300  1
  O  O14  1  0.10093700  0.81950600  0.72124800  1
  O  O15  1  0.86698400  0.68123600  0.25100100  1
  O  O16  1  0.74817900  0.85301300  0.35437500  1
  O  O17  1  0.60252200  0.66623000  0.89609100  1
