# generated using pymatgen
data_Na3CaGe(PO4)3
_symmetry_space_group_name_H-M   'P 1'
_cell_length_a   15.77982852
_cell_length_b   9.06656256
_cell_length_c   8.97521285
_cell_angle_alpha   90.00000000
_cell_angle_beta   126.43100347
_cell_angle_gamma   90.00000000
_symmetry_Int_Tables_number   1
_chemical_formula_structural   Na3CaGe(PO4)3
_chemical_formula_sum   'Na12 Ca4 Ge4 P12 O48'
_cell_volume   1033.12988104
_cell_formula_units_Z   4
loop_
 _symmetry_equiv_pos_site_id
 _symmetry_equiv_pos_as_xyz
  1  'x, y, z'
loop_
 _atom_site_type_symbol
 _atom_site_label
 _atom_site_symmetry_multiplicity
 _atom_site_fract_x
 _atom_site_fract_y
 _atom_site_fract_z
 _atom_site_occupancy
  Na  Na0  1  0.25393718  0.72726028  0.99115991  1
  Na  Na1  1  0.75393718  0.77273972  0.49115991  1
  Na  Na2  1  0.75393718  0.22726028  0.99115991  1
  Na  Na3  1  0.25393718  0.27273972  0.49115991  1
  Na  Na4  1  0.50409442  0.10509055  0.74517582  1
  Na  Na5  1  0.50409442  0.89490945  0.24517582  1
  Na  Na6  1  0.00409442  0.60509055  0.74517582  1
  Na  Na7  1  0.00409442  0.39490945  0.24517582  1
  Na  Na8  1  0.17935693  0.93815154  0.28754613  1
  Na  Na9  1  0.17935693  0.06184846  0.78754613  1
  Na  Na10  1  0.67935693  0.43815154  0.28754613  1
  Na  Na11  1  0.67935693  0.56184846  0.78754613  1
  Ca  Ca12  1  0.10655473  0.74681781  0.56980120  1
  Ca  Ca13  1  0.10655473  0.25318219  0.06980120  1
  Ca  Ca14  1  0.60655473  0.24681781  0.56980120  1
  Ca  Ca15  1  0.60655473  0.75318219  0.06980120  1
  Ge  Ge16  1  0.89526932  0.76212832  0.93228148  1
  Ge  Ge17  1  0.89526932  0.23787168  0.43228148  1
  Ge  Ge18  1  0.39526932  0.26212832  0.93228148  1
  Ge  Ge19  1  0.39526932  0.73787168  0.43228148  1
  P  P20  1  0.98865802  0.95918534  0.75586017  1
  P  P21  1  0.98865802  0.04081466  0.25586017  1
  P  P22  1  0.48865802  0.45918534  0.75586017  1
  P  P23  1  0.48865802  0.54081466  0.25586017  1
  P  P24  1  0.35789460  0.91891668  0.76069816  1
  P  P25  1  0.65129247  0.87503433  0.74662739  1
  P  P26  1  0.65129247  0.12496567  0.24662739  1
  P  P27  1  0.35789460  0.08108332  0.26069816  1
  P  P28  1  0.85789460  0.41891668  0.76069816  1
  P  P29  1  0.15129247  0.37503433  0.74662739  1
  P  P30  1  0.15129247  0.62496567  0.24662739  1
  P  P31  1  0.85789460  0.58108332  0.26069816  1
  O  O32  1  0.16030963  0.54224233  0.75246215  1
  O  O33  1  0.85595410  0.59759847  0.75481376  1
  O  O34  1  0.85595410  0.40240153  0.25481376  1
  O  O35  1  0.16030963  0.45775767  0.25246215  1
  O  O36  1  0.66030963  0.04224233  0.75246215  1
  O  O37  1  0.35595410  0.09759847  0.75481376  1
  O  O38  1  0.35595410  0.90240153  0.25481376  1
  O  O39  1  0.66030963  0.95775767  0.25246215  1
  O  O40  1  0.42631933  0.56676286  0.58000795  1
  O  O41  1  0.55767089  0.53917166  0.93602626  1
  O  O42  1  0.55767089  0.46082834  0.43602626  1
  O  O43  1  0.42631933  0.43323714  0.08000795  1
  O  O44  1  0.92631933  0.06676286  0.58000795  1
  O  O45  1  0.05767089  0.03917166  0.93602626  1
  O  O46  1  0.05767089  0.96082834  0.43602626  1
  O  O47  1  0.92631933  0.93323714  0.08000795  1
  O  O48  1  0.26329856  0.86756348  0.75358072  1
  O  O49  1  0.74282962  0.79886921  0.74806166  1
  O  O50  1  0.74282962  0.20113079  0.24806166  1
  O  O51  1  0.26329856  0.13243652  0.25358072  1
  O  O52  1  0.76329856  0.36756348  0.75358072  1
  O  O53  1  0.24282962  0.29886921  0.74806166  1
  O  O54  1  0.24282962  0.70113079  0.24806166  1
  O  O55  1  0.76329856  0.63243652  0.25358072  1
  O  O56  1  0.35486504  0.87728656  0.58543953  1
  O  O57  1  0.65847321  0.81675325  0.90941562  1
  O  O58  1  0.65847321  0.18324675  0.40941562  1
  O  O59  1  0.35486504  0.12271344  0.08543953  1
  O  O60  1  0.85486504  0.37728656  0.58543953  1
  O  O61  1  0.15847321  0.31675325  0.90941562  1
  O  O62  1  0.15847321  0.68324675  0.40941562  1
  O  O63  1  0.85486504  0.62271344  0.08543953  1
  O  O64  1  0.45905150  0.87438614  0.94121743  1
  O  O65  1  0.54505847  0.81412395  0.55870418  1
  O  O66  1  0.54505847  0.18587605  0.05870418  1
  O  O67  1  0.45905150  0.12561386  0.44121743  1
  O  O68  1  0.95905150  0.37438614  0.94121743  1
  O  O69  1  0.04505847  0.31412395  0.55870418  1
  O  O70  1  0.04505847  0.68587605  0.05870418  1
  O  O71  1  0.95905150  0.62561386  0.44121743  1
  O  O72  1  0.05776477  0.84996898  0.74028978  1
  O  O73  1  0.90134722  0.86814306  0.75083070  1
  O  O74  1  0.90134722  0.13185694  0.25083070  1
  O  O75  1  0.05776477  0.15003102  0.24028978  1
  O  O76  1  0.55776477  0.34996898  0.74028978  1
  O  O77  1  0.40134722  0.36814306  0.75083070  1
  O  O78  1  0.40134722  0.63185694  0.25083070  1
  O  O79  1  0.55776477  0.65003102  0.24028978  1
