# generated using pymatgen
data_NaZrScP2SO12
_symmetry_space_group_name_H-M   'P 1'
_cell_length_a   8.87966617
_cell_length_b   8.88083536
_cell_length_c   23.32698158
_cell_angle_alpha   90.05745258
_cell_angle_beta   90.00000000
_cell_angle_gamma   119.99564500
_symmetry_Int_Tables_number   1
_chemical_formula_structural   NaZrScP2SO12
_chemical_formula_sum   'Na6 Zr6 Sc6 P12 S6 O72'
_cell_volume   1593.15636004
_cell_formula_units_Z   6
loop_
 _symmetry_equiv_pos_site_id
 _symmetry_equiv_pos_as_xyz
  1  'x, y, z'
loop_
 _atom_site_type_symbol
 _atom_site_label
 _atom_site_symmetry_multiplicity
 _atom_site_fract_x
 _atom_site_fract_y
 _atom_site_fract_z
 _atom_site_occupancy
  Na  Na0  1  0.98998605  0.99371150  0.50252074  1
  Na  Na1  1  0.00372545  0.99371150  0.00252074  1
  Na  Na2  1  0.65665305  0.32704450  0.83585374  1
  Na  Na3  1  0.67039245  0.32704450  0.33585374  1
  Na  Na4  1  0.32331905  0.66037850  0.16918774  1
  Na  Na5  1  0.33705845  0.66037850  0.66918774  1
  Zr  Zr6  1  -0.00001833  0.00297551  0.35294979  1
  Zr  Zr7  1  0.00299384  0.00297551  0.85294979  1
  Zr  Zr8  1  0.66664867  0.33630851  0.68628279  1
  Zr  Zr9  1  0.66966084  0.33630851  0.18628279  1
  Zr  Zr10  1  0.33331467  0.66964251  0.01961679  1
  Zr  Zr11  1  0.33632684  0.66964251  0.51961679  1
  Sc  Sc12  1  0.99073937  0.00732073  0.64769133  1
  Sc  Sc13  1  0.01658136  0.00732073  0.14769133  1
  Sc  Sc14  1  0.65740637  0.34065373  0.98102433  1
  Sc  Sc15  1  0.68324836  0.34065373  0.48102433  1
  Sc  Sc16  1  0.32407237  0.67398773  0.31435833  1
  Sc  Sc17  1  0.34991436  0.67398773  0.81435833  1
  P  P18  1  0.29122273  0.99915644  0.24961477  1
  P  P19  1  0.00423148  0.29267411  0.24895743  1
  P  P20  1  0.28844263  0.29267411  0.74895743  1
  P  P21  1  0.70793371  0.99915644  0.74961477  1
  P  P22  1  0.95788973  0.33248944  0.58294777  1
  P  P23  1  0.67089848  0.62600711  0.58229043  1
  P  P24  1  0.95510963  0.62600711  0.08229043  1
  P  P25  1  0.37460071  0.33248944  0.08294777  1
  P  P26  1  0.62455573  0.66582344  0.91628177  1
  P  P27  1  0.33756448  0.95934111  0.91562443  1
  P  P28  1  0.62177563  0.95934111  0.41562443  1
  P  P29  1  0.04126671  0.66582344  0.41628177  1
  S  S30  1  0.70739186  0.71132413  0.24925095  1
  S  S31  1  0.00393227  0.71132413  0.74925095  1
  S  S32  1  0.37405886  0.04465713  0.58258395  1
  S  S33  1  0.67059927  0.04465713  0.08258395  1
  S  S34  1  0.04072486  0.37799113  0.91591795  1
  S  S35  1  0.33726527  0.37799113  0.41591795  1
  O  O36  1  0.20408969  0.02585846  0.30357695  1
  O  O37  1  0.81580509  0.78953274  0.30161457  1
  O  O38  1  0.97323354  0.17781161  0.30337335  1
  O  O39  1  0.20457807  0.17781161  0.80337335  1
  O  O40  1  0.97372765  0.78953274  0.80161457  1
  O  O41  1  0.82176877  0.02585846  0.80357695  1
  O  O42  1  0.79231706  0.97171888  0.69650956  1
  O  O43  1  0.17917617  0.20252434  0.69598396  1
  O  O44  1  0.02628165  0.81501503  0.69796111  1
  O  O45  1  0.78873338  0.81501503  0.19796111  1
  O  O46  1  0.02334817  0.20252434  0.19598396  1
  O  O47  1  0.17940181  0.97171888  0.19650956  1
  O  O48  1  0.87075669  0.35919146  0.63690995  1
  O  O49  1  0.48247209  0.12286574  0.63494757  1
  O  O50  1  0.63990054  0.51114461  0.63670635  1
  O  O51  1  0.87124507  0.51114461  0.13670635  1
  O  O52  1  0.64039465  0.12286574  0.13494757  1
  O  O53  1  0.48843577  0.35919146  0.13690995  1
  O  O54  1  0.45898406  0.30505188  0.02984256  1
  O  O55  1  0.84584317  0.53585734  0.02931696  1
  O  O56  1  0.69294865  0.14834803  0.03129411  1
  O  O57  1  0.45540038  0.14834803  0.53129411  1
  O  O58  1  0.69001517  0.53585734  0.52931696  1
  O  O59  1  0.84606881  0.30505188  0.52984256  1
  O  O60  1  0.53742269  0.69252546  0.97024395  1
  O  O61  1  0.14913809  0.45619974  0.96828157  1
  O  O62  1  0.30656654  0.84447861  0.97004035  1
  O  O63  1  0.53791107  0.84447861  0.47004035  1
  O  O64  1  0.30706065  0.45619974  0.46828157  1
  O  O65  1  0.15510177  0.69252546  0.47024395  1
  O  O66  1  0.12565006  0.63838588  0.36317656  1
  O  O67  1  0.51250917  0.86919134  0.36265096  1
  O  O68  1  0.35961465  0.48168203  0.36462811  1
  O  O69  1  0.12206638  0.48168203  0.86462811  1
  O  O70  1  0.35668117  0.86919134  0.86265096  1
  O  O71  1  0.51273481  0.63838588  0.86317656  1
  O  O72  1  0.02456131  0.83137420  0.40959130  1
  O  O73  1  0.80561649  0.97687532  0.40971380  1
  O  O74  1  0.17667000  0.20197057  0.41101647  1
  O  O75  1  0.02530057  0.20197057  0.91101647  1
  O  O76  1  0.17125883  0.97687532  0.90971380  1
  O  O77  1  0.80681289  0.83137420  0.90959130  1
  O  O78  1  0.98008802  0.17254463  0.58928342  1
  O  O79  1  0.19979692  0.02183380  0.59015536  1
  O  O80  1  0.83208803  0.80577801  0.59023513  1
  O  O81  1  0.97368998  0.80577801  0.09023513  1
  O  O82  1  0.82203687  0.02183380  0.09015536  1
  O  O83  1  0.19245662  0.17254463  0.08928342  1
  O  O84  1  0.69122831  0.16470720  0.74292430  1
  O  O85  1  0.47228349  0.31020832  0.74304680  1
  O  O86  1  0.84333700  0.53530357  0.74434947  1
  O  O87  1  0.69196757  0.53530357  0.24434947  1
  O  O88  1  0.83792583  0.31020832  0.24304680  1
  O  O89  1  0.47347989  0.16470720  0.24292430  1
  O  O90  1  0.64675502  0.50587763  0.92261642  1
  O  O91  1  0.86646392  0.35516680  0.92348836  1
  O  O92  1  0.49875503  0.13911101  0.92356813  1
  O  O93  1  0.64035698  0.13911101  0.42356813  1
  O  O94  1  0.48870387  0.35516680  0.42348836  1
  O  O95  1  0.85912362  0.50587763  0.42261642  1
  O  O96  1  0.35789431  0.49804120  0.07625830  1
  O  O97  1  0.13894949  0.64354232  0.07638080  1
  O  O98  1  0.51000300  0.86863757  0.07768347  1
  O  O99  1  0.35863357  0.86863757  0.57768347  1
  O  O100  1  0.50459183  0.64354232  0.57638080  1
  O  O101  1  0.14014589  0.49804120  0.57625830  1
  O  O102  1  0.31342102  0.83921163  0.25595042  1
  O  O103  1  0.53312992  0.68850080  0.25682236  1
  O  O104  1  0.16542103  0.47244501  0.25690213  1
  O  O105  1  0.30702298  0.47244501  0.75690213  1
  O  O106  1  0.15536987  0.68850080  0.75682236  1
  O  O107  1  0.52578962  0.83921163  0.75595042  1
