# generated using pymatgen
data_Na2ZrNbSi2PO12
_symmetry_space_group_name_H-M   'P 1'
_cell_length_a   9.04306918
_cell_length_b   9.04306887
_cell_length_c   23.02105434
_cell_angle_alpha   90.08605292
_cell_angle_beta   89.91394709
_cell_angle_gamma   119.70299720
_symmetry_Int_Tables_number   1
_chemical_formula_structural   Na2ZrNbSi2PO12
_chemical_formula_sum   'Na12 Zr6 Nb6 Si12 P6 O72'
_cell_volume   1635.23008632
_cell_formula_units_Z   6
loop_
 _symmetry_equiv_pos_site_id
 _symmetry_equiv_pos_as_xyz
  1  'x, y, z'
loop_
 _atom_site_type_symbol
 _atom_site_label
 _atom_site_symmetry_multiplicity
 _atom_site_fract_x
 _atom_site_fract_y
 _atom_site_fract_z
 _atom_site_occupancy
  Na  Na0  1  0.99398639  0.63003370  0.25057496  1
  Na  Na1  1  0.36996630  0.00601361  0.75057496  1
  Na  Na2  1  0.66065339  0.96336670  0.58390796  1
  Na  Na3  1  0.03663330  0.33934661  0.08390796  1
  Na  Na4  1  0.32731939  0.29670070  0.91724196  1
  Na  Na5  1  0.70329930  0.67268061  0.41724196  1
  Na  Na6  1  0.01435450  0.00328925  0.49870221  1
  Na  Na7  1  0.99671075  0.98564550  0.99870221  1
  Na  Na8  1  0.68102150  0.33662225  0.83203521  1
  Na  Na9  1  0.66337775  0.31897850  0.33203521  1
  Na  Na10  1  0.34768750  0.66995625  0.16536921  1
  Na  Na11  1  0.33004375  0.65231250  0.66536921  1
  Zr  Zr12  1  0.99735625  0.00273747  0.35338258  1
  Zr  Zr13  1  0.99726253  0.00264375  0.85338258  1
  Zr  Zr14  1  0.66402325  0.33607047  0.68671558  1
  Zr  Zr15  1  0.66392953  0.33597675  0.18671558  1
  Zr  Zr16  1  0.33068925  0.66940447  0.02004958  1
  Zr  Zr17  1  0.33059553  0.66931075  0.52004958  1
  Nb  Nb18  1  0.00074555  0.99931555  0.64657595  1
  Nb  Nb19  1  0.00068445  0.99925445  0.14657595  1
  Nb  Nb20  1  0.66741255  0.33264855  0.97990895  1
  Nb  Nb21  1  0.66735145  0.33258745  0.47990895  1
  Nb  Nb22  1  0.33407855  0.66598255  0.31324295  1
  Nb  Nb23  1  0.33401745  0.66592145  0.81324295  1
  Si  Si24  1  0.70722877  0.71249247  0.25088209  1
  Si  Si25  1  0.00200079  0.29224979  0.24944957  1
  Si  Si26  1  0.28750753  0.29277123  0.75088209  1
  Si  Si27  1  0.70775021  0.99799921  0.74944957  1
  Si  Si28  1  0.37389577  0.04582547  0.58421509  1
  Si  Si29  1  0.66866779  0.62558279  0.58278257  1
  Si  Si30  1  0.95417453  0.62610423  0.08421509  1
  Si  Si31  1  0.37441721  0.33133221  0.08278257  1
  Si  Si32  1  0.04056177  0.37915947  0.91754909  1
  Si  Si33  1  0.33533379  0.95891679  0.91611657  1
  Si  Si34  1  0.62084053  0.95943823  0.41754909  1
  Si  Si35  1  0.04108321  0.66466621  0.41611657  1
  P  P36  1  0.28878637  -0.00148715  0.25039540  1
  P  P37  1  0.00148715  0.71121363  0.75039540  1
  P  P38  1  0.95545337  0.33184585  0.58372840  1
  P  P39  1  0.66815415  0.04454663  0.08372840  1
  P  P40  1  0.62211937  0.66517985  0.91706240  1
  P  P41  1  0.33482015  0.37788063  0.41706240  1
  O  O42  1  0.20635194  0.02337358  0.30439472  1
  O  O43  1  0.82584231  0.79276401  0.30806594  1
  O  O44  1  0.97767110  0.17618653  0.30530529  1
  O  O45  1  0.20723599  0.17415769  0.80806594  1
  O  O46  1  0.97662642  0.79364806  0.80439472  1
  O  O47  1  0.82381347  0.02232890  0.80530529  1
  O  O48  1  0.80025984  0.97101005  0.69075163  1
  O  O49  1  0.16308641  0.19035795  0.69418077  1
  O  O50  1  0.03090517  0.82887363  0.69595296  1
  O  O51  1  0.80964205  0.83691359  0.19418077  1
  O  O52  1  0.02898995  0.19974016  0.19075163  1
  O  O53  1  0.17112637  0.96909483  0.19595296  1
  O  O54  1  0.87301894  0.35670658  0.63772772  1
  O  O55  1  0.49250931  0.12609701  0.64139894  1
  O  O56  1  0.64433810  0.50951953  0.63863829  1
  O  O57  1  0.87390299  0.50749069  0.14139894  1
  O  O58  1  0.64329342  0.12698106  0.13772772  1
  O  O59  1  0.49048047  0.35566190  0.13863829  1
  O  O60  1  0.46692684  0.30434305  0.02408463  1
  O  O61  1  0.82975341  0.52369095  0.02751377  1
  O  O62  1  0.69757217  0.16220663  0.02928596  1
  O  O63  1  0.47630905  0.17024659  0.52751377  1
  O  O64  1  0.69565695  0.53307316  0.52408463  1
  O  O65  1  0.83779337  0.30242783  0.52928596  1
  O  O66  1  0.53968494  0.69004058  0.97106172  1
  O  O67  1  0.15917531  0.45943101  0.97473294  1
  O  O68  1  0.31100410  0.84285353  0.97197229  1
  O  O69  1  0.54056899  0.84082469  0.47473294  1
  O  O70  1  0.30995942  0.46031506  0.47106172  1
  O  O71  1  0.15714647  0.68899590  0.47197229  1
  O  O72  1  0.13359284  0.63767705  0.35741863  1
  O  O73  1  0.49641941  0.85702495  0.36084777  1
  O  O74  1  0.36423817  0.49554063  0.36261996  1
  O  O75  1  0.14297505  0.50358059  0.86084777  1
  O  O76  1  0.36232295  0.86640716  0.85741863  1
  O  O77  1  0.50445937  0.63576183  0.86261996  1
  O  O78  1  0.01131470  0.82701457  0.41127355  1
  O  O79  1  0.80706322  0.97432434  0.41039882  1
  O  O80  1  0.18292919  0.19970101  0.41011661  1
  O  O81  1  0.02567566  0.19293678  0.91039882  1
  O  O82  1  0.17298543  0.98868530  0.91127355  1
  O  O83  1  0.80029899  0.81707081  0.91011661  1
  O  O84  1  0.96246507  0.16245017  0.58858735  1
  O  O85  1  0.18505004  0.02869051  0.59070433  1
  O  O86  1  0.83934615  0.81806631  0.59030526  1
  O  O87  1  0.97130949  0.81494996  0.09070433  1
  O  O88  1  0.83754983  0.03753493  0.08858735  1
  O  O89  1  0.18193369  0.16065385  0.09030526  1
  O  O90  1  0.67798170  0.16034757  0.74460655  1
  O  O91  1  0.47373022  0.30765734  0.74373182  1
  O  O92  1  0.84959619  0.53303401  0.74344961  1
  O  O93  1  0.69234266  0.52626978  0.24373182  1
  O  O94  1  0.83965243  0.32201830  0.24460655  1
  O  O95  1  0.46696599  0.15040381  0.24344961  1
  O  O96  1  0.62913207  0.49578317  0.92192035  1
  O  O97  1  0.85171704  0.36202351  0.92403733  1
  O  O98  1  0.50601315  0.15139931  0.92363826  1
  O  O99  1  0.63797649  0.14828296  0.42403733  1
  O  O100  1  0.50421683  0.37086793  0.42192035  1
  O  O101  1  0.84860069  0.49398685  0.42363826  1
  O  O102  1  0.34464770  0.49368157  0.07794055  1
  O  O103  1  0.14039622  0.64099134  0.07706582  1
  O  O104  1  0.51626219  0.86636801  0.07678361  1
  O  O105  1  0.35900866  0.85960378  0.57706582  1
  O  O106  1  0.50631843  0.65535230  0.57794055  1
  O  O107  1  0.13363199  0.48373781  0.57678361  1
  O  O108  1  0.29579807  0.82911717  0.25525435  1
  O  O109  1  0.51838304  0.69535751  0.25737133  1
  O  O110  1  0.17267915  0.48473331  0.25697226  1
  O  O111  1  0.30464249  0.48161696  0.75737133  1
  O  O112  1  0.17088283  0.70420193  0.75525435  1
  O  O113  1  0.51526669  0.82732085  0.75697226  1
