# generated using pymatgen
data_Na6MgSi2Sn3(PO6)4
_symmetry_space_group_name_H-M   'P 1'
_cell_length_a   15.58602578
_cell_length_b   8.98851276
_cell_length_c   9.04520092
_cell_angle_alpha   89.91809249
_cell_angle_beta   124.80513985
_cell_angle_gamma   89.99392674
_symmetry_Int_Tables_number   1
_chemical_formula_structural   Na6MgSi2Sn3(PO6)4
_chemical_formula_sum   'Na12 Mg2 Si4 Sn6 P8 O48'
_cell_volume   1040.48477228
_cell_formula_units_Z   2
loop_
 _symmetry_equiv_pos_site_id
 _symmetry_equiv_pos_as_xyz
  1  'x, y, z'
loop_
 _atom_site_type_symbol
 _atom_site_label
 _atom_site_symmetry_multiplicity
 _atom_site_fract_x
 _atom_site_fract_y
 _atom_site_fract_z
 _atom_site_occupancy
  Na  Na0  1  0.25107335  0.74978024  0.00144851  1
  Na  Na1  1  0.74506821  0.74537971  0.48301479  1
  Na  Na2  1  0.75107335  0.24978024  0.00144851  1
  Na  Na3  1  0.24506821  0.24537971  0.48301479  1
  Na  Na4  1  0.50645839  0.08796405  0.76072602  1
  Na  Na5  1  0.49938841  0.89281019  0.24005537  1
  Na  Na6  1  0.00645839  0.58796405  0.76072602  1
  Na  Na7  1  0.99938841  0.39281019  0.24005537  1
  Na  Na8  1  0.80234014  0.92102432  0.20575583  1
  Na  Na9  1  0.18405637  0.08490674  0.80656894  1
  Na  Na10  1  0.30234014  0.42102432  0.20575583  1
  Na  Na11  1  0.68405637  0.58490674  0.80656894  1
  Mg  Mg12  1  0.10387969  0.24486957  0.06070946  1
  Mg  Mg13  1  0.60387969  0.74486957  0.06070946  1
  Si  Si14  1  0.65074858  0.89878191  0.75023641  1
  Si  Si15  1  0.35211826  0.10039111  0.25532457  1
  Si  Si16  1  0.15074858  0.39878191  0.75023641  1
  Si  Si17  1  0.85211826  0.60039111  0.25532457  1
  Sn  Sn18  1  0.10437528  0.75126290  0.56026286  1
  Sn  Sn19  1  0.89745941  0.75321613  0.93906672  1
  Sn  Sn20  1  0.89786679  0.25083809  0.44464629  1
  Sn  Sn21  1  0.60437528  0.25126290  0.56026286  1
  Sn  Sn22  1  0.39745941  0.25321613  0.93906672  1
  Sn  Sn23  1  0.39786679  0.75083809  0.44464629  1
  P  P24  1  0.99693610  0.95699054  0.74705994  1
  P  P25  1  0.00214676  0.04540564  0.25584654  1
  P  P26  1  0.49693610  0.45699054  0.74705994  1
  P  P27  1  0.50214676  0.54540564  0.25584654  1
  P  P28  1  0.35490610  0.89604283  0.75925057  1
  P  P29  1  0.64780130  0.10753910  0.24646344  1
  P  P30  1  0.85490610  0.39604283  0.75925057  1
  P  P31  1  0.14780130  0.60753910  0.24646344  1
  O  O32  1  0.15634826  0.58240280  0.74330132  1
  O  O33  1  0.85026741  0.57147660  0.75500545  1
  O  O34  1  0.85057066  0.41603248  0.25792458  1
  O  O35  1  0.15075487  0.43730227  0.24166471  1
  O  O36  1  0.65634826  0.08240280  0.74330132  1
  O  O37  1  0.35026741  0.07147660  0.75500545  1
  O  O38  1  0.35057066  0.91603248  0.25792458  1
  O  O39  1  0.65075487  0.93730227  0.24166471  1
  O  O40  1  0.42537783  0.54135465  0.56423898  1
  O  O41  1  0.55771892  0.56082659  0.90533157  1
  O  O42  1  0.57037219  0.45487775  0.43299583  1
  O  O43  1  0.43613844  0.44016639  0.09241720  1
  O  O44  1  0.92537783  0.04135465  0.56423898  1
  O  O45  1  0.05771892  0.06082659  0.90533157  1
  O  O46  1  0.07037219  0.95487775  0.43299583  1
  O  O47  1  0.93613844  0.94016639  0.09241720  1
  O  O48  1  0.25502968  0.84067483  0.74338567  1
  O  O49  1  0.74709827  0.81756453  0.75401771  1
  O  O50  1  0.74385431  0.17194282  0.25668310  1
  O  O51  1  0.25611395  0.18086679  0.24090075  1
  O  O52  1  0.75502968  0.34067483  0.74338567  1
  O  O53  1  0.24709827  0.31756453  0.75401771  1
  O  O54  1  0.24385431  0.67194282  0.25668310  1
  O  O55  1  0.75611395  0.68086679  0.24090075  1
  O  O56  1  0.35195282  0.85898360  0.58824376  1
  O  O57  1  0.64845817  0.86247904  0.92185894  1
  O  O58  1  0.64761201  0.15110665  0.41092276  1
  O  O59  1  0.35616417  0.12924059  0.07666973  1
  O  O60  1  0.85195282  0.35898360  0.58824376  1
  O  O61  1  0.14845817  0.36247904  0.92185894  1
  O  O62  1  0.14761201  0.65110665  0.41092276  1
  O  O63  1  0.85616417  0.62924059  0.07666973  1
  O  O64  1  0.45195420  0.83910665  0.93181632  1
  O  O65  1  0.54583923  0.82781556  0.56469356  1
  O  O66  1  0.54979507  0.17085175  0.06830968  1
  O  O67  1  0.46033742  0.16541883  0.43624383  1
  O  O68  1  0.95195420  0.33910665  0.93181632  1
  O  O69  1  0.04583923  0.32781556  0.56469356  1
  O  O70  1  0.04979507  0.67085175  0.06830968  1
  O  O71  1  0.96033742  0.66541883  0.43624383  1
  O  O72  1  0.08160915  0.86302498  0.74372937  1
  O  O73  1  0.92523462  0.84161561  0.75520997  1
  O  O74  1  0.91430915  0.13170060  0.25683742  1
  O  O75  1  0.07046607  0.15596460  0.24116156  1
  O  O76  1  0.58160915  0.36302498  0.74372937  1
  O  O77  1  0.42523462  0.34161561  0.75520997  1
  O  O78  1  0.41430915  0.63170060  0.25683742  1
  O  O79  1  0.57046607  0.65596460  0.24116156  1
