# generated using pymatgen
data_Na2La4Nb4Si5S7O48
_symmetry_space_group_name_H-M   'P 1'
_cell_length_a   18.49945871
_cell_length_b   9.26981286
_cell_length_c   24.03666103
_cell_angle_alpha   89.90679959
_cell_angle_beta   89.99851346
_cell_angle_gamma   120.18768549
_symmetry_Int_Tables_number   1
_chemical_formula_structural   Na2La4Nb4Si5S7O48
_chemical_formula_sum   'Na6 La12 Nb12 Si15 S21 O144'
_cell_volume   3562.94821030
_cell_formula_units_Z   3
loop_
 _symmetry_equiv_pos_site_id
 _symmetry_equiv_pos_as_xyz
  1  'x, y, z'
loop_
 _atom_site_type_symbol
 _atom_site_label
 _atom_site_symmetry_multiplicity
 _atom_site_fract_x
 _atom_site_fract_y
 _atom_site_fract_z
 _atom_site_occupancy
  Na  Na0  1  0.00102707  0.99051545  0.49599986  1
  Na  Na1  1  0.49804196  0.00737961  0.99480305  1
  Na  Na2  1  0.33310428  0.31655589  0.84174543  1
  Na  Na3  1  0.83327854  0.33422352  0.83401161  1
  Na  Na4  1  0.33147265  0.32989841  0.33003402  1
  Na  Na5  1  0.84323795  0.35021773  0.33331066  1
  La  La6  1  0.00717007  0.98810066  0.35382003  1
  La  La7  1  0.50488994  0.02446624  0.85459934  1
  La  La8  1  0.00318852  0.00344320  0.65006486  1
  La  La9  1  0.50283659  0.00201861  0.14838867  1
  La  La10  1  0.32439271  0.32487873  0.98090371  1
  La  La11  1  0.84468113  0.33679084  0.98639048  1
  La  La12  1  0.34372861  0.35179206  0.48692724  1
  La  La13  1  0.82789378  0.32676783  0.48229868  1
  La  La14  1  0.15708993  0.67518839  0.30495301  1
  La  La15  1  0.67183748  0.67061985  0.30229880  1
  La  La16  1  0.17128141  0.67730078  0.80346517  1
  La  La17  1  0.65715599  0.63870858  0.80488629  1
  Nb  Nb18  1  0.50562872  0.01866798  0.34873797  1
  Nb  Nb19  1  0.01209281  0.99272207  0.85284425  1
  Nb  Nb20  1  0.50345282  0.01076612  0.64170061  1
  Nb  Nb21  1  0.00512390  0.00056890  0.14088198  1
  Nb  Nb22  1  0.33411149  0.34972700  0.68284194  1
  Nb  Nb23  1  0.83001615  0.32429018  0.69009532  1
  Nb  Nb24  1  0.32849922  0.32766315  0.18470741  1
  Nb  Nb25  1  0.83372278  0.31995998  0.18099937  1
  Nb  Nb26  1  0.15740428  0.66113400  0.02329557  1
  Nb  Nb27  1  0.67017008  0.66773245  0.02046214  1
  Nb  Nb28  1  0.16928221  0.67122142  0.52158422  1
  Nb  Nb29  1  0.65980832  0.67366599  0.52827533  1
  Si  Si30  1  0.14473903  0.01288621  0.24450864  1
  Si  Si31  1  0.65525372  0.02948204  0.24972518  1
  Si  Si32  1  0.48786370  0.28431487  0.24834711  1
  Si  Si33  1  0.15409213  0.28184947  0.75062007  1
  Si  Si34  1  0.64413607  0.27652626  0.74487329  1
  Si  Si35  1  0.98951863  0.69710482  0.74987335  1
  Si  Si36  1  0.47895337  0.33229537  0.58630126  1
  Si  Si37  1  0.68675873  0.04262321  0.58749660  1
  Si  Si38  1  0.33242516  0.63629362  0.58626728  1
  Si  Si39  1  0.97996198  0.62815345  0.08610033  1
  Si  Si40  1  0.83243683  0.02712886  0.08606617  1
  Si  Si41  1  0.18631685  0.34382844  0.08561952  1
  Si  Si42  1  0.52178899  0.37506387  0.92110006  1
  Si  Si43  1  0.16381818  0.94608325  0.91687330  1
  Si  Si44  1  0.02129839  0.66769063  0.42114485  1
  S  S45  1  0.35915324  0.69586640  0.25316800  1
  S  S46  1  0.86116875  0.69823120  0.24160754  1
  S  S47  1  0.99071062  0.27747740  0.24375095  1
  S  S48  1  0.49155257  0.70578914  0.74344756  1
  S  S49  1  0.36121961  0.02373276  0.74050434  1
  S  S50  1  0.85692078  0.01872943  0.75197760  1
  S  S51  1  0.98758173  0.35248826  0.58253791  1
  S  S52  1  0.18924258  0.02987006  0.58122676  1
  S  S53  1  0.82363712  0.62338323  0.58235969  1
  S  S54  1  0.48769702  0.62129746  0.08211968  1
  S  S55  1  0.32378801  0.02822110  0.08398924  1
  S  S56  1  0.69040743  0.34940270  0.08140746  1
  S  S57  1  0.31074614  0.67815010  0.92228901  1
  S  S58  1  0.81546978  0.68123849  0.91682309  1
  S  S59  1  0.02628468  0.36701645  0.91593197  1
  S  S60  1  0.66538765  0.94658546  0.92068403  1
  S  S61  1  0.31654510  0.95113462  0.41656678  1
  S  S62  1  0.80937078  0.94208427  0.42266582  1
  S  S63  1  0.16545028  0.38460057  0.42102868  1
  S  S64  1  0.65703411  0.36592705  0.41616767  1
  S  S65  1  0.52828192  0.68575684  0.41655862  1
  O  O66  1  0.11999869  0.06076228  0.30323633  1
  O  O67  1  0.59529944  0.04421494  0.30554752  1
  O  O68  1  0.41611305  0.78768811  0.30187852  1
  O  O69  1  0.90535472  0.76057063  0.29572327  1
  O  O70  1  0.47792408  0.15044538  0.30556348  1
  O  O71  1  0.97508964  0.18823347  0.29713569  1
  O  O72  1  0.09783332  0.14917325  0.80588669  1
  O  O73  1  0.61856178  0.17747564  0.80312064  1
  O  O74  1  0.47622044  0.76389151  0.79677316  1
  O  O75  1  0.97803350  0.80296615  0.80559401  1
  O  O76  1  0.40561493  0.05137829  0.79434427  1
  O  O77  1  0.91115275  0.04559236  0.80014556  1
  O  O78  1  0.40993652  0.00723269  0.69490353  1
  O  O79  1  0.88871294  0.99403389  0.69949618  1
  O  O80  1  0.10007497  0.20760424  0.69583701  1
  O  O81  1  0.58145545  0.16077757  0.69536055  1
  O  O82  1  0.99846224  0.79837910  0.69470324  1
  O  O83  1  0.49566252  0.80921894  0.69628762  1
  O  O84  1  0.39071888  0.78888395  0.20150168  1
  O  O85  1  0.90786763  0.81193678  0.19582428  1
  O  O86  1  0.99532601  0.18253649  0.19677032  1
  O  O87  1  0.50094327  0.19995567  0.19544060  1
  O  O88  1  0.08053284  0.00104627  0.19604884  1
  O  O89  1  0.59909464  0.99061453  0.19622605  1
  O  O90  1  0.42753117  0.36401484  0.63672409  1
  O  O91  1  0.94663865  0.37303685  0.63264562  1
  O  O92  1  0.23990996  0.11294412  0.63125735  1
  O  O93  1  0.75706667  0.14284849  0.63740376  1
  O  O94  1  0.31439492  0.49495365  0.63843131  1
  O  O95  1  0.81249836  0.51885347  0.63172676  1
  O  O96  1  0.44608772  0.51752866  0.13275803  1
  O  O97  1  0.92596363  0.49154937  0.13725841  1
  O  O98  1  0.31650017  0.12212352  0.13374457  1
  O  O99  1  0.81462093  0.13392643  0.13872956  1
  O  O100  1  0.25729908  0.37406461  0.13752600  1
  O  O101  1  0.74138268  0.36540465  0.13186953  1
  O  O102  1  0.21529568  0.28343890  0.03362627  1
  O  O103  1  0.72602321  0.32098966  0.03117663  1
  O  O104  1  0.43780480  0.54717282  0.03240851  1
  O  O105  1  0.92675644  0.56944661  0.03078967  1
  O  O106  1  0.34205598  0.12932251  0.03407458  1
  O  O107  1  0.85661205  0.14625755  0.03351401  1
  O  O108  1  0.22530012  0.12897866  0.53061163  1
  O  O109  1  0.71593736  0.14214247  0.53092508  1
  O  O110  1  0.35638617  0.56773580  0.53298628  1
  O  O111  1  0.83954305  0.55516470  0.53204398  1
  O  O112  1  0.42936053  0.28903015  0.52942713  1
  O  O113  1  0.93769234  0.32905856  0.53241720  1
  O  O114  1  0.25998433  0.67895416  0.97159440  1
  O  O115  1  0.77083938  0.69439745  0.96899412  1
  O  O116  1  0.07325858  0.45133615  0.96959744  1
  O  O117  1  0.58798908  0.49809203  0.97490448  1
  O  O118  1  0.15347463  0.82376725  0.97329716  1
  O  O119  1  0.66603858  0.84688969  0.97175304  1
  O  O120  1  0.27348095  0.84942414  0.46847903  1
  O  O121  1  0.75796537  0.83710516  0.47211852  1
  O  O122  1  0.16570787  0.48486116  0.47179160  1
  O  O123  1  0.64640143  0.44302300  0.46668801  1
  O  O124  1  0.08677356  0.67548417  0.47481461  1
  O  O125  1  0.57664252  0.69490154  0.47021704  1
  O  O126  1  0.06408307  0.65695690  0.36416159  1
  O  O127  1  0.56949815  0.66031264  0.36922476  1
  O  O128  1  0.26470651  0.87243364  0.36726273  1
  O  O129  1  0.76739397  0.86405828  0.37080770  1
  O  O130  1  0.17168909  0.47404703  0.36972546  1
  O  O131  1  0.67073379  0.46625733  0.36622002  1
  O  O132  1  0.06672256  0.47273170  0.86808229  1
  O  O133  1  0.56632314  0.47098761  0.86420172  1
  O  O134  1  0.17386394  0.86414631  0.86241867  1
  O  O135  1  0.67169937  0.86956895  0.86957387  1
  O  O136  1  0.26949906  0.66922748  0.86976981  1
  O  O137  1  0.76356043  0.65595313  0.86758127  1
  O  O138  1  0.01929215  0.84186770  0.42592604  1
  O  O139  1  0.52294428  0.83989687  0.41052808  1
  O  O140  1  0.39931969  0.95912214  0.40917676  1
  O  O141  1  0.89313921  0.95844071  0.42594527  1
  O  O142  1  0.08607436  0.22192287  0.42443852  1
  O  O143  1  0.57620863  0.19466801  0.40652158  1
  O  O144  1  0.01982349  0.20059172  0.91004225  1
  O  O145  1  0.52063417  0.19751260  0.92610339  1
  O  O146  1  0.07283706  0.95406024  0.90557620  1
  O  O147  1  0.58613681  0.94969399  0.92431454  1
  O  O148  1  0.39452199  0.83279168  0.92526353  1
  O  O149  1  0.89718772  0.83805730  0.91105393  1
  O  O150  1  0.50031416  0.18541946  0.60236009  1
  O  O151  1  0.00095969  0.20919733  0.58641679  1
  O  O152  1  0.10239650  0.99392277  0.58548818  1
  O  O153  1  0.59171342  0.99740159  0.60422620  1
  O  O154  1  0.40767469  0.81743976  0.60708217  1
  O  O155  1  0.89198793  0.79708795  0.58814934  1
  O  O156  1  0.50137212  0.79172138  0.08750349  1
  O  O157  1  -0.00011204  0.81650427  0.10292262  1
  O  O158  1  0.39276820  0.99448426  0.09192177  1
  O  O159  1  0.90804500  0.99878630  0.10759071  1
  O  O160  1  0.09216156  0.19034287  0.10516380  1
  O  O161  1  0.60373701  0.21080073  0.08647974  1
  O  O162  1  0.35168688  0.17351400  0.73110327  1
  O  O163  1  0.85290614  0.18284024  0.74474206  1
  O  O164  1  0.24628811  0.28739732  0.73766620  1
  O  O165  1  0.73908892  0.29675833  0.72931770  1
  O  O166  1  0.41473356  0.52857865  0.73507472  1
  O  O167  1  0.90118197  0.50958070  0.73751966  1
  O  O168  1  0.35565525  0.52851677  0.24709548  1
  O  O169  1  0.85160920  0.52907913  0.23312860  1
  O  O170  1  0.40173874  0.29643042  0.23872341  1
  O  O171  1  0.91421831  0.30146790  0.23532192  1
  O  O172  1  0.23995897  0.18173300  0.22848627  1
  O  O173  1  0.74660170  0.20642508  0.23967191  1
  O  O174  1  0.32223534  0.53205725  0.92472800  1
  O  O175  1  0.82662770  0.53466805  0.92285316  1
  O  O176  1  0.43057426  0.35535730  0.92298450  1
  O  O177  1  0.93997458  0.34123528  0.91948262  1
  O  O178  1  0.23554020  0.13708773  0.92055238  1
  O  O179  1  0.73798268  0.11777755  0.92447023  1
  O  O180  1  0.32925075  0.12111181  0.42218754  1
  O  O181  1  0.81774686  0.10905893  0.42472937  1
  O  O182  1  0.23787191  0.35854322  0.42472676  1
  O  O183  1  0.72610173  0.33040201  0.42041019  1
  O  O184  1  0.44248269  0.53953652  0.42041314  1
  O  O185  1  0.92797950  0.50509848  0.42276621  1
  O  O186  1  0.17791077  0.51020789  0.07061430  1
  O  O187  1  0.68808396  0.50929257  0.07433962  1
  O  O188  1  0.07111326  0.63750765  0.07183420  1
  O  O189  1  0.57346873  0.63789240  0.07499699  1
  O  O190  1  0.24416471  0.86475423  0.07775576  1
  O  O191  1  0.74808217  0.84644862  0.07098019  1
  O  O192  1  0.18669279  0.86412049  0.57319913  1
  O  O193  1  0.67707168  0.85095083  0.57270906  1
  O  O194  1  0.24796798  0.64897444  0.57025785  1
  O  O195  1  0.74314481  0.63003661  0.57181989  1
  O  O196  1  0.07345449  0.50797471  0.57481696  1
  O  O197  1  0.57265487  0.50651191  0.57015290  1
  O  O198  1  0.15926081  0.85787695  0.24366685  1
  O  O199  1  0.67367262  0.88713241  0.26681089  1
  O  O200  1  0.27474090  0.66407747  0.26420278  1
  O  O201  1  0.77769012  0.67907940  0.24376435  1
  O  O202  1  0.06470138  0.44414037  0.24496811  1
  O  O203  1  0.56260727  0.46040331  0.26513234  1
  O  O204  1  0.17617861  0.46386453  0.76535503  1
  O  O205  1  0.65913153  0.46076949  0.74291681  1
  O  O206  1  0.06024456  0.65480667  0.76094837  1
  O  O207  1  0.56501771  0.68632959  0.74437480  1
  O  O208  1  0.27882762  0.87443519  0.74108924  1
  O  O209  1  0.77066665  0.88494503  0.76051451  1
