# generated using pymatgen
data_Na42Mg16Ta8Si21(S5O48)3
_symmetry_space_group_name_H-M   'P 1'
_cell_length_a   18.20648526
_cell_length_b   9.07021915
_cell_length_c   22.30824517
_cell_angle_alpha   89.89931561
_cell_angle_beta   90.20438717
_cell_angle_gamma   120.01655163
_symmetry_Int_Tables_number   1
_chemical_formula_structural   Na42Mg16Ta8Si21(S5O48)3
_chemical_formula_sum   'Na42 Mg16 Ta8 Si21 S15 O144'
_cell_volume   3189.80925023
_cell_formula_units_Z   1
loop_
 _symmetry_equiv_pos_site_id
 _symmetry_equiv_pos_as_xyz
  1  'x, y, z'
loop_
 _atom_site_type_symbol
 _atom_site_label
 _atom_site_symmetry_multiplicity
 _atom_site_fract_x
 _atom_site_fract_y
 _atom_site_fract_z
 _atom_site_occupancy
  Na  Na0  1  0.32173734  0.03033640  0.24691854  1
  Na  Na1  1  0.82549877  0.01360308  0.24895512  1
  Na  Na2  1  0.98965183  0.63381329  0.25128958  1
  Na  Na3  1  0.32434679  0.63285437  0.74518696  1
  Na  Na4  1  0.82354747  0.61674683  0.74353475  1
  Na  Na5  1  0.48909704  0.34762444  0.74909392  1
  Na  Na6  1  0.15914742  0.35238522  0.58162783  1
  Na  Na7  1  0.66016285  0.34894960  0.58856424  1
  Na  Na8  1  0.01592197  0.67326937  0.58520144  1
  Na  Na9  1  0.50848572  0.68401555  0.57138067  1
  Na  Na10  1  0.31959809  0.95079529  0.57982427  1
  Na  Na11  1  0.83280212  0.97232729  0.57230997  1
  Na  Na12  1  0.15972015  0.97082505  0.08716141  1
  Na  Na13  1  0.65630413  0.95171878  0.08447269  1
  Na  Na14  1  0.33022768  0.68807387  0.06999963  1
  Na  Na15  1  0.82736196  0.70590478  0.07551068  1
  Na  Na16  1  0.01092949  0.33341703  0.07061465  1
  Na  Na17  1  0.50431682  0.34779043  0.08438722  1
  Na  Na18  1  0.47250883  0.66731823  0.91598911  1
  Na  Na19  1  0.97416674  0.65736176  0.90634275  1
  Na  Na20  1  0.35126598  0.02043801  0.91756109  1
  Na  Na21  1  0.85860931  0.04130572  0.92327967  1
  Na  Na22  1  0.16712717  0.31577299  0.91711207  1
  Na  Na23  1  0.67050896  0.29986879  0.90760661  1
  Na  Na24  1  0.47148234  0.29114357  0.41041539  1
  Na  Na25  1  0.97376029  0.27875911  0.41962659  1
  Na  Na26  1  0.17344547  0.04701703  0.41932941  1
  Na  Na27  1  0.66662356  0.01572619  0.42055169  1
  Na  Na28  1  0.35660235  0.67336017  0.42786764  1
  Na  Na29  1  0.85175522  0.68288725  0.42148176  1
  Na  Na30  1  0.99334162  0.00438803  0.49656208  1
  Na  Na31  1  0.49015368  0.97564055  0.49320214  1
  Na  Na32  1  0.99298373  0.00682150  0.99096455  1
  Na  Na33  1  0.48752927  0.97494247  0.99385449  1
  Na  Na34  1  0.33278724  0.33285083  0.82645973  1
  Na  Na35  1  0.84024768  0.34621394  0.82704039  1
  Na  Na36  1  0.33880164  0.33106889  0.33108795  1
  Na  Na37  1  0.83354183  0.33275427  0.32998700  1
  Na  Na38  1  0.17108281  0.67102085  0.16256818  1
  Na  Na39  1  0.66127308  0.66280552  0.16427078  1
  Na  Na40  1  0.16255018  0.67412770  0.65820125  1
  Na  Na41  1  0.67161745  0.67117246  0.66016612  1
  Mg  Mg42  1  0.99407961  0.99501114  0.34604662  1
  Mg  Mg43  1  0.49546226  0.99662134  0.35467222  1
  Mg  Mg44  1  0.99473254  0.99432883  0.85335373  1
  Mg  Mg45  1  0.49382207  0.99085914  0.84539422  1
  Mg  Mg46  1  0.32995056  0.32706791  0.68376349  1
  Mg  Mg47  1  0.84064203  0.35486497  0.68525453  1
  Mg  Mg48  1  0.34038857  0.32697810  0.18570940  1
  Mg  Mg49  1  0.83397439  0.32983810  0.18647056  1
  Mg  Mg50  1  0.33948618  0.35079194  0.98613797  1
  Mg  Mg51  1  0.84175871  0.33398504  0.97701983  1
  Mg  Mg52  1  0.33307996  0.33793117  0.48168935  1
  Mg  Mg53  1  0.83897833  0.32864781  0.48838772  1
  Mg  Mg54  1  0.17261282  0.66710981  0.01150078  1
  Mg  Mg55  1  0.67064728  0.68040040  0.02038891  1
  Mg  Mg56  1  0.17143199  0.67121815  0.52433996  1
  Mg  Mg57  1  0.67196808  0.67845833  0.51297164  1
  Ta  Ta58  1  0.00248002  0.98909441  0.64254675  1
  Ta  Ta59  1  0.49483764  0.98772665  0.65535912  1
  Ta  Ta60  1  0.99601317  0.00408285  0.15513507  1
  Ta  Ta61  1  0.49730216  0.00499665  0.14667589  1
  Ta  Ta62  1  0.16756183  0.67722110  0.31156258  1
  Ta  Ta63  1  0.66439424  0.66588853  0.31369346  1
  Ta  Ta64  1  0.16427974  0.66053998  0.81172878  1
  Ta  Ta65  1  0.66958182  0.66024766  0.80986558  1
  Si  Si66  1  0.14842061  0.01518219  0.25390060  1
  Si  Si67  1  0.84774372  0.69277656  0.25411157  1
  Si  Si68  1  0.00053229  0.30008465  0.25471792  1
  Si  Si69  1  0.50190016  0.29683262  0.25508464  1
  Si  Si70  1  0.64824592  0.27970566  0.75372911  1
  Si  Si71  1  0.00057697  0.70753617  0.75555504  1
  Si  Si72  1  0.49955819  0.70003581  0.75488162  1
  Si  Si73  1  0.34868677  0.00460222  0.75564654  1
  Si  Si74  1  0.97963072  0.33274739  0.58345538  1
  Si  Si75  1  0.19148208  0.04591393  0.57993011  1
  Si  Si76  1  0.33587186  0.62724777  0.58527676  1
  Si  Si77  1  0.82684857  0.62094378  0.58153346  1
  Si  Si78  1  0.48142943  0.62725382  0.08335643  1
  Si  Si79  1  0.32693265  0.03304653  0.08157850  1
  Si  Si80  1  0.83380211  0.04178599  0.08512348  1
  Si  Si81  1  0.31726605  0.66631178  0.91727020  1
  Si  Si82  1  0.81365385  0.66506217  0.92212563  1
  Si  Si83  1  0.02027282  0.37072717  0.91947936  1
  Si  Si84  1  0.31513263  0.96183895  0.42081495  1
  Si  Si85  1  0.81786936  0.96902544  0.41732051  1
  Si  Si86  1  0.51854243  0.66773590  0.41986722  1
  S  S87  1  0.64389856  -0.00033090  0.25207595  1
  S  S88  1  0.35425866  0.70732940  0.25097362  1
  S  S89  1  0.14324137  0.28776727  0.75251204  1
  S  S90  1  0.85406249  0.00241500  0.75128321  1
  S  S91  1  0.48219103  0.33092487  0.58368533  1
  S  S92  1  0.68535873  0.04214686  0.58504435  1
  S  S93  1  0.98010391  0.63138502  0.08356940  1
  S  S94  1  0.18555252  0.32860139  0.08515557  1
  S  S95  1  0.68684646  0.32858092  0.08348295  1
  S  S96  1  0.52380679  0.37883881  0.91767158  1
  S  S97  1  0.16746269  0.95805028  0.91735477  1
  S  S98  1  0.66529846  0.95478125  0.91730578  1
  S  S99  1  0.16496094  0.37871185  0.41630611  1
  S  S100  1  0.66710718  0.37611318  0.41704462  1
  S  S101  1  0.02258751  0.66798829  0.41683275  1
  O  O102  1  0.09985058  0.01349507  0.31296792  1
  O  O103  1  0.60289477  0.01478828  0.30504659  1
  O  O104  1  0.40399581  0.78577488  0.30432879  1
  O  O105  1  0.90773827  0.77237712  0.31155487  1
  O  O106  1  0.49072692  0.17523424  0.31003516  1
  O  O107  1  0.98251904  0.18080396  0.31111482  1
  O  O108  1  0.10218488  0.19092999  0.80627840  1
  O  O109  1  0.60078817  0.18658398  0.81382004  1
  O  O110  1  0.48391696  0.78309279  0.81234587  1
  O  O111  1  0.98925388  0.80128252  0.81247094  1
  O  O112  1  0.40738491  0.03782956  0.81342037  1
  O  O113  1  0.90223485  0.02178704  0.80598742  1
  O  O114  1  0.40027422  0.96664439  0.69670273  1
  O  O115  1  0.89152894  0.96548232  0.69818463  1
  O  O116  1  0.09181061  0.20792982  0.69749339  1
  O  O117  1  0.58386726  0.20008477  0.69326825  1
  O  O118  1  0.01154918  0.83041208  0.69488223  1
  O  O119  1  0.51605045  0.82929669  0.69472334  1
  O  O120  1  0.39639860  0.82310296  0.19647029  1
  O  O121  1  0.90046849  0.83486867  0.19529714  1
  O  O122  1  0.01565522  0.20321782  0.19396904  1
  O  O123  1  0.51385936  0.19443844  0.19324145  1
  O  O124  1  0.08340822  0.96779683  0.19261046  1
  O  O125  1  0.59212201  0.97737182  0.19631243  1
  O  O126  1  0.44472089  0.35636709  0.63807344  1
  O  O127  1  0.93254411  0.36551019  0.63761505  1
  O  O128  1  0.25182034  0.13166090  0.63636515  1
  O  O129  1  0.73901436  0.12466058  0.63656777  1
  O  O130  1  0.32641640  0.52298765  0.64596405  1
  O  O131  1  0.80949913  0.50751991  0.64088842  1
  O  O132  1  0.43342512  0.50547680  0.13854249  1
  O  O133  1  0.94029813  0.52986199  0.13769946  1
  O  O134  1  0.31272430  0.11387501  0.14111529  1
  O  O135  1  0.81967649  0.12670214  0.14435073  1
  O  O136  1  0.23888451  0.35268548  0.13676912  1
  O  O137  1  0.74000531  0.35487852  0.13581485  1
  O  O138  1  0.22085776  0.30102464  0.02877489  1
  O  O139  1  0.72062987  0.29539430  0.02840304  1
  O  O140  1  0.42540491  0.57496752  0.02160152  1
  O  O141  1  0.92737081  0.55623166  0.02964749  1
  O  O142  1  0.35404111  0.15418495  0.02230465  1
  O  O143  1  0.85486485  0.15906809  0.02525418  1
  O  O144  1  0.22066423  0.16126418  0.51930202  1
  O  O145  1  0.72071090  0.14031585  0.52836510  1
  O  O146  1  0.36170101  0.56013417  0.52557863  1
  O  O147  1  0.85102837  0.55132950  0.52146929  1
  O  O148  1  0.42962905  0.30042825  0.52953915  1
  O  O149  1  0.92341945  0.27269915  0.52125602  1
  O  O150  1  0.27612120  0.69825042  0.97652306  1
  O  O151  1  0.76682616  0.69230429  0.97831939  1
  O  O152  1  0.07497368  0.45543092  0.97998925  1
  O  O153  1  0.57467274  0.46540730  0.97075677  1
  O  O154  1  0.15244320  0.85419445  0.97220078  1
  O  O155  1  0.65211757  0.85265210  0.97200404  1
  O  O156  1  0.26693665  0.83464336  0.47483990  1
  O  O157  1  0.77443312  0.85140577  0.47526158  1
  O  O158  1  0.15277708  0.45541701  0.47021145  1
  O  O159  1  0.65258555  0.45100824  0.47118561  1
  O  O160  1  0.07325223  0.68060929  0.46881022  1
  O  O161  1  0.57621297  0.69590158  0.47879156  1
  O  O162  1  0.06643082  0.64675854  0.35999866  1
  O  O163  1  0.57492415  0.64385596  0.36204749  1
  O  O164  1  0.25197167  0.85190879  0.35839923  1
  O  O165  1  0.75261583  0.85683863  0.35796433  1
  O  O166  1  0.17143946  0.48950044  0.36219562  1
  O  O167  1  0.67959252  0.49134920  0.36344246  1
  O  O168  1  0.07581586  0.50567077  0.86274649  1
  O  O169  1  0.56767852  0.48828426  0.86202375  1
  O  O170  1  0.17968869  0.86855877  0.86453499  1
  O  O171  1  0.67475343  0.86256971  0.86415121  1
  O  O172  1  0.25163270  0.64671104  0.85935883  1
  O  O173  1  0.75045688  0.64900388  0.86100876  1
  O  O174  1  0.01656220  0.82370026  0.41176856  1
  O  O175  1  0.51571262  0.84269958  0.40898486  1
  O  O176  1  0.40858166  0.98144522  0.41402032  1
  O  O177  1  0.91154673  0.98518491  0.41252859  1
  O  O178  1  0.09104396  0.20583205  0.40979985  1
  O  O179  1  0.59307613  0.20567505  0.40862744  1
  O  O180  1  0.01517969  0.18740057  0.90989835  1
  O  O181  1  0.51730701  0.21043551  0.91320429  1
  O  O182  1  0.09327105  0.98105532  0.90962473  1
  O  O183  1  0.59078757  0.97806727  0.91151217  1
  O  O184  1  0.41139178  0.83710396  0.91251839  1
  O  O185  1  0.90694625  0.83300858  0.91496127  1
  O  O186  1  0.49217383  0.17352777  0.58954102  1
  O  O187  1  0.98976904  0.15981974  0.59915621  1
  O  O188  1  0.09209144  0.02777668  0.59178738  1
  O  O189  1  0.59825767  0.02917116  0.59020765  1
  O  O190  1  0.42614354  0.83360054  0.59115227  1
  O  O191  1  0.91586848  0.81853657  0.59237530  1
  O  O192  1  0.49773107  0.82844836  0.09738591  1
  O  O193  1  0.99041420  0.80896255  0.08880084  1
  O  O194  1  0.41772502  0.01260796  0.09303307  1
  O  O195  1  0.92461355  0.02200096  0.09089370  1
  O  O196  1  0.09786571  0.16683800  0.09015903  1
  O  O197  1  0.59861494  0.16521281  0.09129643  1
  O  O198  1  0.34222100  0.17067622  0.74350772  1
  O  O199  1  0.83752520  0.14197656  0.74294172  1
  O  O200  1  0.23017753  0.31744266  0.74760416  1
  O  O201  1  0.74286691  0.31821101  0.74592168  1
  O  O202  1  0.42048878  0.51256965  0.74364580  1
  O  O203  1  0.91828324  0.52294546  0.74802847  1
  O  O204  1  0.33940110  0.53654082  0.24061428  1
  O  O205  1  0.83899907  0.51314330  0.23815752  1
  O  O206  1  0.41907260  0.31351949  0.24678153  1
  O  O207  1  0.92075819  0.32820308  0.24360927  1
  O  O208  1  0.24282878  0.16706584  0.24479652  1
  O  O209  1  0.73046527  0.14704801  0.24565788  1
  O  O210  1  0.31840834  0.48548282  0.91600248  1
  O  O211  1  0.81535053  0.48682746  0.92117448  1
  O  O212  1  0.43874432  0.36321392  0.91728437  1
  O  O213  1  0.92750404  0.35655146  0.91580242  1
  O  O214  1  0.24604094  0.12641231  0.92088859  1
  O  O215  1  0.74410908  0.12294924  0.92009458  1
  O  O216  1  0.31813831  0.14390129  0.41737380  1
  O  O217  1  0.81798382  0.15078231  0.41486991  1
  O  O218  1  0.24530326  0.37466724  0.41563167  1
  O  O219  1  0.74576277  0.36605620  0.41963989  1
  O  O220  1  0.42596018  0.49635846  0.41695823  1
  O  O221  1  0.93739199  0.51303563  0.41535885  1
  O  O222  1  0.17075339  0.47586744  0.08087287  1
  O  O223  1  0.66953458  0.47122312  0.07809430  1
  O  O224  1  0.06655162  0.65324875  0.07854213  1
  O  O225  1  0.57640371  0.64992023  0.07704430  1
  O  O226  1  0.24664178  0.83760698  0.07770753  1
  O  O227  1  0.75333291  0.84710044  0.08242951  1
  O  O228  1  0.16684311  0.84764152  0.57625432  1
  O  O229  1  0.67048523  0.86518584  0.58066180  1
  O  O230  1  0.25469198  0.65505024  0.58133429  1
  O  O231  1  0.74592042  0.65425143  0.57745908  1
  O  O232  1  0.07582033  0.49127381  0.57582402  1
  O  O233  1  0.56903897  0.48158021  0.57757549  1
  O  O234  1  0.15413382  0.82692718  0.25698376  1
  O  O235  1  0.65233016  0.84033430  0.25369100  1
  O  O236  1  0.26895698  0.70331762  0.25354194  1
  O  O237  1  0.75895538  0.70144919  0.25547416  1
  O  O238  1  0.08899000  0.48999059  0.25684881  1
  O  O239  1  0.59091760  0.48510728  0.25675798  1
  O  O240  1  0.15124101  0.46496549  0.75481134  1
  O  O241  1  0.65459514  0.48143310  0.75771976  1
  O  O242  1  0.08964449  0.69686099  0.75892189  1
  O  O243  1  0.58873601  0.68823022  0.75924943  1
  O  O244  1  0.25905007  0.81837812  0.75716281  1
  O  O245  1  0.76595871  0.83384828  0.75661300  1
