# generated using pymatgen
data_LaAs2
_symmetry_space_group_name_H-M   'P 1'
_cell_length_a   9.15099428
_cell_length_b   9.20051534
_cell_length_c   9.74568312
_cell_angle_alpha   118.13588565
_cell_angle_beta   117.97342806
_cell_angle_gamma   90.05070667
_symmetry_Int_Tables_number   1
_chemical_formula_structural   LaAs2
_chemical_formula_sum   'La8 As16'
_cell_volume   612.49757584
_cell_formula_units_Z   8
loop_
 _symmetry_equiv_pos_site_id
 _symmetry_equiv_pos_as_xyz
  1  'x, y, z'
loop_
 _atom_site_type_symbol
 _atom_site_label
 _atom_site_symmetry_multiplicity
 _atom_site_fract_x
 _atom_site_fract_y
 _atom_site_fract_z
 _atom_site_occupancy
  La  La0  1  0.67318002  0.75017246  0.08099866  1
  La  La1  1  0.09232183  0.66918419  0.91906900  1
  La  La2  1  0.89210662  0.27313559  0.91722183  1
  La  La3  1  0.47492464  0.35598814  0.08286720  1
  La  La4  1  0.43550688  0.11456043  0.44339061  1
  La  La5  1  0.49205965  0.67113832  0.55656316  1
  La  La6  1  0.01364175  0.29703214  0.39523632  1
  La  La7  1  0.11843033  0.90194395  0.60484756  1
  As  As8  1  0.87068029  0.87408036  0.74488557  1
  As  As9  1  0.62568582  0.12923624  0.25499576  1
  As  As10  1  0.74622407  0.99759572  0.94920634  1
  As  As11  1  0.29666075  0.04835338  0.05049460  1
  As  As12  1  0.46076068  0.73177080  0.25515208  1
  As  As13  1  0.70604090  0.47690659  0.74505471  1
  As  As14  1  0.50516099  0.07006778  0.76239349  1
  As  As15  1  0.24261038  0.30747059  0.23758746  1
  As  As16  1  0.74232318  0.94827075  0.50426411  1
  As  As17  1  0.73802725  0.44400873  0.49559622  1
  As  As18  1  0.29891965  0.66217411  0.74364640  1
  As  As19  1  0.05520064  0.91850433  0.25632714  1
  As  As20  1  0.11566524  0.28947157  0.75385879  1
  As  As21  1  0.86143607  0.53553530  0.24641333  1
  As  As22  1  0.35829359  0.40279427  0.74689078  1
  As  As23  1  0.11097880  0.65573028  0.25303790  1
