# generated using pymatgen
data_Na2Sc8SiS11O48
_symmetry_space_group_name_H-M   'P 1'
_cell_length_a   17.74415753
_cell_length_b   8.86978077
_cell_length_c   23.07671146
_cell_angle_alpha   90.00015592
_cell_angle_beta   89.97706575
_cell_angle_gamma   120.02023229
_symmetry_Int_Tables_number   1
_chemical_formula_structural   Na2Sc8SiS11O48
_chemical_formula_sum   'Na6 Sc24 Si3 S33 O144'
_cell_volume   3144.73604353
_cell_formula_units_Z   3
loop_
 _symmetry_equiv_pos_site_id
 _symmetry_equiv_pos_as_xyz
  1  'x, y, z'
loop_
 _atom_site_type_symbol
 _atom_site_label
 _atom_site_symmetry_multiplicity
 _atom_site_fract_x
 _atom_site_fract_y
 _atom_site_fract_z
 _atom_site_occupancy
  Na  Na0  1  0.00066258  0.99547712  0.50010397  1
  Na  Na1  1  0.50060572  0.00650507  0.99642995  1
  Na  Na2  1  0.33593762  0.33374006  0.83478907  1
  Na  Na3  1  0.83660187  0.34034873  0.83029864  1
  Na  Na4  1  0.33209194  0.33175957  0.33400038  1
  Na  Na5  1  0.83791041  0.34036613  0.33609310  1
  Sc  Sc6  1  0.00144412  0.99147549  0.35500769  1
  Sc  Sc7  1  0.49885401  0.99908036  0.35626457  1
  Sc  Sc8  1  0.99768938  0.98617068  0.85182083  1
  Sc  Sc9  1  0.50056593  0.01131988  0.85420411  1
  Sc  Sc10  1  0.00024056  0.99164025  0.65184248  1
  Sc  Sc11  1  0.50129405  0.99884826  0.64528339  1
  Sc  Sc12  1  0.00002581  0.00271304  0.14423943  1
  Sc  Sc13  1  0.49975956  0.99852923  0.14789117  1
  Sc  Sc14  1  0.33257155  0.33467283  0.68593106  1
  Sc  Sc15  1  0.83849774  0.34108682  0.68840494  1
  Sc  Sc16  1  0.33166935  0.33423578  0.18380583  1
  Sc  Sc17  1  0.83487048  0.33236765  0.18416074  1
  Sc  Sc18  1  0.33742810  0.33352887  0.97715321  1
  Sc  Sc19  1  0.83454953  0.33416768  0.98006161  1
  Sc  Sc20  1  0.33300694  0.33381430  0.48327906  1
  Sc  Sc21  1  0.83911710  0.34268759  0.48032308  1
  Sc  Sc22  1  0.16541345  0.66482407  0.01940063  1
  Sc  Sc23  1  0.66276553  0.65409076  0.01782871  1
  Sc  Sc24  1  0.16067907  0.66899695  0.52040495  1
  Sc  Sc25  1  0.66688022  0.66879397  0.52417578  1
  Sc  Sc26  1  0.15910868  0.66301557  0.31441662  1
  Sc  Sc27  1  0.66741411  0.66609734  0.31227314  1
  Sc  Sc28  1  0.16170451  0.66750029  0.80817274  1
  Sc  Sc29  1  0.66075032  0.65588542  0.81320247  1
  Si  Si30  1  0.99884915  0.70726719  0.75025305  1
  Si  Si31  1  0.52139517  0.37552405  0.91643166  1
  Si  Si32  1  0.02027542  0.66531033  0.41702741  1
  S  S33  1  0.14561501  0.00094190  0.24933655  1
  S  S34  1  0.64508167  0.00058480  0.25071493  1
  S  S35  1  0.35452592  0.70986216  0.25050214  1
  S  S36  1  0.85482499  0.70916866  0.24972795  1
  S  S37  1  0.99972892  0.28865139  0.24994317  1
  S  S38  1  0.49964002  0.28976306  0.25046474  1
  S  S39  1  0.14590584  0.29068441  0.75048862  1
  S  S40  1  0.64495265  0.28917151  0.74944564  1
  S  S41  1  0.49988714  0.71048504  0.75000880  1
  S  S42  1  0.35541743  0.00070401  0.74936387  1
  S  S43  1  0.85349395  0.99821486  0.75074913  1
  S  S44  1  0.47805210  0.33245631  0.58350382  1
  S  S45  1  0.97903359  0.33090529  0.58322643  1
  S  S46  1  0.18819303  0.04350217  0.58332788  1
  S  S47  1  0.68880101  0.04501789  0.58326507  1
  S  S48  1  0.33264099  0.62405985  0.58343697  1
  S  S49  1  0.83336563  0.62486923  0.58297835  1
  S  S50  1  0.47896761  0.62478538  0.08344969  1
  S  S51  1  0.97855904  0.62402230  0.08320878  1
  S  S52  1  0.33317410  0.04192718  0.08322310  1
  S  S53  1  0.83251176  0.04187150  0.08319693  1
  S  S54  1  0.18838550  0.33379485  0.08258371  1
  S  S55  1  0.68842850  0.33353246  0.08361613  1
  S  S56  1  0.31065564  0.66584651  0.91635685  1
  S  S57  1  0.81182838  0.66700277  0.91688352  1
  S  S58  1  0.02172073  0.37527619  0.91660891  1
  S  S59  1  0.16614701  0.95584606  0.91668614  1
  S  S60  1  0.66734487  0.95717831  0.91668264  1
  S  S61  1  0.31151844  0.95712708  0.41659416  1
  S  S62  1  0.81044431  0.95534441  0.41673701  1
  S  S63  1  0.16767774  0.37802909  0.41689162  1
  S  S64  1  0.66614289  0.37746611  0.41654019  1
  S  S65  1  0.52208957  0.66573746  0.41644117  1
  O  O66  1  0.10678059  0.03289989  0.30135342  1
  O  O67  1  0.60429990  0.02954112  0.30227871  1
  O  O68  1  0.41121218  0.79143224  0.30202145  1
  O  O69  1  0.90880524  0.78802431  0.30176774  1
  O  O70  1  0.48522248  0.17967858  0.30214913  1
  O  O71  1  0.98429466  0.18032937  0.30185732  1
  O  O72  1  0.10692302  0.18212424  0.80226732  1
  O  O73  1  0.60468144  0.17944066  0.80164787  1
  O  O74  1  0.48435400  0.78833841  0.80199294  1
  O  O75  1  0.98293612  0.79748559  0.80686221  1
  O  O76  1  0.41024037  0.03218942  0.80158749  1
  O  O77  1  0.90956312  0.03280690  0.80241271  1
  O  O78  1  0.39709990  0.97664238  0.69736266  1
  O  O79  1  0.89454804  0.97480780  0.69809060  1
  O  O80  1  0.09331997  0.21352805  0.69773880  1
  O  O81  1  0.58982830  0.20626117  0.69763467  1
  O  O82  1  0.01456234  0.82783592  0.69319387  1
  O  O83  1  0.51124602  0.81718860  0.69758360  1
  O  O84  1  0.39719355  0.81773300  0.19810292  1
  O  O85  1  0.89500174  0.81643165  0.19774106  1
  O  O86  1  0.01115203  0.20488660  0.19756562  1
  O  O87  1  0.51312815  0.20912731  0.19821085  1
  O  O88  1  0.09153338  0.97597069  0.19756667  1
  O  O89  1  0.59143054  0.97393840  0.19830458  1
  O  O90  1  0.43749059  0.36245240  0.63489139  1
  O  O91  1  0.93830688  0.35894092  0.63466103  1
  O  O92  1  0.24247753  0.12825834  0.63506799  1
  O  O93  1  0.74251034  0.12182597  0.63488191  1
  O  O94  1  0.31987212  0.51234502  0.63498249  1
  O  O95  1  0.81867279  0.51738407  0.63453094  1
  O  O96  1  0.43710528  0.51639215  0.13593663  1
  O  O97  1  0.93757518  0.51334872  0.13529917  1
  O  O98  1  0.32060459  0.12396828  0.13581805  1
  O  O99  1  0.81989355  0.12731759  0.13549602  1
  O  O100  1  0.24328253  0.36208239  0.13548662  1
  O  O101  1  0.74202223  0.35594067  0.13594410  1
  O  O102  1  0.22835583  0.30330629  0.03201144  1
  O  O103  1  0.72813079  0.30256355  0.03177095  1
  O  O104  1  0.42335936  0.54618162  0.03225497  1
  O  O105  1  0.92297779  0.54241142  0.03189408  1
  O  O106  1  0.34889364  0.15189948  0.03199505  1
  O  O107  1  0.84836477  0.15572162  0.03205258  1
  O  O108  1  0.23037361  0.15409375  0.53089579  1
  O  O109  1  0.72777311  0.15202372  0.53081774  1
  O  O110  1  0.34848152  0.54141468  0.53153795  1
  O  O111  1  0.84721837  0.54406818  0.53065273  1
  O  O112  1  0.42324856  0.30450923  0.53123835  1
  O  O113  1  0.92377359  0.30324761  0.53101188  1
  O  O114  1  0.27084060  0.69358414  0.96949081  1
  O  O115  1  0.77187325  0.69250103  0.96948822  1
  O  O116  1  0.07508170  0.45989976  0.96949810  1
  O  O117  1  0.58038138  0.46374036  0.97407411  1
  O  O118  1  0.15419015  0.84799340  0.96938311  1
  O  O119  1  0.65452968  0.85312630  0.96954674  1
  O  O120  1  0.27440312  0.85233029  0.46848165  1
  O  O121  1  0.77012343  0.84667479  0.46846432  1
  O  O122  1  0.15508146  0.45634289  0.46894365  1
  O  O123  1  0.65247067  0.45801607  0.46808690  1
  O  O124  1  0.08119923  0.69761829  0.47328143  1
  O  O125  1  0.57526310  0.69258462  0.46820006  1
  O  O126  1  0.06501176  0.63571960  0.35959991  1
  O  O127  1  0.56231941  0.63747223  0.36403113  1
  O  O128  1  0.25859640  0.87950333  0.36392315  1
  O  O129  1  0.75691859  0.87298729  0.36407921  1
  O  O130  1  0.18316054  0.48383283  0.36404077  1
  O  O131  1  0.68006473  0.48700309  0.36404114  1
  O  O132  1  0.06088692  0.48621886  0.86551017  1
  O  O133  1  0.56597919  0.49616496  0.85985772  1
  O  O134  1  0.18250147  0.87751289  0.86552980  1
  O  O135  1  0.68287366  0.88248761  0.86462687  1
  O  O136  1  0.25836264  0.64005713  0.86487069  1
  O  O137  1  0.75797827  0.63611110  0.86490439  1
  O  O138  1  0.01021546  0.83888533  0.40943687  1
  O  O139  1  0.51240850  0.82037606  0.40724348  1
  O  O140  1  0.39963584  0.97881267  0.40697312  1
  O  O141  1  0.89813261  0.97646622  0.40950720  1
  O  O142  1  0.08926846  0.20290081  0.40954521  1
  O  O143  1  0.58815699  0.20399083  0.40682780  1
  O  O144  1  0.01170554  0.20318756  0.90942790  1
  O  O145  1  0.51038426  0.18099055  0.91019616  1
  O  O146  1  0.08950950  0.97556749  0.90991504  1
  O  O147  1  0.58885192  0.97549413  0.91011173  1
  O  O148  1  0.39944709  0.82092906  0.91086955  1
  O  O149  1  0.89824087  0.82148678  0.91014718  1
  O  O150  1  0.48737253  0.17828077  0.59201405  1
  O  O151  1  0.98783223  0.17434098  0.58935769  1
  O  O152  1  0.10157941  0.02886615  0.58819635  1
  O  O153  1  0.60062774  0.02229805  0.59224090  1
  O  O154  1  0.41166151  0.79611816  0.59234352  1
  O  O155  1  0.91067610  0.80150877  0.58863104  1
  O  O156  1  0.48743661  0.80074913  0.09175083  1
  O  O157  1  0.98737284  0.79645700  0.09286858  1
  O  O158  1  0.41193672  0.02330309  0.09160186  1
  O  O159  1  0.91127246  0.02719434  0.09295067  1
  O  O160  1  0.10167235  0.17932791  0.09339692  1
  O  O161  1  0.60020356  0.17517216  0.09127248  1
  O  O162  1  0.34615992  0.15859257  0.74197132  1
  O  O163  1  0.84361402  0.15448665  0.74298186  1
  O  O164  1  0.23441401  0.30842985  0.74235278  1
  O  O165  1  0.73137524  0.30479112  0.74243995  1
  O  O166  1  0.42121231  0.53302024  0.74205058  1
  O  O167  1  0.91237398  0.51392180  0.74305226  1
  O  O168  1  0.34695994  0.53438919  0.24281249  1
  O  O169  1  0.84436273  0.53229637  0.24220212  1
  O  O170  1  0.42136389  0.30908949  0.24283734  1
  O  O171  1  0.92114957  0.30939107  0.24209472  1
  O  O172  1  0.23418387  0.15987018  0.24203280  1
  O  O173  1  0.73289561  0.15695913  0.24295675  1
  O  O174  1  0.31958796  0.50919165  0.92453364  1
  O  O175  1  0.82123282  0.50838483  0.92491982  1
  O  O176  1  0.42448008  0.35432325  0.92389644  1
  O  O177  1  0.93349237  0.35853404  0.92523679  1
  O  O178  1  0.24422339  0.13164997  0.92475506  1
  O  O179  1  0.74539778  0.13554531  0.92452866  1
  O  O180  1  0.32265291  0.13569379  0.42368867  1
  O  O181  1  0.81815632  0.12852137  0.42286359  1
  O  O182  1  0.24596306  0.35553740  0.42364351  1
  O  O183  1  0.74304868  0.35570285  0.42286792  1
  O  O184  1  0.43360435  0.50936947  0.42315682  1
  O  O185  1  0.92316932  0.49286940  0.42325273  1
  O  O186  1  0.17900992  0.48888750  0.07494165  1
  O  O187  1  0.68034836  0.48795212  0.07716021  1
  O  O188  1  0.06486361  0.64177202  0.07465477  1
  O  O189  1  0.56535214  0.64593203  0.07666206  1
  O  O190  1  0.25620866  0.86863413  0.07524193  1
  O  O191  1  0.75621536  0.87137063  0.07522844  1
  O  O192  1  0.18174701  0.87425410  0.57629824  1
  O  O193  1  0.67779529  0.86877717  0.57339702  1
  O  O194  1  0.25665730  0.64112986  0.57429779  1
  O  O195  1  0.75531834  0.64232866  0.57360285  1
  O  O196  1  0.06530378  0.48557694  0.57509803  1
  O  O197  1  0.56432050  0.48743307  0.57394195  1
  O  O198  1  0.15642736  0.84922281  0.25693260  1
  O  O199  1  0.65415917  0.84566918  0.25912836  1
  O  O200  1  0.26936433  0.69129795  0.25825325  1
  O  O201  1  0.76784282  0.69002506  0.25869470  1
  O  O202  1  0.07752949  0.46098885  0.25630706  1
  O  O203  1  0.57697965  0.46303057  0.25895576  1
  O  O204  1  0.15761019  0.46457969  0.75872152  1
  O  O205  1  0.65467730  0.46193841  0.75692634  1
  O  O206  1  0.08388370  0.68847064  0.75996905  1
  O  O207  1  0.57744511  0.69405034  0.75641930  1
  O  O208  1  0.27019173  0.84739948  0.75773327  1
  O  O209  1  0.76780670  0.84385140  0.75927293  1
