# generated using pymatgen
data_Na2AlZnP(SO6)2
_symmetry_space_group_name_H-M   'P 1'
_cell_length_a   8.65541366
_cell_length_b   8.67362416
_cell_length_c   21.88251646
_cell_angle_alpha   90.17361287
_cell_angle_beta   90.00000000
_cell_angle_gamma   119.93057249
_symmetry_Int_Tables_number   1
_chemical_formula_structural   Na2AlZnP(SO6)2
_chemical_formula_sum   'Na12 Al6 Zn6 P6 S12 O72'
_cell_volume   1423.69537978
_cell_formula_units_Z   6
loop_
 _symmetry_equiv_pos_site_id
 _symmetry_equiv_pos_as_xyz
  1  'x, y, z'
loop_
 _atom_site_type_symbol
 _atom_site_label
 _atom_site_symmetry_multiplicity
 _atom_site_fract_x
 _atom_site_fract_y
 _atom_site_fract_z
 _atom_site_occupancy
  Na  Na0  1  0.99556757  0.63697475  0.24285026  1
  Na  Na1  1  0.64140718  0.63697475  0.74285026  1
  Na  Na2  1  0.65770820  0.96305867  0.58018298  1
  Na  Na3  1  0.30535147  0.96305867  0.08018298  1
  Na  Na4  1  0.69461625  0.02414587  0.91042468  1
  Na  Na5  1  0.32952862  0.02414587  0.41042468  1
  Na  Na6  1  0.98375722  0.99153013  0.49643914  1
  Na  Na7  1  0.00777290  0.99153013  0.99643914  1
  Na  Na8  1  0.65927889  0.31730554  0.82951610  1
  Na  Na9  1  0.65802765  0.31730554  0.32951610  1
  Na  Na10  1  0.33679666  0.65439609  0.16312419  1
  Na  Na11  1  0.31759843  0.65439609  0.66312419  1
  Al  Al12  1  0.99374764  0.99107102  0.64892962  1
  Al  Al13  1  0.99732338  0.99107102  0.14892962  1
  Al  Al14  1  0.66750450  0.34164265  0.98158482  1
  Al  Al15  1  0.67413915  0.34164265  0.48158482  1
  Al  Al16  1  0.34635765  0.68465699  0.31562972  1
  Al  Al17  1  0.33829834  0.68465699  0.81562972  1
  Zn  Zn18  1  0.99577760  0.00472354  0.35001245  1
  Zn  Zn19  1  0.00894594  0.00472354  0.85001245  1
  Zn  Zn20  1  0.66691140  0.32632075  0.68299119  1
  Zn  Zn21  1  0.65941034  0.32632075  0.18299119  1
  Zn  Zn22  1  0.31717113  0.66599238  0.01640970  1
  Zn  Zn23  1  0.34882025  0.66599238  0.51640970  1
  P  P24  1  0.29379136  -0.00296432  0.25197684  1
  P  P25  1  0.70324432  -0.00296432  0.75197684  1
  P  P26  1  0.67542727  0.62547067  0.58628602  1
  P  P27  1  0.95004440  0.62547067  0.08628602  1
  P  P28  1  0.33954742  0.97173615  0.92020146  1
  P  P29  1  0.63218774  0.97173615  0.42020146  1
  S  S30  1  0.70013865  0.71189106  0.25080791  1
  S  S31  1  0.01093540  0.29607688  0.24942441  1
  S  S32  1  0.28514148  0.29607688  0.74942441  1
  S  S33  1  0.01175241  0.71189106  0.75080791  1
  S  S34  1  0.96060138  0.33037529  0.58347999  1
  S  S35  1  0.36162883  0.04228942  0.58242101  1
  S  S36  1  0.68066158  0.04228942  0.08242101  1
  S  S37  1  0.36977491  0.33037529  0.08347999  1
  S  S38  1  0.61794193  0.65464651  0.91665922  1
  S  S39  1  0.03940936  0.38196963  0.91569282  1
  S  S40  1  0.34255927  0.38196963  0.41569282  1
  S  S41  1  0.03670358  0.65464651  0.41665922  1
  O  O42  1  0.21318565  0.01858467  0.31142977  1
  O  O43  1  0.81051376  0.78751527  0.30559655  1
  O  O44  1  0.98326431  0.19725747  0.30591432  1
  O  O45  1  0.21399316  0.19725747  0.80591432  1
  O  O46  1  0.97700151  0.78751527  0.80559655  1
  O  O47  1  0.80539902  0.01858467  0.81142977  1
  O  O48  1  0.79632875  0.96269992  0.69528558  1
  O  O49  1  0.17380625  0.20211373  0.69465062  1
  O  O50  1  0.03927278  0.82427290  0.69534293  1
  O  O51  1  0.78500012  0.82427290  0.19534293  1
  O  O52  1  0.02830748  0.20211373  0.19465062  1
  O  O53  1  0.16637117  0.96269992  0.19528558  1
  O  O54  1  0.88792440  0.35777990  0.64004748  1
  O  O55  1  0.47894823  0.11872819  0.63574617  1
  O  O56  1  0.65323996  0.52811419  0.64650505  1
  O  O57  1  0.87487523  0.52811419  0.14650505  1
  O  O58  1  0.63978095  0.11872819  0.13574617  1
  O  O59  1  0.46985650  0.35777990  0.14004748  1
  O  O60  1  0.45710281  0.29438843  0.02964668  1
  O  O61  1  0.83004336  0.52619896  0.03014047  1
  O  O62  1  0.70308729  0.14897634  0.02547296  1
  O  O63  1  0.44589005  0.14897634  0.52547296  1
  O  O64  1  0.69615660  0.52619896  0.53014047  1
  O  O65  1  0.83728662  0.29438843  0.52964668  1
  O  O66  1  0.53365265  0.68388790  0.97004904  1
  O  O67  1  0.14016274  0.45156760  0.97225491  1
  O  O68  1  0.31475300  0.87388379  0.98076057  1
  O  O69  1  0.55912979  0.87388379  0.48076057  1
  O  O70  1  0.31140387  0.45156760  0.47225491  1
  O  O71  1  0.15023425  0.68388790  0.47004904  1
  O  O72  1  0.11818827  0.62998047  0.35881740  1
  O  O73  1  0.49722842  0.87332363  0.36606407  1
  O  O74  1  0.36078955  0.49317180  0.36117139  1
  O  O75  1  0.13238125  0.49317180  0.86117139  1
  O  O76  1  0.37609421  0.87332363  0.86606407  1
  O  O77  1  0.51179120  0.62998047  0.85881740  1
  O  O78  1  0.01425846  0.81296801  0.41215137  1
  O  O79  1  0.81804391  0.99780317  0.41121817  1
  O  O80  1  0.19263146  0.19676593  0.41022946  1
  O  O81  1  0.00413446  0.19676593  0.91022946  1
  O  O82  1  0.17975926  0.99780317  0.91121817  1
  O  O83  1  0.79870956  0.81296801  0.91215137  1
  O  O84  1  0.96951038  0.16011998  0.58796289  1
  O  O85  1  0.18791069  0.03748806  0.59025845  1
  O  O86  1  0.84760922  0.81762907  0.58959790  1
  O  O87  1  0.97001985  0.81762907  0.08959790  1
  O  O88  1  0.84957737  0.03748806  0.09025845  1
  O  O89  1  0.19060961  0.16011998  0.08796289  1
  O  O90  1  0.67454864  0.15567557  0.74448262  1
  O  O91  1  0.46996907  0.32807030  0.74402687  1
  O  O92  1  0.85594152  0.53159422  0.74435824  1
  O  O93  1  0.67565371  0.53159422  0.24435824  1
  O  O94  1  0.85810223  0.32807030  0.24402687  1
  O  O95  1  0.48112793  0.15567557  0.24448262  1
  O  O96  1  0.63228621  0.49065423  0.92218293  1
  O  O97  1  0.85938873  0.37116216  0.91958580  1
  O  O98  1  0.52002736  0.15674126  0.92485103  1
  O  O99  1  0.63671490  0.15674126  0.42485103  1
  O  O100  1  0.51177444  0.37116216  0.41958580  1
  O  O101  1  0.85836902  0.49065423  0.42218293  1
  O  O102  1  0.34499402  0.48361915  0.07467965  1
  O  O103  1  0.14261675  0.65664590  0.08145965  1
  O  O104  1  0.52799531  0.85856394  0.07672584  1
  O  O105  1  0.33056763  0.85856394  0.57672584  1
  O  O106  1  0.51402815  0.65664590  0.58145965  1
  O  O107  1  0.13862414  0.48361915  0.57467965  1
  O  O108  1  0.30101441  0.81762896  0.25643076  1
  O  O109  1  0.52224354  0.70001138  0.25691709  1
  O  O110  1  0.17876035  0.47580386  0.25294079  1
  O  O111  1  0.29704251  0.47580386  0.75294079  1
  O  O112  1  0.17776685  0.70001138  0.75691709  1
  O  O113  1  0.51661355  0.81762896  0.75643076  1
