# generated using pymatgen
data_AsCl3
_symmetry_space_group_name_H-M   'P 1'
_cell_length_a   4.29798559
_cell_length_b   9.65158689
_cell_length_c   11.65659773
_cell_angle_alpha   90.00000000
_cell_angle_beta   90.00000000
_cell_angle_gamma   90.00000000
_symmetry_Int_Tables_number   1
_chemical_formula_structural   AsCl3
_chemical_formula_sum   'As4 Cl12'
_cell_volume   483.54343256
_cell_formula_units_Z   4
loop_
 _symmetry_equiv_pos_site_id
 _symmetry_equiv_pos_as_xyz
  1  'x, y, z'
loop_
 _atom_site_type_symbol
 _atom_site_label
 _atom_site_symmetry_multiplicity
 _atom_site_fract_x
 _atom_site_fract_y
 _atom_site_fract_z
 _atom_site_occupancy
  As  As0  1  0.01347993  0.69840117  0.78611849  1
  As  As1  1  0.51347993  0.80159883  0.21388151  1
  As  As2  1  0.98652007  0.19840117  0.71388151  1
  As  As3  1  0.48652007  0.30159883  0.28611849  1
  Cl  Cl4  1  0.24923667  0.52152347  0.86538923  1
  Cl  Cl5  1  0.74923667  0.97847653  0.13461077  1
  Cl  Cl6  1  0.75076333  0.02152347  0.63461077  1
  Cl  Cl7  1  0.25076333  0.47847653  0.36538923  1
  Cl  Cl8  1  0.22855538  0.29672138  0.12415686  1
  Cl  Cl9  1  0.72855538  0.20327862  0.87584314  1
  Cl  Cl10  1  0.77144462  0.79672138  0.37584314  1
  Cl  Cl11  1  0.27144462  0.70327862  0.62415686  1
  Cl  Cl12  1  0.23687524  0.13680089  0.37769136  1
  Cl  Cl13  1  0.73687524  0.36319911  0.62230864  1
  Cl  Cl14  1  0.76312476  0.63680089  0.12230864  1
  Cl  Cl15  1  0.26312476  0.86319911  0.87769136  1
