# generated using pymatgen
data_Hg3(TeCl)2
_symmetry_space_group_name_H-M   'P 1'
_cell_length_a   8.21433390
_cell_length_b   8.21433319
_cell_length_c   8.21433343
_cell_angle_alpha   109.47122385
_cell_angle_beta   109.47122205
_cell_angle_gamma   109.47121727
_symmetry_Int_Tables_number   1
_chemical_formula_structural   Hg3(TeCl)2
_chemical_formula_sum   'Hg6 Te4 Cl4'
_cell_volume   426.67293651
_cell_formula_units_Z   2
loop_
 _symmetry_equiv_pos_site_id
 _symmetry_equiv_pos_as_xyz
  1  'x, y, z'
loop_
 _atom_site_type_symbol
 _atom_site_label
 _atom_site_symmetry_multiplicity
 _atom_site_fract_x
 _atom_site_fract_y
 _atom_site_fract_z
 _atom_site_occupancy
  Hg  Hg0  1  0.25000000  0.56088412  0.31088412  1
  Hg  Hg1  1  0.93911588  0.18911588  0.75000000  1
  Hg  Hg2  1  0.18911588  0.75000000  0.93911588  1
  Hg  Hg3  1  0.56088412  0.31088412  0.25000000  1
  Hg  Hg4  1  0.31088412  0.25000000  0.56088412  1
  Hg  Hg5  1  0.75000000  0.93911588  0.18911588  1
  Te  Te6  1  0.56262766  0.56262766  0.56262766  1
  Te  Te7  1  0.00000000  0.93737234  0.50000000  1
  Te  Te8  1  0.50000000  0.00000000  0.93737234  1
  Te  Te9  1  0.93737234  0.50000000  -0.00000000  1
  Cl  Cl10  1  0.03842459  0.03842459  0.03842459  1
  Cl  Cl11  1  -0.00000000  0.46157541  0.50000000  1
  Cl  Cl12  1  0.50000000  -0.00000000  0.46157541  1
  Cl  Cl13  1  0.46157541  0.50000000  0.00000000  1
