# generated using pymatgen
data_KTlF4
_symmetry_space_group_name_H-M   'P 1'
_cell_length_a   8.07226259
_cell_length_b   8.07224347
_cell_length_c   10.17799314
_cell_angle_alpha   89.99942524
_cell_angle_beta   90.00111425
_cell_angle_gamma   119.99882287
_symmetry_Int_Tables_number   1
_chemical_formula_structural   KTlF4
_chemical_formula_sum   'K6 Tl6 F24'
_cell_volume   574.36434165
_cell_formula_units_Z   6
loop_
 _symmetry_equiv_pos_site_id
 _symmetry_equiv_pos_as_xyz
  1  'x, y, z'
loop_
 _atom_site_type_symbol
 _atom_site_label
 _atom_site_symmetry_multiplicity
 _atom_site_fract_x
 _atom_site_fract_y
 _atom_site_fract_z
 _atom_site_occupancy
  K  K0  1  0.48295896  0.31430900  0.02021225  1
  K  K1  1  0.68577411  0.16864095  0.35351822  1
  K  K2  1  0.83136186  0.51712241  0.68688102  1
  K  K3  1  0.31863967  0.48650630  0.70956084  1
  K  K4  1  0.51348013  0.83218562  0.04287775  1
  K  K5  1  0.16784998  0.68132690  0.37621402  1
  Tl  Tl6  1  0.99335380  0.35734929  0.02968201  1
  Tl  Tl7  1  0.64265413  0.63602506  0.36301099  1
  Tl  Tl8  1  0.36399304  0.00661490  0.69633577  1
  Tl  Tl9  1  0.18020419  0.17478992  0.36038099  1
  Tl  Tl10  1  0.82520892  0.00538849  0.69370885  1
  Tl  Tl11  1  0.99459526  0.81981631  0.02703723  1
  F  F12  1  0.11771562  0.05746024  0.69310772  1
  F  F13  1  0.93978380  0.88228784  0.35978565  1
  F  F14  1  0.94247473  0.06021895  0.02643475  1
  F  F15  1  0.81913994  0.79503877  0.84195984  1
  F  F16  1  0.97587827  0.18084021  0.50861978  1
  F  F17  1  0.20496235  0.02416362  0.17526890  1
  F  F18  1  0.70856653  0.19951083  0.09854413  1
  F  F19  1  0.49096973  0.29141394  0.76522105  1
  F  F20  1  0.80046780  0.50901431  0.43187610  1
  F  F21  1  0.19474898  0.71981051  0.63574192  1
  F  F22  1  0.52500637  0.80521191  0.30240568  1
  F  F23  1  0.28015324  0.47491568  0.96906556  1
  F  F24  1  0.06298537  0.32262042  0.24455813  1
  F  F25  1  0.67737953  0.74038756  0.57788592  1
  F  F26  1  0.25961345  0.93702021  0.91121890  1
  F  F27  1  0.47488888  0.34548630  0.27194062  1
  F  F28  1  0.65453344  0.12937515  0.60525027  1
  F  F29  1  0.87063485  0.52515425  0.93858450  1
  F  F30  1  0.32872720  0.05494435  0.47281084  1
  F  F31  1  0.94502850  0.27375418  0.80612742  1
  F  F32  1  0.72624077  0.67128042  0.13948356  1
  F  F33  1  0.34557309  0.46483033  0.45722106  1
  F  F34  1  0.53518605  0.88071480  0.79057399  1
  F  F35  1  0.11926946  0.65446908  0.12389777  1
