# generated using pymatgen
data_NaAlZn(SO4)3
_symmetry_space_group_name_H-M   'P 1'
_cell_length_a   8.47326316
_cell_length_b   8.47326290
_cell_length_c   22.14983246
_cell_angle_alpha   90.00000000
_cell_angle_beta   90.00000000
_cell_angle_gamma   120.00000101
_symmetry_Int_Tables_number   1
_chemical_formula_structural   NaAlZn(SO4)3
_chemical_formula_sum   'Na6 Al6 Zn6 S18 O72'
_cell_volume   1377.21723557
_cell_formula_units_Z   6
loop_
 _symmetry_equiv_pos_site_id
 _symmetry_equiv_pos_as_xyz
  1  'x, y, z'
loop_
 _atom_site_type_symbol
 _atom_site_label
 _atom_site_symmetry_multiplicity
 _atom_site_fract_x
 _atom_site_fract_y
 _atom_site_fract_z
 _atom_site_occupancy
  Na  Na0  1  0.00000000  -0.00000000  0.49822586  1
  Na  Na1  1  0.00000000  -0.00000000  0.99822586  1
  Na  Na2  1  0.66666700  0.33333300  0.83155886  1
  Na  Na3  1  0.66666700  0.33333300  0.33155886  1
  Na  Na4  1  0.33333300  0.66666700  0.16489286  1
  Na  Na5  1  0.33333300  0.66666700  0.66489286  1
  Al  Al6  1  0.00000000  -0.00000000  0.64860747  1
  Al  Al7  1  0.00000000  -0.00000000  0.14860747  1
  Al  Al8  1  0.66666700  0.33333300  0.98194047  1
  Al  Al9  1  0.66666700  0.33333300  0.48194047  1
  Al  Al10  1  0.33333300  0.66666700  0.31527447  1
  Al  Al11  1  0.33333300  0.66666700  0.81527447  1
  Zn  Zn12  1  0.00000000  -0.00000000  0.35104797  1
  Zn  Zn13  1  0.00000000  -0.00000000  0.85104797  1
  Zn  Zn14  1  0.66666700  0.33333300  0.68438097  1
  Zn  Zn15  1  0.66666700  0.33333300  0.18438097  1
  Zn  Zn16  1  0.33333300  0.66666700  0.01771497  1
  Zn  Zn17  1  0.33333300  0.66666700  0.51771497  1
  S  S18  1  0.28899009  0.99477728  0.25032350  1
  S  S19  1  0.70578719  0.71100991  0.25032350  1
  S  S20  1  0.00522272  0.29421281  0.25032350  1
  S  S21  1  0.28899009  0.29421281  0.75032350  1
  S  S22  1  0.00522272  0.71100991  0.75032350  1
  S  S23  1  0.70578719  0.99477728  0.75032350  1
  S  S24  1  0.95565709  0.32811028  0.58365650  1
  S  S25  1  0.37245419  0.04434291  0.58365650  1
  S  S26  1  0.67188972  0.62754581  0.58365650  1
  S  S27  1  0.95565709  0.62754581  0.08365650  1
  S  S28  1  0.67188972  0.04434291  0.08365650  1
  S  S29  1  0.37245419  0.32811028  0.08365650  1
  S  S30  1  0.62232309  0.66144428  0.91699050  1
  S  S31  1  0.03912019  0.37767691  0.91699050  1
  S  S32  1  0.33855572  0.96087981  0.91699050  1
  S  S33  1  0.62232309  0.96087981  0.41699050  1
  S  S34  1  0.33855572  0.37767691  0.41699050  1
  S  S35  1  0.03912019  0.66144428  0.41699050  1
  O  O36  1  0.21332452  0.02675043  0.30494610  1
  O  O37  1  0.81342591  0.78667548  0.30494610  1
  O  O38  1  0.97324957  0.18657409  0.30494610  1
  O  O39  1  0.21332452  0.18657409  0.80494610  1
  O  O40  1  0.97324957  0.78667548  0.80494610  1
  O  O41  1  0.81342591  0.02675043  0.80494610  1
  O  O42  1  0.79108556  0.96418922  0.69533567  1
  O  O43  1  0.17310366  0.20891444  0.69533567  1
  O  O44  1  0.03581078  0.82689634  0.69533567  1
  O  O45  1  0.79108556  0.82689634  0.19533567  1
  O  O46  1  0.03581078  0.20891444  0.19533567  1
  O  O47  1  0.17310366  0.96418922  0.19533567  1
  O  O48  1  0.87999152  0.36008343  0.63827910  1
  O  O49  1  0.48009291  0.12000848  0.63827910  1
  O  O50  1  0.63991657  0.51990709  0.63827910  1
  O  O51  1  0.87999152  0.51990709  0.13827910  1
  O  O52  1  0.63991657  0.12000848  0.13827910  1
  O  O53  1  0.48009291  0.36008343  0.13827910  1
  O  O54  1  0.45775256  0.29752222  0.02866867  1
  O  O55  1  0.83977066  0.54224744  0.02866867  1
  O  O56  1  0.70247778  0.16022934  0.02866867  1
  O  O57  1  0.45775256  0.16022934  0.52866867  1
  O  O58  1  0.70247778  0.54224744  0.52866867  1
  O  O59  1  0.83977066  0.29752222  0.52866867  1
  O  O60  1  0.54665752  0.69341743  0.97161310  1
  O  O61  1  0.14675891  0.45334248  0.97161310  1
  O  O62  1  0.30658257  0.85324109  0.97161310  1
  O  O63  1  0.54665752  0.85324109  0.47161310  1
  O  O64  1  0.30658257  0.45334248  0.47161310  1
  O  O65  1  0.14675891  0.69341743  0.47161310  1
  O  O66  1  0.12441856  0.63085622  0.36200267  1
  O  O67  1  0.50643666  0.87558144  0.36200267  1
  O  O68  1  0.36914378  0.49356334  0.36200267  1
  O  O69  1  0.12441856  0.49356334  0.86200267  1
  O  O70  1  0.36914378  0.87558144  0.86200267  1
  O  O71  1  0.50643666  0.63085622  0.86200267  1
  O  O72  1  0.01505634  0.82040020  0.41002723  1
  O  O73  1  0.80534386  0.98494366  0.41002723  1
  O  O74  1  0.17959980  0.19465614  0.41002723  1
  O  O75  1  0.01505634  0.19465614  0.91002723  1
  O  O76  1  0.17959980  0.98494366  0.91002723  1
  O  O77  1  0.80534386  0.82040020  0.91002723  1
  O  O78  1  0.96843280  0.15780349  0.59007374  1
  O  O79  1  0.18937069  0.03156720  0.59007374  1
  O  O80  1  0.84219651  0.81062931  0.59007374  1
  O  O81  1  0.96843280  0.81062931  0.09007374  1
  O  O82  1  0.84219651  0.03156720  0.09007374  1
  O  O83  1  0.18937069  0.15780349  0.09007374  1
  O  O84  1  0.68172334  0.15373320  0.74336023  1
  O  O85  1  0.47201086  0.31827666  0.74336023  1
  O  O86  1  0.84626680  0.52798914  0.74336023  1
  O  O87  1  0.68172334  0.52798914  0.24336023  1
  O  O88  1  0.84626680  0.31827666  0.24336023  1
  O  O89  1  0.47201086  0.15373320  0.24336023  1
  O  O90  1  0.63509980  0.49113649  0.92340674  1
  O  O91  1  0.85603769  0.36490020  0.92340674  1
  O  O92  1  0.50886351  0.14396231  0.92340674  1
  O  O93  1  0.63509980  0.14396231  0.42340674  1
  O  O94  1  0.50886351  0.36490020  0.42340674  1
  O  O95  1  0.85603769  0.49113649  0.42340674  1
  O  O96  1  0.34838934  0.48706720  0.07669423  1
  O  O97  1  0.13867686  0.65161066  0.07669423  1
  O  O98  1  0.51293280  0.86132314  0.07669423  1
  O  O99  1  0.34838934  0.86132314  0.57669423  1
  O  O100  1  0.51293280  0.65161066  0.57669423  1
  O  O101  1  0.13867686  0.48706720  0.57669423  1
  O  O102  1  0.30176580  0.82447049  0.25674074  1
  O  O103  1  0.52270369  0.69823420  0.25674074  1
  O  O104  1  0.17552951  0.47729631  0.25674074  1
  O  O105  1  0.30176580  0.47729631  0.75674074  1
  O  O106  1  0.17552951  0.69823420  0.75674074  1
  O  O107  1  0.52270369  0.82447049  0.75674074  1
