# generated using pymatgen
data_CaHCl
_symmetry_space_group_name_H-M   'P 1'
_cell_length_a   3.81667860
_cell_length_b   3.81667860
_cell_length_c   6.90281062
_cell_angle_alpha   90.00000000
_cell_angle_beta   90.00000000
_cell_angle_gamma   90.00000000
_symmetry_Int_Tables_number   1
_chemical_formula_structural   CaHCl
_chemical_formula_sum   'Ca2 H2 Cl2'
_cell_volume   100.55348760
_cell_formula_units_Z   2
loop_
 _symmetry_equiv_pos_site_id
 _symmetry_equiv_pos_as_xyz
  1  'x, y, z'
loop_
 _atom_site_type_symbol
 _atom_site_label
 _atom_site_symmetry_multiplicity
 _atom_site_fract_x
 _atom_site_fract_y
 _atom_site_fract_z
 _atom_site_occupancy
  Ca  Ca0  1  0.75000000  0.75000000  0.80792328  1
  Ca  Ca1  1  0.25000000  0.25000000  0.19207672  1
  H  H2  1  0.25000000  0.75000000  -0.00000000  1
  H  H3  1  0.75000000  0.25000000  -0.00000000  1
  Cl  Cl4  1  0.25000000  0.25000000  0.65283955  1
  Cl  Cl5  1  0.75000000  0.75000000  0.34716045  1
