# generated using pymatgen
data_Na4Mg2Ga2SiS5O24
_symmetry_space_group_name_H-M   'P 1'
_cell_length_a   8.74974007
_cell_length_b   8.70207950
_cell_length_c   22.23719702
_cell_angle_alpha   90.47425589
_cell_angle_beta   89.54048564
_cell_angle_gamma   119.61917681
_symmetry_Int_Tables_number   1
_chemical_formula_structural   Na4Mg2Ga2SiS5O24
_chemical_formula_sum   'Na12 Mg6 Ga6 Si3 S15 O72'
_cell_volume   1471.84939969
_cell_formula_units_Z   3
loop_
 _symmetry_equiv_pos_site_id
 _symmetry_equiv_pos_as_xyz
  1  'x, y, z'
loop_
 _atom_site_type_symbol
 _atom_site_label
 _atom_site_symmetry_multiplicity
 _atom_site_fract_x
 _atom_site_fract_y
 _atom_site_fract_z
 _atom_site_occupancy
  Na  Na0  1  0.99732088  0.63184772  0.24140665  1
  Na  Na1  1  0.99438963  0.35657139  0.75467620  1
  Na  Na2  1  0.37458424  0.99700325  0.74976204  1
  Na  Na3  1  0.65998793  0.97120966  0.58808615  1
  Na  Na4  1  0.67748893  0.68911717  0.07934314  1
  Na  Na5  1  0.33571039  0.03572778  0.42136590  1
  Na  Na6  1  0.01051589  0.00237843  0.50215600  1
  Na  Na7  1  0.00889566  0.99663347  0.00209260  1
  Na  Na8  1  0.66653619  0.33452137  0.83884001  1
  Na  Na9  1  0.66664413  0.33366784  0.33110245  1
  Na  Na10  1  0.32252473  0.66348148  0.16232040  1
  Na  Na11  1  0.34579060  0.67315886  0.66666842  1
  Mg  Mg12  1  0.99518163  0.00167953  0.35082008  1
  Mg  Mg13  1  0.67290906  0.33537856  0.17960144  1
  Mg  Mg14  1  0.67554054  0.34329017  0.98544908  1
  Mg  Mg15  1  0.65852842  0.32999887  0.48359735  1
  Mg  Mg16  1  0.33728730  0.66364283  0.31358398  1
  Mg  Mg17  1  0.35040676  0.67569118  0.81594768  1
  Ga  Ga18  1  0.98197620  0.99931869  0.85390472  1
  Ga  Ga19  1  0.00220975  0.99337024  0.64922578  1
  Ga  Ga20  1  0.00776067  0.00056639  0.14688661  1
  Ga  Ga21  1  0.65815866  0.31136704  0.68067659  1
  Ga  Ga22  1  0.31558671  0.66786025  0.01772908  1
  Ga  Ga23  1  0.32800193  0.67175459  0.51809690  1
  Si  Si24  1  0.71151350  0.99782481  0.74703963  1
  Si  Si25  1  0.36004461  0.03421689  0.58119435  1
  Si  Si26  1  0.96693064  0.63132704  0.08543386  1
  S  S27  1  0.29653845  0.00469986  0.25181931  1
  S  S28  1  0.70500715  0.70811985  0.25020971  1
  S  S29  1  0.99793645  0.28668403  0.24979573  1
  S  S30  1  0.29261418  0.29116429  0.75070012  1
  S  S31  1  0.99317100  0.70580876  0.75081045  1
  S  S32  1  0.96351349  0.33852497  0.58228844  1
  S  S33  1  0.66600762  0.61956878  0.58349954  1
  S  S34  1  0.66615968  0.03868338  0.08275373  1
  S  S35  1  0.37068913  0.33161130  0.08283391  1
  S  S36  1  0.62482773  0.66611630  0.91753930  1
  S  S37  1  0.04295536  0.37275946  0.91470404  1
  S  S38  1  0.32898323  0.96366782  0.91436815  1
  S  S39  1  0.62809822  0.95719943  0.41700122  1
  S  S40  1  0.33411838  0.38090761  0.41747826  1
  S  S41  1  0.03797031  0.66290343  0.41552400  1
  O  O42  1  0.21707555  0.02796129  0.30795602  1
  O  O43  1  0.82026758  0.79252448  0.30256910  1
  O  O44  1  0.97944437  0.18424550  0.30396063  1
  O  O45  1  0.21777831  0.17379640  0.80381606  1
  O  O46  1  0.96916835  0.78895334  0.80554653  1
  O  O47  1  0.84576005  0.04847244  0.80428860  1
  O  O48  1  0.80461999  0.97702991  0.68528845  1
  O  O49  1  0.18260131  0.21229090  0.69621163  1
  O  O50  1  0.03651992  0.82098408  0.69701656  1
  O  O51  1  0.78551657  0.81460252  0.19442590  1
  O  O52  1  0.02451894  0.20299132  0.19467385  1
  O  O53  1  0.17848207  0.97180694  0.19906154  1
  O  O54  1  0.89159293  0.37272650  0.63966881  1
  O  O55  1  0.48816055  0.11334707  0.64179475  1
  O  O56  1  0.64391759  0.51558944  0.63905945  1
  O  O57  1  0.89311834  0.52670285  0.14804700  1
  O  O58  1  0.63076532  0.11166063  0.13732791  1
  O  O59  1  0.47798707  0.36137985  0.13708375  1
  O  O60  1  0.44457786  0.29572854  0.02872998  1
  O  O61  1  0.83562266  0.55159186  0.02911138  1
  O  O62  1  0.68961888  0.14261778  0.02854541  1
  O  O63  1  0.44288318  0.14368406  0.52095256  1
  O  O64  1  0.69428323  0.54152133  0.52954290  1
  O  O65  1  0.85000143  0.31196168  0.53090553  1
  O  O66  1  0.54386489  0.69451189  0.97339851  1
  O  O67  1  0.15559790  0.45826243  0.96802722  1
  O  O68  1  0.30053039  0.85110661  0.96797433  1
  O  O69  1  0.54947971  0.85238423  0.47390131  1
  O  O70  1  0.30825657  0.46383898  0.47339507  1
  O  O71  1  0.15461688  0.69711384  0.46939689  1
  O  O72  1  0.11937983  0.63973588  0.36052173  1
  O  O73  1  0.51115983  0.87150794  0.36562471  1
  O  O74  1  0.35335441  0.48460655  0.36408696  1
  O  O75  1  0.12257640  0.47366699  0.85904123  1
  O  O76  1  0.35201609  0.88312689  0.85868977  1
  O  O77  1  0.52163114  0.64767720  0.86401065  1
  O  O78  1  0.02624650  0.82864386  0.41185320  1
  O  O79  1  0.80327799  0.97381312  0.41123973  1
  O  O80  1  0.17722662  0.19904279  0.41405825  1
  O  O81  1  0.03217479  0.19345996  0.91225792  1
  O  O82  1  0.16443330  0.97905277  0.90939026  1
  O  O83  1  0.80555009  0.82926229  0.91342203  1
  O  O84  1  0.97410181  0.17372499  0.58753465  1
  O  O85  1  0.16522777  0.01301892  0.59269292  1
  O  O86  1  0.81925625  0.80283354  0.58798922  1
  O  O87  1  0.98324524  0.83296626  0.09157463  1
  O  O88  1  0.82861587  0.02228675  0.08970795  1
  O  O89  1  0.18867513  0.18123498  0.09058140  1
  O  O90  1  0.69689807  0.18505067  0.74349691  1
  O  O91  1  0.47277630  0.31450506  0.74325225  1
  O  O92  1  0.83284669  0.53113330  0.74263235  1
  O  O93  1  0.68717542  0.52923164  0.24545036  1
  O  O94  1  0.83881946  0.30589218  0.24596922  1
  O  O95  1  0.47095927  0.16015365  0.24391349  1
  O  O96  1  0.64286741  0.50698033  0.92174311  1
  O  O97  1  0.86525489  0.34976103  0.92110613  1
  O  O98  1  0.48544159  0.13912275  0.92193370  1
  O  O99  1  0.64477124  0.13594965  0.42220733  1
  O  O100  1  0.49330110  0.36055403  0.42126373  1
  O  O101  1  0.86362857  0.50662597  0.42366819  1
  O  O102  1  0.36382427  0.50076335  0.07551764  1
  O  O103  1  0.16522598  0.65422941  0.07652526  1
  O  O104  1  0.51570743  0.85207764  0.07570194  1
  O  O105  1  0.35408868  0.83807945  0.57664244  1
  O  O106  1  0.50432151  0.63875022  0.57896571  1
  O  O107  1  0.14303274  0.49318775  0.57626090  1
  O  O108  1  0.30699818  0.83819557  0.25584439  1
  O  O109  1  0.53001188  0.69248275  0.25632193  1
  O  O110  1  0.15518073  0.46827111  0.25359875  1
  O  O111  1  0.30175694  0.46402641  0.75832749  1
  O  O112  1  0.14745110  0.67751618  0.75671000  1
  O  O113  1  0.51383410  0.83401778  0.75199194  1
