# generated using pymatgen
data_Na6Ta4Nb4Si11SO48
_symmetry_space_group_name_H-M   'P 1'
_cell_length_a   17.89769231
_cell_length_b   8.94592154
_cell_length_c   22.87857279
_cell_angle_alpha   90.08316852
_cell_angle_beta   89.98157466
_cell_angle_gamma   120.10375956
_symmetry_Int_Tables_number   1
_chemical_formula_structural   Na6Ta4Nb4Si11SO48
_chemical_formula_sum   'Na18 Ta12 Nb12 Si33 S3 O144'
_cell_volume   3169.02854265
_cell_formula_units_Z   3
loop_
 _symmetry_equiv_pos_site_id
 _symmetry_equiv_pos_as_xyz
  1  'x, y, z'
loop_
 _atom_site_type_symbol
 _atom_site_label
 _atom_site_symmetry_multiplicity
 _atom_site_fract_x
 _atom_site_fract_y
 _atom_site_fract_z
 _atom_site_occupancy
  Na  Na0  1  0.68250877  0.99948898  0.75029941  1
  Na  Na1  1  0.01612543  0.69645097  0.58269032  1
  Na  Na2  1  0.51652430  0.69998144  0.58323720  1
  Na  Na3  1  0.83240655  0.69548514  0.08236875  1
  Na  Na4  1  0.34955536  0.03205619  0.91711390  1
  Na  Na5  1  0.48416393  0.30389203  0.41718411  1
  Na  Na6  1  0.00101611  0.00628492  0.49886100  1
  Na  Na7  1  0.50099721  0.00012199  0.50137885  1
  Na  Na8  1  0.00392873  0.00678890  0.99896907  1
  Na  Na9  1  0.50335327  0.99961067  0.99956666  1
  Na  Na10  1  0.33474408  0.33935625  0.83377001  1
  Na  Na11  1  0.83618887  0.33944410  0.83490196  1
  Na  Na12  1  0.33209391  0.33587903  0.33258097  1
  Na  Na13  1  0.83529965  0.33641684  0.33403812  1
  Na  Na14  1  0.16742332  0.66544643  0.16535275  1
  Na  Na15  1  0.66395892  0.66346604  0.16606531  1
  Na  Na16  1  0.16984966  0.66963562  0.66740973  1
  Na  Na17  1  0.66862537  0.66057084  0.66728016  1
  Ta  Ta18  1  0.99309060  0.99058060  0.85764715  1
  Ta  Ta19  1  0.50176937  0.99859287  0.85434918  1
  Ta  Ta20  1  0.49959676  0.00435806  0.64676250  1
  Ta  Ta21  1  0.49428848  0.00305905  0.14255978  1
  Ta  Ta22  1  0.83552885  0.33827001  0.68821274  1
  Ta  Ta23  1  0.33324017  0.33835950  0.97958212  1
  Ta  Ta24  1  0.83259462  0.33150851  0.97755486  1
  Ta  Ta25  1  0.83459773  0.33208497  0.47836149  1
  Ta  Ta26  1  0.16669714  0.66459503  0.02111852  1
  Ta  Ta27  1  0.66374100  0.66547197  0.02029618  1
  Ta  Ta28  1  0.16788983  0.66527197  0.52051668  1
  Ta  Ta29  1  0.66589777  0.66222018  0.81328730  1
  Nb  Nb30  1  0.99301952  0.99500608  0.35728804  1
  Nb  Nb31  1  0.49313109  0.99175924  0.35549992  1
  Nb  Nb32  1  0.99475332  0.99121410  0.64417599  1
  Nb  Nb33  1  0.99808414  0.00926644  0.14338315  1
  Nb  Nb34  1  0.33750293  0.33242304  0.68595595  1
  Nb  Nb35  1  0.33828104  0.34164111  0.18505898  1
  Nb  Nb36  1  0.83872180  0.34305338  0.18529822  1
  Nb  Nb37  1  0.33030955  0.33442820  0.47932955  1
  Nb  Nb38  1  0.66925189  0.67009928  0.52096561  1
  Nb  Nb39  1  0.16640592  0.65720170  0.31414118  1
  Nb  Nb40  1  0.66796256  0.65745857  0.31374381  1
  Nb  Nb41  1  0.16693784  0.67531983  0.81506956  1
  Si  Si42  1  0.35413594  0.70900305  0.24872747  1
  Si  Si43  1  0.85557687  0.71095130  0.24938839  1
  Si  Si44  1  0.99919444  0.28941258  0.25088571  1
  Si  Si45  1  0.49926558  0.28832991  0.24978341  1
  Si  Si46  1  0.64431649  0.29177818  0.75010261  1
  Si  Si47  1  0.00113759  0.71264665  0.75041835  1
  Si  Si48  1  0.49794784  0.70868303  0.74988187  1
  Si  Si49  1  0.35514132  0.99777336  0.75089260  1
  Si  Si50  1  0.85588083  0.00047228  0.75088474  1
  Si  Si51  1  0.47810593  0.32924739  0.58144923  1
  Si  Si52  1  0.97717835  0.33107070  0.58322160  1
  Si  Si53  1  0.18946771  0.04504658  0.58386333  1
  Si  Si54  1  0.69037073  0.04961464  0.58368780  1
  Si  Si55  1  0.33147023  0.62157590  0.58451597  1
  Si  Si56  1  0.82972784  0.61425291  0.58293018  1
  Si  Si57  1  0.47930808  0.62585857  0.08246203  1
  Si  Si58  1  0.98042913  0.62357025  0.08141111  1
  Si  Si59  1  0.33032876  0.04513973  0.08242100  1
  Si  Si60  1  0.83046508  0.04729421  0.08281160  1
  Si  Si61  1  0.19044673  0.33512915  0.08346109  1
  Si  Si62  1  0.68816035  0.32959569  0.08294878  1
  Si  Si63  1  0.31017761  0.66314303  0.91639693  1
  Si  Si64  1  0.80792103  0.66169711  0.91778714  1
  Si  Si65  1  0.02275333  0.37902195  0.91670878  1
  Si  Si66  1  0.52244245  0.37837821  0.91665730  1
  Si  Si67  1  0.16481947  0.95669974  0.91857236  1
  Si  Si68  1  0.66674644  0.95459017  0.91614417  1
  Si  Si69  1  0.30728128  0.95322076  0.41650481  1
  Si  Si70  1  0.80831308  0.95564469  0.41610752  1
  Si  Si71  1  0.16580533  0.37537154  0.41740003  1
  Si  Si72  1  0.66865838  0.37565068  0.41785219  1
  Si  Si73  1  0.02298473  0.66654216  0.41691505  1
  Si  Si74  1  0.52359183  0.67005640  0.41658313  1
  S  S75  1  0.14382552  -0.00000621  0.25011874  1
  S  S76  1  0.64348320  -0.00005656  0.24972904  1
  S  S77  1  0.14357713  0.28695252  0.75030308  1
  O  O78  1  0.10432915  0.02732244  0.30294848  1
  O  O79  1  0.60352742  0.02681700  0.30296487  1
  O  O80  1  0.41667096  0.80402377  0.30643886  1
  O  O81  1  0.91726524  0.80442781  0.30635639  1
  O  O82  1  0.48735681  0.17002635  0.30822610  1
  O  O83  1  0.98735185  0.16561131  0.30683850  1
  O  O84  1  0.10359727  0.18007423  0.80296910  1
  O  O85  1  0.59890667  0.16354976  0.80615247  1
  O  O86  1  0.48496647  0.80463535  0.80656349  1
  O  O87  1  0.98779860  0.81116062  0.80619448  1
  O  O88  1  0.41500784  0.03029146  0.80887411  1
  O  O89  1  0.91829362  0.03111542  0.80670976  1
  O  O90  1  0.40257458  0.97144841  0.69341040  1
  O  O91  1  0.90425467  0.97349860  0.69368749  1
  O  O92  1  0.09031177  0.20668038  0.69703268  1
  O  O93  1  0.58356264  0.19618999  0.69285455  1
  O  O94  1  0.01522204  0.83120325  0.69151845  1
  O  O95  1  0.51662812  0.83147860  0.69182191  1
  O  O96  1  0.40457499  0.83429847  0.19339529  1
  O  O97  1  0.90218532  0.83031400  0.19158455  1
  O  O98  1  0.01483843  0.19594127  0.19351120  1
  O  O99  1  0.51512260  0.19421062  0.19375118  1
  O  O100  1  0.09027984  0.97276393  0.19710098  1
  O  O101  1  0.58993795  0.97262050  0.19703944  1
  O  O102  1  0.43320622  0.36750960  0.63872192  1
  O  O103  1  0.93230893  0.36830047  0.63974471  1
  O  O104  1  0.25015946  0.13701310  0.64083153  1
  O  O105  1  0.74904388  0.13511903  0.64230393  1
  O  O106  1  0.31812578  0.49805899  0.64087667  1
  O  O107  1  0.81864674  0.50006233  0.64092523  1
  O  O108  1  0.43348176  0.50183714  0.14012744  1
  O  O109  1  0.93347971  0.50212976  0.14006130  1
  O  O110  1  0.31863316  0.13854213  0.14044574  1
  O  O111  1  0.81788864  0.13732109  0.14120352  1
  O  O112  1  0.25064619  0.36275041  0.14101629  1
  O  O113  1  0.75187905  0.36721535  0.14007165  1
  O  O114  1  0.23528677  0.30197831  0.02637245  1
  O  O115  1  0.73540090  0.30273374  0.02631216  1
  O  O116  1  0.41677356  0.53159336  0.02646504  1
  O  O117  1  0.91422349  0.53337070  0.02708500  1
  O  O118  1  0.34866605  0.16450740  0.02437557  1
  O  O119  1  0.84904780  0.16895351  0.02624404  1
  O  O120  1  0.23504551  0.16711027  0.52648714  1
  O  O121  1  0.73633263  0.16991368  0.52662366  1
  O  O122  1  0.35072157  0.53212112  0.52750181  1
  O  O123  1  0.85195227  0.53250450  0.52670129  1
  O  O124  1  0.41869974  0.30266405  0.52402988  1
  O  O125  1  0.91682312  0.30148682  0.52622509  1
  O  O126  1  0.26594827  0.70228450  0.97259250  1
  O  O127  1  0.76686590  0.69752623  0.97612661  1
  O  O128  1  0.08418817  0.47037526  0.97354121  1
  O  O129  1  0.58375487  0.47013879  0.97362601  1
  O  O130  1  0.15069105  0.83230279  0.97398120  1
  O  O131  1  0.65201508  0.83178619  0.97321714  1
  O  O132  1  0.26461387  0.83217361  0.47373927  1
  O  O133  1  0.76480934  0.83240512  0.47344312  1
  O  O134  1  0.15095700  0.46913830  0.47378307  1
  O  O135  1  0.64788758  0.46687468  0.47284559  1
  O  O136  1  0.08205518  0.69695267  0.47550603  1
  O  O137  1  0.58124493  0.69785395  0.47547111  1
  O  O138  1  0.06982485  0.63741772  0.35975864  1
  O  O139  1  0.56885777  0.63338147  0.36028208  1
  O  O140  1  0.24958393  0.86311925  0.35871890  1
  O  O141  1  0.74902757  0.86239707  0.35880131  1
  O  O142  1  0.18243967  0.49880986  0.35978784  1
  O  O143  1  0.68227176  0.49820896  0.35998226  1
  O  O144  1  0.06907766  0.50130388  0.85908814  1
  O  O145  1  0.56862964  0.50086962  0.85970968  1
  O  O146  1  0.18434655  0.86837384  0.86077513  1
  O  O147  1  0.68136189  0.86652378  0.85744661  1
  O  O148  1  0.24946399  0.63605214  0.85902236  1
  O  O149  1  0.74946592  0.63798428  0.85991849  1
  O  O150  1  0.01404422  0.83865171  0.40762072  1
  O  O151  1  0.51402916  0.84062797  0.40789550  1
  O  O152  1  0.40574891  0.97886567  0.40957932  1
  O  O153  1  0.90429660  0.97374006  0.40986799  1
  O  O154  1  0.08201927  0.18544162  0.40759464  1
  O  O155  1  0.58048786  0.18973545  0.40759930  1
  O  O156  1  0.01390547  0.18906284  0.90679116  1
  O  O157  1  0.50949270  0.18472042  0.90890316  1
  O  O158  1  0.08173291  0.97951911  0.90711463  1
  O  O159  1  0.58099623  0.97425419  0.90867762  1
  O  O160  1  0.40435529  0.83982387  0.90863965  1
  O  O161  1  0.90450277  0.83532532  0.90933505  1
  O  O162  1  0.48752129  0.16007785  0.59034935  1
  O  O163  1  0.98973417  0.16433501  0.59272823  1
  O  O164  1  0.09276614  0.02041996  0.59164522  1
  O  O165  1  0.59204782  0.01802091  0.59088787  1
  O  O166  1  0.42023247  0.80852283  0.59140994  1
  O  O167  1  0.91859748  0.80661084  0.59059215  1
  O  O168  1  0.48926462  0.81460378  0.09347564  1
  O  O169  1  0.98580407  0.81020740  0.09264290  1
  O  O170  1  0.41718282  0.02599122  0.09100204  1
  O  O171  1  0.91610534  0.02106226  0.09060512  1
  O  O172  1  0.09497125  0.16142585  0.09250000  1
  O  O173  1  0.59352536  0.15983507  0.09285286  1
  O  O174  1  0.34387145  0.16855151  0.74200790  1
  O  O175  1  0.84341610  0.16817267  0.74230453  1
  O  O176  1  0.23063171  0.30524313  0.74417962  1
  O  O177  1  0.73789562  0.30210972  0.74222631  1
  O  O178  1  0.41212885  0.51809455  0.74295475  1
  O  O179  1  0.91483243  0.52278891  0.74224596  1
  O  O180  1  0.34373584  0.51749495  0.24313767  1
  O  O181  1  0.84335306  0.51756978  0.24293299  1
  O  O182  1  0.41281170  0.30506147  0.24316446  1
  O  O183  1  0.91266749  0.30502618  0.24300691  1
  O  O184  1  0.23108657  0.15569446  0.24410998  1
  O  O185  1  0.73057882  0.15578825  0.24420424  1
  O  O186  1  0.32093982  0.49443483  0.92401603  1
  O  O187  1  0.82106713  0.49591607  0.92423333  1
  O  O188  1  0.42553194  0.35163850  0.92425687  1
  O  O189  1  0.92758089  0.35847754  0.92491207  1
  O  O190  1  0.25392592  0.14293110  0.92439973  1
  O  O191  1  0.75180055  0.14524833  0.92436510  1
  O  O192  1  0.32502667  0.14967497  0.42334431  1
  O  O193  1  0.82092131  0.14647866  0.42402815  1
  O  O194  1  0.25237284  0.35966534  0.42417858  1
  O  O195  1  0.75353565  0.35887471  0.42438952  1
  O  O196  1  0.42925818  0.49462992  0.42360736  1
  O  O197  1  0.92760654  0.49666360  0.42475070  1
  O  O198  1  0.17930743  0.50309863  0.07525279  1
  O  O199  1  0.68215192  0.50593893  0.07584678  1
  O  O200  1  0.07432774  0.64198951  0.07604268  1
  O  O201  1  0.57352823  0.64207826  0.07586208  1
  O  O202  1  0.24772902  0.85288268  0.07542183  1
  O  O203  1  0.74992897  0.85016674  0.07641727  1
  O  O204  1  0.17539523  0.85101905  0.57590829  1
  O  O205  1  0.67629185  0.85332620  0.57608228  1
  O  O206  1  0.24707943  0.64193090  0.57588027  1
  O  O207  1  0.74741050  0.64168906  0.57624520  1
  O  O208  1  0.07116075  0.50736351  0.57574746  1
  O  O209  1  0.57115307  0.50736365  0.57636011  1
  O  O210  1  0.15286000  0.84389084  0.25566361  1
  O  O211  1  0.65242631  0.84384053  0.25599395  1
  O  O212  1  0.26030360  0.69515923  0.25722773  1
  O  O213  1  0.76056371  0.69498560  0.25711938  1
  O  O214  1  0.08458923  0.48189056  0.25700635  1
  O  O215  1  0.58449786  0.48173962  0.25739607  1
  O  O216  1  0.15283110  0.46097232  0.75555613  1
  O  O217  1  0.65444662  0.48129496  0.75713831  1
  O  O218  1  0.08555935  0.68890229  0.75724434  1
  O  O219  1  0.58607576  0.69698751  0.75738459  1
  O  O220  1  0.25962605  0.82501928  0.75720755  1
  O  O221  1  0.75918382  0.83286605  0.75704282  1
