# generated using pymatgen
data_Ca3(AlN2)2
_symmetry_space_group_name_H-M   'P 1'
_cell_length_a   5.81386699
_cell_length_b   10.68021306
_cell_length_c   15.85468931
_cell_angle_alpha   90.00000000
_cell_angle_beta   90.00000000
_cell_angle_gamma   90.00000000
_symmetry_Int_Tables_number   1
_chemical_formula_structural   Ca3(AlN2)2
_chemical_formula_sum   'Ca24 Al16 N32'
_cell_volume   984.47058468
_cell_formula_units_Z   8
loop_
 _symmetry_equiv_pos_site_id
 _symmetry_equiv_pos_as_xyz
  1  'x, y, z'
loop_
 _atom_site_type_symbol
 _atom_site_label
 _atom_site_symmetry_multiplicity
 _atom_site_fract_x
 _atom_site_fract_y
 _atom_site_fract_z
 _atom_site_occupancy
  Ca  Ca0  1  0.72226661  0.76765790  0.55907597  1
  Ca  Ca1  1  0.22226661  0.73234210  0.44092403  1
  Ca  Ca2  1  0.27773339  0.26765790  0.94092403  1
  Ca  Ca3  1  0.77773339  0.23234210  0.05907597  1
  Ca  Ca4  1  0.99780917  0.51043548  0.57308783  1
  Ca  Ca5  1  0.49780917  0.98956452  0.42691217  1
  Ca  Ca6  1  0.00219083  0.01043548  0.92691217  1
  Ca  Ca7  1  0.50219083  0.48956452  0.07308783  1
  Ca  Ca8  1  0.03620850  0.97174124  0.70367906  1
  Ca  Ca9  1  0.53620850  0.52825876  0.29632094  1
  Ca  Ca10  1  0.96379150  0.47174124  0.79632094  1
  Ca  Ca11  1  0.46379150  0.02825876  0.20367906  1
  Ca  Ca12  1  0.20705845  0.75871021  0.06161730  1
  Ca  Ca13  1  0.70705845  0.74128979  0.93838270  1
  Ca  Ca14  1  0.79294155  0.25871021  0.43838270  1
  Ca  Ca15  1  0.29294155  0.24128979  0.56161730  1
  Ca  Ca16  1  0.23930805  0.73591236  0.83290936  1
  Ca  Ca17  1  0.73930805  0.76408764  0.16709064  1
  Ca  Ca18  1  0.76069195  0.23591236  0.66709064  1
  Ca  Ca19  1  0.26069195  0.26408764  0.33290936  1
  Ca  Ca20  1  0.46759765  0.49103408  0.67995948  1
  Ca  Ca21  1  0.96759765  0.00896592  0.32004052  1
  Ca  Ca22  1  0.53240235  0.99103408  0.82004052  1
  Ca  Ca23  1  0.03240235  0.50896592  0.17995948  1
  Al  Al24  1  0.01317513  0.99078914  0.50687843  1
  Al  Al25  1  0.51317513  0.50921086  0.49312157  1
  Al  Al26  1  0.98682487  0.49078914  0.99312157  1
  Al  Al27  1  0.48682487  0.00921086  0.00687843  1
  Al  Al28  1  0.25553914  0.24952681  0.74855631  1
  Al  Al29  1  0.75553914  0.25047319  0.25144369  1
  Al  Al30  1  0.74446086  0.74952681  0.75144369  1
  Al  Al31  1  0.24446086  0.75047319  0.24855631  1
  Al  Al32  1  0.26331907  0.75648484  0.62841558  1
  Al  Al33  1  0.76331907  0.74351516  0.37158442  1
  Al  Al34  1  0.73668093  0.25648484  0.87158442  1
  Al  Al35  1  0.23668093  0.24351516  0.12841558  1
  Al  Al36  1  0.49211479  0.98158984  0.63096743  1
  Al  Al37  1  0.99211479  0.51841016  0.36903257  1
  Al  Al38  1  0.50788521  0.48158984  0.86903257  1
  Al  Al39  1  0.00788521  0.01841016  0.13096743  1
  N  N40  1  0.88089078  0.86468302  0.82759163  1
  N  N41  1  0.38089078  0.63531698  0.17240837  1
  N  N42  1  0.11910922  0.36468302  0.67240837  1
  N  N43  1  0.61910922  0.13531698  0.32759163  1
  N  N44  1  0.97836231  0.70802942  0.67259020  1
  N  N45  1  0.47836231  0.79197058  0.32740980  1
  N  N46  1  0.02163769  0.20802942  0.82740980  1
  N  N47  1  0.52163769  0.29197058  0.17259020  1
  N  N48  1  0.12778514  0.88727237  0.19101355  1
  N  N49  1  0.62778514  0.61272763  0.80898645  1
  N  N50  1  0.87221486  0.38727237  0.30898645  1
  N  N51  1  0.37221486  0.11272763  0.69101355  1
  N  N52  1  0.21975706  0.52546191  0.91189738  1
  N  N53  1  0.71975706  0.97453809  0.08810262  1
  N  N54  1  0.78024294  0.02546191  0.58810262  1
  N  N55  1  0.28024294  0.47453809  0.41189738  1
  N  N56  1  0.27308644  0.90463532  0.55590504  1
  N  N57  1  0.77308644  0.59536468  0.44409496  1
  N  N58  1  0.72691356  0.40463532  0.94409496  1
  N  N59  1  0.22691356  0.09536468  0.05590504  1
  N  N60  1  0.37037131  0.87413047  0.94231143  1
  N  N61  1  0.87037131  0.62586953  0.05768857  1
  N  N62  1  0.62962869  0.37413047  0.55768857  1
  N  N63  1  0.12962869  0.12586953  0.44231143  1
  N  N64  1  0.38030013  0.62760619  0.56561597  1
  N  N65  1  0.88030013  0.87239381  0.43438403  1
  N  N66  1  0.61969987  0.12760619  0.93438403  1
  N  N67  1  0.11969987  0.37239381  0.06561597  1
  N  N68  1  0.48129172  0.83337896  0.70318009  1
  N  N69  1  0.98129172  0.66662104  0.29681991  1
  N  N70  1  0.51870828  0.33337896  0.79681991  1
  N  N71  1  0.01870828  0.16662104  0.20318009  1
