# generated using pymatgen
data_Na10Mg4Ga4Si3(S3O16)3
_symmetry_space_group_name_H-M   'P 1'
_cell_length_a   17.63999022
_cell_length_b   8.87412652
_cell_length_c   22.22413737
_cell_angle_alpha   89.88120445
_cell_angle_beta   88.02964505
_cell_angle_gamma   120.30004483
_symmetry_Int_Tables_number   1
_chemical_formula_structural   Na10Mg4Ga4Si3(S3O16)3
_chemical_formula_sum   'Na30 Mg12 Ga12 Si9 S27 O144'
_cell_volume   3001.17697094
_cell_formula_units_Z   3
loop_
 _symmetry_equiv_pos_site_id
 _symmetry_equiv_pos_as_xyz
  1  'x, y, z'
loop_
 _atom_site_type_symbol
 _atom_site_label
 _atom_site_symmetry_multiplicity
 _atom_site_fract_x
 _atom_site_fract_y
 _atom_site_fract_z
 _atom_site_occupancy
  Na  Na0  1  0.18845435  0.37209930  0.24539370  1
  Na  Na1  1  0.68859343  0.37462535  0.24546413  1
  Na  Na2  1  0.99225910  0.63892995  0.25441575  1
  Na  Na3  1  0.49460613  0.63442588  0.25916933  1
  Na  Na4  1  0.32310136  0.65138712  0.74619396  1
  Na  Na5  1  0.82023041  0.64518801  0.74621228  1
  Na  Na6  1  0.99448943  0.35197796  0.75234350  1
  Na  Na7  1  0.18820259  0.00220335  0.74215534  1
  Na  Na8  1  0.68817216  0.00440172  0.74305218  1
  Na  Na9  1  0.52045579  0.70482174  0.57568044  1
  Na  Na10  1  0.32690808  0.97120555  0.58884707  1
  Na  Na11  1  0.82674316  0.96678931  0.58740250  1
  Na  Na12  1  0.15288918  0.97917505  0.08100524  1
  Na  Na13  1  0.65263800  0.97893116  0.08083381  1
  Na  Na14  1  0.32914254  0.68818067  0.09093256  1
  Na  Na15  1  0.82878652  0.68799712  0.09125559  1
  Na  Na16  1  0.66131713  0.01615754  0.42408148  1
  Na  Na17  1  0.35545643  0.66923448  0.41106386  1
  Na  Na18  1  0.01354545  0.00286060  0.50019774  1
  Na  Na19  1  0.50851002  0.01031899  0.49890506  1
  Na  Na20  1  0.00683115  0.02297355  0.99922069  1
  Na  Na21  1  0.50729602  0.02446011  0.99889250  1
  Na  Na22  1  0.34361518  0.32065889  0.83265270  1
  Na  Na23  1  0.83306088  0.31984353  0.83524848  1
  Na  Na24  1  0.33639110  0.33045461  0.33474655  1
  Na  Na25  1  0.83792754  0.34748069  0.33292368  1
  Na  Na26  1  0.17052746  0.65555677  0.16592748  1
  Na  Na27  1  0.67088504  0.65622830  0.16695477  1
  Na  Na28  1  0.16524122  0.67925758  0.66054270  1
  Na  Na29  1  0.66325450  0.66156664  0.66384183  1
  Mg  Mg30  1  0.99612059  0.98976201  0.35187472  1
  Mg  Mg31  1  0.49736957  0.99124753  0.35166655  1
  Mg  Mg32  1  0.99679789  0.00327284  0.85268415  1
  Mg  Mg33  1  0.49660340  0.00371883  0.85260035  1
  Mg  Mg34  1  0.33185802  0.31644737  0.68389801  1
  Mg  Mg35  1  0.83061676  0.32190243  0.68240966  1
  Mg  Mg36  1  0.33119161  0.33902759  0.18452965  1
  Mg  Mg37  1  0.83071752  0.34021530  0.18406899  1
  Mg  Mg38  1  0.16301648  0.65033677  0.01798365  1
  Mg  Mg39  1  0.66275811  0.64986723  0.01782329  1
  Mg  Mg40  1  0.16151593  0.67166937  0.51911394  1
  Mg  Mg41  1  0.66548705  0.67032921  0.51673214  1
  Ga  Ga42  1  0.00136740  0.99858706  0.64746969  1
  Ga  Ga43  1  0.50341966  0.01143884  0.65104967  1
  Ga  Ga44  1  0.99683110  0.01230831  0.15279400  1
  Ga  Ga45  1  0.49770658  0.01124261  0.15211690  1
  Ga  Ga46  1  0.32746997  0.32815380  0.98480906  1
  Ga  Ga47  1  0.82665703  0.32751416  0.98491704  1
  Ga  Ga48  1  0.33195159  0.32694577  0.48249247  1
  Ga  Ga49  1  0.83022777  0.33323391  0.48713497  1
  Ga  Ga50  1  0.17560457  0.67802386  0.31743260  1
  Ga  Ga51  1  0.67245408  0.67349704  0.32090373  1
  Ga  Ga52  1  0.17714304  0.68058716  0.82140288  1
  Ga  Ga53  1  0.66974697  0.67204461  0.81893985  1
  Si  Si54  1  0.35314053  0.70990251  0.25108897  1
  Si  Si55  1  0.85292131  0.71189266  0.25163956  1
  Si  Si56  1  0.35651849  0.00515219  0.75238477  1
  Si  Si57  1  0.85512597  0.00015023  0.75105841  1
  Si  Si58  1  0.18367938  0.04109748  0.58501682  1
  Si  Si59  1  0.68324163  0.03882677  0.58618300  1
  Si  Si60  1  0.18206321  0.32864219  0.08683988  1
  Si  Si61  1  0.68166953  0.32900332  0.08649840  1
  Si  Si62  1  0.51843953  0.65915092  0.41864525  1
  S  S63  1  0.14692865  0.99624815  0.25103644  1
  S  S64  1  0.64797840  0.99858114  0.24948324  1
  S  S65  1  0.99885328  0.29347839  0.25200571  1
  S  S66  1  0.49869003  0.29073823  0.25072433  1
  S  S67  1  0.14573405  0.29470118  0.75154517  1
  S  S68  1  0.64506363  0.29668098  0.75174932  1
  S  S69  1  0.00079290  0.70838894  0.75181026  1
  S  S70  1  0.50137594  0.70619836  0.75178122  1
  S  S71  1  0.48113213  0.33243475  0.58267230  1
  S  S72  1  0.97966454  0.33470013  0.58293820  1
  S  S73  1  0.33194173  0.62341786  0.58363037  1
  S  S74  1  0.83416054  0.62496297  0.58308927  1
  S  S75  1  0.47933008  0.62228238  0.08156645  1
  S  S76  1  0.97930181  0.62208943  0.08142849  1
  S  S77  1  0.33555648  0.04812867  0.08146710  1
  S  S78  1  0.83571245  0.04884980  0.08139835  1
  S  S79  1  0.31535513  0.66148163  0.91794880  1
  S  S80  1  0.81441413  0.66168991  0.91704132  1
  S  S81  1  0.01859087  0.37809460  0.91689344  1
  S  S82  1  0.51838635  0.37777673  0.91763290  1
  S  S83  1  0.16787224  0.96373284  0.91789266  1
  S  S84  1  0.66786793  0.96232565  0.91745064  1
  S  S85  1  0.31163856  0.96167266  0.41688128  1
  S  S86  1  0.81736914  0.96822356  0.41833344  1
  S  S87  1  0.16313497  0.37271332  0.41644547  1
  S  S88  1  0.67041285  0.37640570  0.41684420  1
  S  S89  1  0.01867614  0.66023954  0.41701867  1
  O  O90  1  0.10608631  0.03235696  0.30328114  1
  O  O91  1  0.60732165  0.02967588  0.30359493  1
  O  O92  1  0.41074830  0.79554301  0.30839061  1
  O  O93  1  0.91917248  0.80157656  0.30405147  1
  O  O94  1  0.48946304  0.18741880  0.30446689  1
  O  O95  1  0.98887471  0.18888291  0.30535420  1
  O  O96  1  0.10799063  0.17965838  0.80500103  1
  O  O97  1  0.60639745  0.18135794  0.80475577  1
  O  O98  1  0.48904068  0.79054318  0.80468484  1
  O  O99  1  0.98759363  0.78817389  0.80567807  1
  O  O100  1  0.41106889  0.01478810  0.80824228  1
  O  O101  1  0.91833735  0.03519136  0.80495199  1
  O  O102  1  0.39676622  0.95893198  0.68918159  1
  O  O103  1  0.89657184  0.95550650  0.68833319  1
  O  O104  1  0.09143551  0.21861465  0.69817719  1
  O  O105  1  0.59485486  0.22094958  0.69682612  1
  O  O106  1  0.02090796  0.82119230  0.69703310  1
  O  O107  1  0.52139270  0.81792290  0.69570042  1
  O  O108  1  0.39788646  0.82680283  0.18705175  1
  O  O109  1  0.89566022  0.82691755  0.18609758  1
  O  O110  1  0.02135326  0.22378208  0.19651064  1
  O  O111  1  0.51797078  0.21725195  0.19510913  1
  O  O112  1  0.09423678  0.96503542  0.19587124  1
  O  O113  1  0.59386071  0.97216395  0.19545076  1
  O  O114  1  0.44142835  0.36660982  0.63635323  1
  O  O115  1  0.94203143  0.36122371  0.63957924  1
  O  O116  1  0.23985061  0.11768086  0.64464564  1
  O  O117  1  0.74188897  0.12345530  0.64342585  1
  O  O118  1  0.32430496  0.52534887  0.63929216  1
  O  O119  1  0.82524247  0.52747608  0.63927051  1
  O  O120  1  0.44167347  0.52002573  0.13767067  1
  O  O121  1  0.94191566  0.52041979  0.13775195  1
  O  O122  1  0.32325173  0.12932010  0.13517795  1
  O  O123  1  0.82363681  0.13024599  0.13512264  1
  O  O124  1  0.24036144  0.36030921  0.14465860  1
  O  O125  1  0.74023929  0.36085952  0.14410616  1
  O  O126  1  0.22610947  0.27892645  0.02750132  1
  O  O127  1  0.72565617  0.27881941  0.02712334  1
  O  O128  1  0.42374843  0.53558417  0.02904702  1
  O  O129  1  0.92373259  0.53459332  0.02898347  1
  O  O130  1  0.35168354  0.15559688  0.02550340  1
  O  O131  1  0.85194975  0.15643572  0.02532177  1
  O  O132  1  0.23381778  0.16881334  0.52481495  1
  O  O133  1  0.72765934  0.15565733  0.52271590  1
  O  O134  1  0.34906476  0.54548450  0.52903342  1
  O  O135  1  0.85004458  0.54374702  0.52888121  1
  O  O136  1  0.42744906  0.30345610  0.52913243  1
  O  O137  1  0.92262515  0.30906955  0.53093155  1
  O  O138  1  0.27012058  0.68234782  0.97100302  1
  O  O139  1  0.76995295  0.68165272  0.97068634  1
  O  O140  1  0.07110381  0.46645320  0.96816706  1
  O  O141  1  0.56961056  0.46267290  0.96989633  1
  O  O142  1  0.15696803  0.85687352  0.97172052  1
  O  O143  1  0.65720144  0.85660568  0.97152255  1
  O  O144  1  0.27057392  0.84894542  0.47088352  1
  O  O145  1  0.77629299  0.86516187  0.47415125  1
  O  O146  1  0.15330684  0.46076105  0.46905062  1
  O  O147  1  0.66049752  0.46237188  0.46978600  1
  O  O148  1  0.07164900  0.67706920  0.46803516  1
  O  O149  1  0.57706941  0.69313751  0.47597883  1
  O  O150  1  0.05936360  0.63559051  0.35881194  1
  O  O151  1  0.56666093  0.63557874  0.35575953  1
  O  O152  1  0.25767712  0.87911559  0.36282515  1
  O  O153  1  0.76027672  0.88571234  0.36582101  1
  O  O154  1  0.17819538  0.48206595  0.35910994  1
  O  O155  1  0.68417435  0.47854348  0.35963910  1
  O  O156  1  0.06151665  0.48628319  0.85891274  1
  O  O157  1  0.56126547  0.48833155  0.86087579  1
  O  O158  1  0.17909551  0.88012608  0.86118794  1
  O  O159  1  0.68005207  0.87972946  0.86099286  1
  O  O160  1  0.26254508  0.63430943  0.86210979  1
  O  O161  1  0.76218723  0.63634745  0.86145263  1
  O  O162  1  0.01021166  0.81625440  0.41189894  1
  O  O163  1  0.50790044  0.83288712  0.41275097  1
  O  O164  1  0.39987864  0.98257483  0.40955149  1
  O  O165  1  0.90513448  0.99139108  0.41030548  1
  O  O166  1  0.08600524  0.19758604  0.41083911  1
  O  O167  1  0.59265154  0.19860392  0.41223717  1
  O  O168  1  0.01004303  0.20489937  0.91195365  1
  O  O169  1  0.50990727  0.20481958  0.91203493  1
  O  O170  1  0.09026643  0.98379920  0.91260605  1
  O  O171  1  0.59061178  0.98329683  0.91207618  1
  O  O172  1  0.40340609  0.81590674  0.91170134  1
  O  O173  1  0.90266521  0.81702964  0.91074318  1
  O  O174  1  0.48458350  0.16784227  0.58922022  1
  O  O175  1  0.98157788  0.16830860  0.58657960  1
  O  O176  1  0.08517060  0.02488042  0.59097501  1
  O  O177  1  0.58253700  0.01376245  0.59234520  1
  O  O178  1  0.41165700  0.80375954  0.58469005  1
  O  O179  1  0.91167947  0.80570592  0.58380957  1
  O  O180  1  0.48490248  0.79624911  0.08439426  1
  O  O181  1  0.98489734  0.79584223  0.08419048  1
  O  O182  1  0.41138372  0.01866599  0.08414167  1
  O  O183  1  0.91188364  0.02024656  0.08400342  1
  O  O184  1  0.08401988  0.14276634  0.09374002  1
  O  O185  1  0.58399885  0.14310947  0.09271924  1
  O  O186  1  0.33818516  0.16500536  0.74707742  1
  O  O187  1  0.84129885  0.16811030  0.74540141  1
  O  O188  1  0.23708067  0.33170740  0.74269599  1
  O  O189  1  0.73664237  0.32907435  0.74389674  1
  O  O190  1  0.42065251  0.53547640  0.74482853  1
  O  O191  1  0.92011584  0.53429730  0.74517598  1
  O  O192  1  0.34231278  0.51528199  0.24612288  1
  O  O193  1  0.84102705  0.51618578  0.24544501  1
  O  O194  1  0.42044999  0.30816361  0.24436559  1
  O  O195  1  0.92065729  0.30996959  0.24448240  1
  O  O196  1  0.23681775  0.14468526  0.24291919  1
  O  O197  1  0.73702373  0.15085173  0.24226404  1
  O  O198  1  0.32273283  0.50093314  0.92228006  1
  O  O199  1  0.82259595  0.50133088  0.92148676  1
  O  O200  1  0.42861922  0.35965795  0.92259764  1
  O  O201  1  0.92911722  0.36045918  0.92158572  1
  O  O202  1  0.25036387  0.13800032  0.91908516  1
  O  O203  1  0.75060763  0.13742726  0.91886549  1
  O  O204  1  0.31864264  0.13402944  0.42098390  1
  O  O205  1  0.82306694  0.14383852  0.42165892  1
  O  O206  1  0.24548953  0.36391740  0.41796985  1
  O  O207  1  0.75041228  0.35519917  0.41944199  1
  O  O208  1  0.41652016  0.48378179  0.42443399  1
  O  O209  1  0.92859434  0.49796279  0.42306579  1
  O  O210  1  0.17632104  0.50330982  0.07737396  1
  O  O211  1  0.67631783  0.50411759  0.07741169  1
  O  O212  1  0.07027249  0.65667578  0.07356322  1
  O  O213  1  0.57035438  0.65749267  0.07361016  1
  O  O214  1  0.25398434  0.87290005  0.07637008  1
  O  O215  1  0.75433963  0.87376143  0.07624447  1
  O  O216  1  0.17577483  0.85062393  0.57686768  1
  O  O217  1  0.67307575  0.84503416  0.58039116  1
  O  O218  1  0.25354428  0.64153908  0.57850752  1
  O  O219  1  0.75455546  0.63948433  0.57767481  1
  O  O220  1  0.06876936  0.48266033  0.57428865  1
  O  O221  1  0.57091437  0.48195151  0.57513922  1
  O  O222  1  0.14871510  0.82952565  0.25887740  1
  O  O223  1  0.65194599  0.83568950  0.25476039  1
  O  O224  1  0.25179034  0.68296477  0.25565132  1
  O  O225  1  0.75189816  0.68569637  0.25946680  1
  O  O226  1  0.07746249  0.47553600  0.25526257  1
  O  O227  1  0.57806739  0.47016814  0.25241811  1
  O  O228  1  0.15002640  0.46792285  0.75932237  1
  O  O229  1  0.65310760  0.47211528  0.75864644  1
  O  O230  1  0.07772222  0.68065658  0.75626301  1
  O  O231  1  0.58062039  0.68585174  0.75672030  1
  O  O232  1  0.25339799  0.81657125  0.75724371  1
  O  O233  1  0.75437339  0.81757672  0.75826336  1
