# generated using pymatgen
data_Na15Ta8Zn4Si9(PO8)9
_symmetry_space_group_name_H-M   'P 1'
_cell_length_a   9.00529507
_cell_length_b   8.99707740
_cell_length_c   22.39038076
_cell_angle_alpha   89.76410365
_cell_angle_beta   89.93772177
_cell_angle_gamma   120.14874115
_symmetry_Int_Tables_number   1
_chemical_formula_structural   Na15Ta8Zn4Si9(PO8)9
_chemical_formula_sum   'Na15 Ta8 Zn4 Si9 P9 O72'
_cell_volume   1568.67170866
_cell_formula_units_Z   1
loop_
 _symmetry_equiv_pos_site_id
 _symmetry_equiv_pos_as_xyz
  1  'x, y, z'
loop_
 _atom_site_type_symbol
 _atom_site_label
 _atom_site_symmetry_multiplicity
 _atom_site_fract_x
 _atom_site_fract_y
 _atom_site_fract_z
 _atom_site_occupancy
  Na  Na0  1  0.64330748  0.02105711  0.23858794  1
  Na  Na1  1  0.98034663  0.62120392  0.23869682  1
  Na  Na2  1  0.63769845  0.61950284  0.73800599  1
  Na  Na3  1  0.37354973  0.02151060  0.74065386  1
  Na  Na4  1  0.31956115  0.34054382  0.58958393  1
  Na  Na5  1  0.96086841  0.68422818  0.91092503  1
  Na  Na6  1  0.71515653  0.03206513  0.90976976  1
  Na  Na7  1  0.95831425  0.28009787  0.40997434  1
  Na  Na8  1  0.71056354  0.68095583  0.40763208  1
  Na  Na9  1  0.01400286  0.99147204  0.49159613  1
  Na  Na10  1  0.01729658  0.01242591  0.99214896  1
  Na  Na11  1  0.66902383  0.33315040  0.82216115  1
  Na  Na12  1  0.63111832  0.32284673  0.32278677  1
  Na  Na13  1  0.33353401  0.65460388  0.16152928  1
  Na  Na14  1  0.31106665  0.66658051  0.66274038  1
  Ta  Ta15  1  0.99721577  0.99972111  0.64480433  1
  Ta  Ta16  1  0.00117671  0.99895915  0.14403466  1
  Ta  Ta17  1  0.66333717  0.33416448  0.98224374  1
  Ta  Ta18  1  0.66619367  0.33408496  0.48150082  1
  Ta  Ta19  1  0.33749631  0.67482244  0.02210090  1
  Ta  Ta20  1  0.32743009  0.66560829  0.52146601  1
  Ta  Ta21  1  0.33065538  0.66180691  0.31123009  1
  Ta  Ta22  1  0.33505361  0.66519122  0.81206814  1
  Zn  Zn23  1  0.02194342  0.00357807  0.35439405  1
  Zn  Zn24  1  0.00530514  0.00047546  0.85452195  1
  Zn  Zn25  1  0.67172610  0.33248131  0.67556819  1
  Zn  Zn26  1  0.66067852  0.33088297  0.17590810  1
  Si  Si27  1  0.95400078  0.33314644  0.58505498  1
  Si  Si28  1  0.37656472  0.03906022  0.58870252  1
  Si  Si29  1  0.66767707  0.62518353  0.58558514  1
  Si  Si30  1  0.95828976  0.62258447  0.08750469  1
  Si  Si31  1  0.66976512  0.04306441  0.08701710  1
  Si  Si32  1  0.62010449  0.65870919  0.91642169  1
  Si  Si33  1  0.33881705  0.96399049  0.91547381  1
  Si  Si34  1  0.33596959  0.37351200  0.41785763  1
  Si  Si35  1  0.03852753  0.66421997  0.41546406  1
  P  P36  1  0.29294018  0.00117897  0.25147628  1
  P  P37  1  0.70891826  0.71257132  0.25346967  1
  P  P38  1  0.00549957  0.28793093  0.25428817  1
  P  P39  1  0.28383766  0.29068039  0.75232631  1
  P  P40  1  0.00033061  0.70786263  0.75374463  1
  P  P41  1  0.70997835  -0.00052800  0.75520543  1
  P  P42  1  0.37528005  0.33442332  0.08516434  1
  P  P43  1  0.04421345  0.38254955  0.91887630  1
  P  P44  1  0.61193921  0.95823958  0.41542416  1
  O  O45  1  0.21265550  0.01135766  0.30902562  1
  O  O46  1  0.80359332  0.79234858  0.31127112  1
  O  O47  1  0.98851478  0.19083657  0.31184847  1
  O  O48  1  0.19240590  0.18025111  0.80560762  1
  O  O49  1  0.98361216  0.78289030  0.81256787  1
  O  O50  1  0.79613787  0.00358689  0.81373779  1
  O  O51  1  0.81084884  0.98052408  0.70094606  1
  O  O52  1  0.18388520  0.20517474  0.69281910  1
  O  O53  1  0.02633616  0.83523208  0.70045005  1
  O  O54  1  0.81219732  0.83444666  0.19875068  1
  O  O55  1  0.02397835  0.19376235  0.19868810  1
  O  O56  1  0.17500356  0.97827908  0.19633744  1
  O  O57  1  0.88568259  0.37803452  0.64260576  1
  O  O58  1  0.47382208  0.10919222  0.65014220  1
  O  O59  1  0.60924127  0.50452512  0.64356193  1
  O  O60  1  0.88410909  0.52034748  0.14823925  1
  O  O61  1  0.63413501  0.11137411  0.14727169  1
  O  O62  1  0.48057971  0.37115429  0.14080402  1
  O  O63  1  0.46609464  0.30706382  0.02894439  1
  O  O64  1  0.83209177  0.52575360  0.02872419  1
  O  O65  1  0.68984691  0.16470170  0.02789733  1
  O  O66  1  0.47892738  0.17406344  0.53211986  1
  O  O67  1  0.69921402  0.53105686  0.52647555  1
  O  O68  1  0.83934614  0.30354087  0.52345536  1
  O  O69  1  0.50732604  0.66856520  0.97118715  1
  O  O70  1  0.15032477  0.47579464  0.97367376  1
  O  O71  1  0.32283708  0.83788657  0.97162688  1
  O  O72  1  0.51267045  0.84268304  0.46866394  1
  O  O73  1  0.32928976  0.48118737  0.47533948  1
  O  O74  1  0.15761712  0.67279579  0.47168371  1
  O  O75  1  0.13936382  0.64372163  0.35547671  1
  O  O76  1  0.50775044  0.87117866  0.35682507  1
  O  O77  1  0.36395969  0.50611466  0.35958976  1
  O  O78  1  0.13751601  0.49786433  0.86210581  1
  O  O79  1  0.36305429  0.86311595  0.85592398  1
  O  O80  1  0.50263694  0.63702115  0.85533847  1
  O  O81  1  0.00245892  0.82011797  0.41503100  1
  O  O82  1  0.78935501  0.97722688  0.41453040  1
  O  O83  1  0.16146794  0.19410309  0.41652392  1
  O  O84  1  0.01204034  0.20137902  0.91533293  1
  O  O85  1  0.16882342  0.97594355  0.91484365  1
  O  O86  1  0.80556842  0.83001895  0.91650366  1
  O  O87  1  0.97661149  0.16084059  0.59270624  1
  O  O88  1  0.18659770  0.02976623  0.59157254  1
  O  O89  1  0.84144927  0.81340696  0.59410418  1
  O  O90  1  0.98089812  0.81816321  0.09226567  1
  O  O91  1  0.84653857  0.02908945  0.09174291  1
  O  O92  1  0.19618173  0.16667867  0.09009681  1
  O  O93  1  0.67229431  0.14489738  0.75004797  1
  O  O94  1  0.46796809  0.32344290  0.75021614  1
  O  O95  1  0.84322438  0.53178203  0.74547225  1
  O  O96  1  0.68111931  0.53294152  0.24620922  1
  O  O97  1  0.85418384  0.31968866  0.24983865  1
  O  O98  1  0.47586799  0.15033313  0.24527704  1
  O  O99  1  0.64191565  0.48853218  0.92232530  1
  O  O100  1  0.86763522  0.37897028  0.92218399  1
  O  O101  1  0.52264177  0.14420169  0.92203959  1
  O  O102  1  0.62545688  0.13631041  0.42075277  1
  O  O103  1  0.51612759  0.36935651  0.42145547  1
  O  O104  1  0.85467141  0.47946717  0.42018563  1
  O  O105  1  0.34178501  0.48404656  0.07285475  1
  O  O106  1  0.15093162  0.65081782  0.07490977  1
  O  O107  1  0.50952683  0.84522833  0.07463462  1
  O  O108  1  0.34305096  0.84696388  0.57467648  1
  O  O109  1  0.50821644  0.65896902  0.57147898  1
  O  O110  1  0.15629062  0.48862359  0.57479891  1
  O  O111  1  0.30019008  0.82477909  0.25168959  1
  O  O112  1  0.53190141  0.71303048  0.25276833  1
  O  O113  1  0.17712928  0.47407077  0.25464819  1
  O  O114  1  0.29500587  0.47329992  0.75457466  1
  O  O115  1  0.17503667  0.70308870  0.75363060  1
  O  O116  1  0.52635706  0.81999674  0.75266173  1
