# generated using pymatgen
data_Na3CaHf(PO4)3
_symmetry_space_group_name_H-M   'P 1'
_cell_length_a   15.96893892
_cell_length_b   9.21965715
_cell_length_c   9.16819466
_cell_angle_alpha   90.00000000
_cell_angle_beta   125.09874864
_cell_angle_gamma   90.00000000
_symmetry_Int_Tables_number   1
_chemical_formula_structural   Na3CaHf(PO4)3
_chemical_formula_sum   'Na12 Ca4 Hf4 P12 O48'
_cell_volume   1104.36874665
_cell_formula_units_Z   4
loop_
 _symmetry_equiv_pos_site_id
 _symmetry_equiv_pos_as_xyz
  1  'x, y, z'
loop_
 _atom_site_type_symbol
 _atom_site_label
 _atom_site_symmetry_multiplicity
 _atom_site_fract_x
 _atom_site_fract_y
 _atom_site_fract_z
 _atom_site_occupancy
  Na  Na0  1  0.25206251  0.73163818  0.98784552  1
  Na  Na1  1  0.75206251  0.76836182  0.48784552  1
  Na  Na2  1  0.75206251  0.23163818  0.98784552  1
  Na  Na3  1  0.25206251  0.26836182  0.48784552  1
  Na  Na4  1  0.50406340  0.09097271  0.74739538  1
  Na  Na5  1  0.50406340  0.90902729  0.24739538  1
  Na  Na6  1  0.00406340  0.59097271  0.74739538  1
  Na  Na7  1  0.00406340  0.40902729  0.24739538  1
  Na  Na8  1  0.17946856  0.93245436  0.30054719  1
  Na  Na9  1  0.17946856  0.06754564  0.80054719  1
  Na  Na10  1  0.67946856  0.43245436  0.30054719  1
  Na  Na11  1  0.67946856  0.56754564  0.80054719  1
  Ca  Ca12  1  0.10309280  0.74949904  0.56114841  1
  Ca  Ca13  1  0.10309280  0.25050096  0.06114841  1
  Ca  Ca14  1  0.60309280  0.24949904  0.56114841  1
  Ca  Ca15  1  0.60309280  0.75050096  0.06114841  1
  Hf  Hf16  1  0.89611393  0.75791069  0.94240375  1
  Hf  Hf17  1  0.89611393  0.24208931  0.44240375  1
  Hf  Hf18  1  0.39611393  0.25791069  0.94240375  1
  Hf  Hf19  1  0.39611393  0.74208931  0.44240375  1
  P  P20  1  0.99519694  0.95105285  0.75670503  1
  P  P21  1  0.99519694  0.04894715  0.25670503  1
  P  P22  1  0.49519694  0.45105285  0.75670503  1
  P  P23  1  0.49519694  0.54894715  0.25670503  1
  P  P24  1  0.35324191  0.91156835  0.75614545  1
  P  P25  1  0.64941518  0.88590370  0.74510741  1
  P  P26  1  0.64941518  0.11409630  0.24510741  1
  P  P27  1  0.35324191  0.08843165  0.25614545  1
  P  P28  1  0.85324191  0.41156835  0.75614545  1
  P  P29  1  0.14941518  0.38590370  0.74510741  1
  P  P30  1  0.14941518  0.61409630  0.24510741  1
  P  P31  1  0.85324191  0.58843165  0.25614545  1
  O  O32  1  0.15598908  0.55119021  0.74583963  1
  O  O33  1  0.85112389  0.58383058  0.75197232  1
  O  O34  1  0.85112389  0.41616942  0.25197232  1
  O  O35  1  0.15598908  0.44880979  0.24583963  1
  O  O36  1  0.65598908  0.05119021  0.74583963  1
  O  O37  1  0.35112389  0.08383058  0.75197232  1
  O  O38  1  0.35112389  0.91616942  0.25197232  1
  O  O39  1  0.65598908  0.94880979  0.24583963  1
  O  O40  1  0.43671063  0.55911973  0.59213643  1
  O  O41  1  0.56059925  0.53829199  0.92635792  1
  O  O42  1  0.56059925  0.46170801  0.42635792  1
  O  O43  1  0.43671063  0.44088027  0.09213643  1
  O  O44  1  0.93671063  0.05911973  0.59213643  1
  O  O45  1  0.06059925  0.03829199  0.92635792  1
  O  O46  1  0.06059925  0.96170801  0.42635792  1
  O  O47  1  0.93671063  0.94088027  0.09213643  1
  O  O48  1  0.26051550  0.85943093  0.75060475  1
  O  O49  1  0.73955740  0.81031861  0.74983717  1
  O  O50  1  0.73955740  0.18968139  0.24983717  1
  O  O51  1  0.26051550  0.14056907  0.25060475  1
  O  O52  1  0.76051550  0.35943093  0.75060475  1
  O  O53  1  0.23955740  0.31031861  0.74983717  1
  O  O54  1  0.23955740  0.68968139  0.24983717  1
  O  O55  1  0.76051550  0.64056907  0.25060475  1
  O  O56  1  0.35202126  0.86586072  0.58600748  1
  O  O57  1  0.65318524  0.83366052  0.90468052  1
  O  O58  1  0.65318524  0.16633948  0.40468052  1
  O  O59  1  0.35202126  0.13413928  0.08600748  1
  O  O60  1  0.85202126  0.36586072  0.58600748  1
  O  O61  1  0.15318524  0.33366052  0.90468052  1
  O  O62  1  0.15318524  0.66633948  0.40468052  1
  O  O63  1  0.85202126  0.63413928  0.08600748  1
  O  O64  1  0.45330924  0.86395490  0.92465277  1
  O  O65  1  0.54519340  0.82794244  0.57091870  1
  O  O66  1  0.54519340  0.17205756  0.07091870  1
  O  O67  1  0.45330924  0.13604510  0.42465277  1
  O  O68  1  0.95330924  0.36395490  0.92465277  1
  O  O69  1  0.04519340  0.32794244  0.57091870  1
  O  O70  1  0.04519340  0.67205756  0.07091870  1
  O  O71  1  0.95330924  0.63604510  0.42465277  1
  O  O72  1  0.06632114  0.84730000  0.74429456  1
  O  O73  1  0.91281875  0.85756546  0.75539963  1
  O  O74  1  0.91281875  0.14243454  0.25539963  1
  O  O75  1  0.06632114  0.15270000  0.24429456  1
  O  O76  1  0.56632114  0.34730000  0.74429456  1
  O  O77  1  0.41281875  0.35756546  0.75539963  1
  O  O78  1  0.41281875  0.64243454  0.25539963  1
  O  O79  1  0.56632114  0.65270000  0.24429456  1
