# generated using pymatgen
data_Na4HfScSi2PO12
_symmetry_space_group_name_H-M   'P 1'
_cell_length_a   9.16554308
_cell_length_b   9.16554275
_cell_length_c   22.79376024
_cell_angle_alpha   89.90580774
_cell_angle_beta   90.09419227
_cell_angle_gamma   119.84374908
_symmetry_Int_Tables_number   1
_chemical_formula_structural   Na4HfScSi2PO12
_chemical_formula_sum   'Na24 Hf6 Sc6 Si12 P6 O72'
_cell_volume   1660.90141358
_cell_formula_units_Z   6
loop_
 _symmetry_equiv_pos_site_id
 _symmetry_equiv_pos_as_xyz
  1  'x, y, z'
loop_
 _atom_site_type_symbol
 _atom_site_label
 _atom_site_symmetry_multiplicity
 _atom_site_fract_x
 _atom_site_fract_y
 _atom_site_fract_z
 _atom_site_occupancy
  Na  Na0  1  0.63988539  0.00422488  0.25043130  1
  Na  Na1  1  0.36819840  0.36654075  0.24773480  1
  Na  Na2  1  0.99272394  0.62833275  0.24986616  1
  Na  Na3  1  0.63345925  0.63180160  0.74773480  1
  Na  Na4  1  0.99577512  0.36011461  0.75043130  1
  Na  Na5  1  0.37166725  0.00727606  0.74986616  1
  Na  Na6  1  0.30655239  0.33755788  0.58376430  1
  Na  Na7  1  0.03486540  0.69987375  0.58106780  1
  Na  Na8  1  0.65939094  0.96166575  0.58319916  1
  Na  Na9  1  0.30012625  0.96513460  0.08106780  1
  Na  Na10  1  0.66244212  0.69344761  0.08376430  1
  Na  Na11  1  0.03833425  0.34060906  0.08319916  1
  Na  Na12  1  0.97321839  0.67089188  0.91709830  1
  Na  Na13  1  0.70153140  0.03320775  0.91440180  1
  Na  Na14  1  0.32605694  0.29499975  0.91653316  1
  Na  Na15  1  0.96679225  0.29846860  0.41440180  1
  Na  Na16  1  0.32910812  0.02678161  0.41709830  1
  Na  Na17  1  0.70500025  0.67394306  0.41653316  1
  Na  Na18  1  0.99790970  0.99463907  0.49820276  1
  Na  Na19  1  0.00536093  0.00209030  0.99820276  1
  Na  Na20  1  0.66457670  0.32797207  0.83153576  1
  Na  Na21  1  0.67202793  0.33542330  0.33153576  1
  Na  Na22  1  0.33124270  0.66130607  0.16486976  1
  Na  Na23  1  0.33869393  0.66875730  0.66486976  1
  Hf  Hf24  1  0.99856364  0.99958537  0.64897819  1
  Hf  Hf25  1  0.00041463  0.00143636  0.14897819  1
  Hf  Hf26  1  0.66523064  0.33291837  0.98231119  1
  Hf  Hf27  1  0.66708163  0.33476936  0.48231119  1
  Hf  Hf28  1  0.33189664  0.66625237  0.31564519  1
  Hf  Hf29  1  0.33374763  0.66810336  0.81564519  1
  Sc  Sc30  1  0.99054001  0.99419344  0.35061049  1
  Sc  Sc31  1  0.00580656  0.00945999  0.85061049  1
  Sc  Sc32  1  0.65720701  0.32752644  0.68394349  1
  Sc  Sc33  1  0.67247356  0.34279299  0.18394349  1
  Sc  Sc34  1  0.32387301  0.66086044  0.01727749  1
  Sc  Sc35  1  0.33913956  0.67612699  0.51727749  1
  Si  Si36  1  0.70607155  0.70584168  0.25032617  1
  Si  Si37  1  0.99862751  0.29271029  0.25077943  1
  Si  Si38  1  0.29415832  0.29392845  0.75032617  1
  Si  Si39  1  0.70728971  0.00137249  0.75077943  1
  Si  Si40  1  0.37273855  0.03917468  0.58365917  1
  Si  Si41  1  0.66529451  0.62604329  0.58411243  1
  Si  Si42  1  0.96082532  0.62726145  0.08365917  1
  Si  Si43  1  0.37395671  0.33470549  0.08411243  1
  Si  Si44  1  0.03940455  0.37250868  0.91699317  1
  Si  Si45  1  0.33196051  0.95937729  0.91744643  1
  Si  Si46  1  0.62749132  0.96059545  0.41699317  1
  Si  Si47  1  0.04062271  0.66803949  0.41744643  1
  P  P48  1  0.29212207  0.00104505  0.25103641  1
  P  P49  1  0.99895495  0.70787793  0.75103641  1
  P  P50  1  0.95878907  0.33437805  0.58436941  1
  P  P51  1  0.66562195  0.04121093  0.08436941  1
  P  P52  1  0.62545507  0.66771205  0.91770341  1
  P  P53  1  0.33228795  0.37454493  0.41770341  1
  O  O54  1  0.21227235  0.03139029  0.30476883  1
  O  O55  1  0.82572612  0.79044939  0.30699727  1
  O  O56  1  0.96997872  0.17570211  0.30773797  1
  O  O57  1  0.20955061  0.17427388  0.80699727  1
  O  O58  1  0.96860971  0.78772765  0.80476883  1
  O  O59  1  0.82429789  0.03002128  0.80773797  1
  O  O60  1  0.79368757  0.96497595  0.69289153  1
  O  O61  1  0.17128409  0.20605338  0.69270203  1
  O  O62  1  0.03262238  0.82265319  0.69573106  1
  O  O63  1  0.79394662  0.82871591  0.19270203  1
  O  O64  1  0.03502405  0.20631243  0.19289153  1
  O  O65  1  0.17734681  0.96737762  0.19573106  1
  O  O66  1  0.87893935  0.36472329  0.63810183  1
  O  O67  1  0.49239312  0.12378239  0.64033027  1
  O  O68  1  0.63664572  0.50903511  0.64107097  1
  O  O69  1  0.87621761  0.50760688  0.14033027  1
  O  O70  1  0.63527671  0.12106065  0.13810183  1
  O  O71  1  0.49096489  0.36335428  0.14107097  1
  O  O72  1  0.46035457  0.29830895  0.02622453  1
  O  O73  1  0.83795109  0.53938638  0.02603503  1
  O  O74  1  0.69928938  0.15598619  0.02906406  1
  O  O75  1  0.46061362  0.16204891  0.52603503  1
  O  O76  1  0.70169105  0.53964543  0.52622453  1
  O  O77  1  0.84401381  0.30071062  0.52906406  1
  O  O78  1  0.54560535  0.69805729  0.97143583  1
  O  O79  1  0.15905912  0.45711639  0.97366427  1
  O  O80  1  0.30331172  0.84236911  0.97440497  1
  O  O81  1  0.54288361  0.84094088  0.47366427  1
  O  O82  1  0.30194271  0.45439465  0.47143583  1
  O  O83  1  0.15763089  0.69668828  0.47440497  1
  O  O84  1  0.12702057  0.63164295  0.35955853  1
  O  O85  1  0.50461709  0.87272038  0.35936903  1
  O  O86  1  0.36595538  0.48932019  0.36239806  1
  O  O87  1  0.12727962  0.49538291  0.85936903  1
  O  O88  1  0.36835705  0.87297943  0.85955853  1
  O  O89  1  0.51067981  0.63404462  0.86239806  1
  O  O90  1  0.02473366  0.83665972  0.41088761  1
  O  O91  1  0.81464417  0.98210210  0.41143480  1
  O  O92  1  0.17878645  0.19823529  0.40987155  1
  O  O93  1  0.01789790  0.18535583  0.91143480  1
  O  O94  1  0.16334028  0.97526634  0.91088761  1
  O  O95  1  0.80176471  0.82121355  0.90987155  1
  O  O96  1  0.97355362  0.17113578  0.58948074  1
  O  O97  1  0.18570545  0.02419169  0.58998047  1
  O  O98  1  0.83706139  0.81403604  0.58955044  1
  O  O99  1  0.97580831  0.81429455  0.08998047  1
  O  O100  1  0.82886422  0.02644638  0.08948074  1
  O  O101  1  0.18596396  0.16293861  0.08955044  1
  O  O102  1  0.69140066  0.16999272  0.74422061  1
  O  O103  1  0.48131117  0.31543510  0.74476780  1
  O  O104  1  0.84545345  0.53156829  0.74320455  1
  O  O105  1  0.68456490  0.51868883  0.24476780  1
  O  O106  1  0.83000728  0.30859934  0.24422061  1
  O  O107  1  0.46843171  0.15454655  0.24320455  1
  O  O108  1  0.64022062  0.50446878  0.92281374  1
  O  O109  1  0.85237245  0.35752469  0.92331347  1
  O  O110  1  0.50372839  0.14736904  0.92288344  1
  O  O111  1  0.64247531  0.14762755  0.42331347  1
  O  O112  1  0.49553122  0.35977938  0.42281374  1
  O  O113  1  0.85263096  0.49627161  0.42288344  1
  O  O114  1  0.35806666  0.50332672  0.07755461  1
  O  O115  1  0.14797717  0.64876910  0.07810180  1
  O  O116  1  0.51211945  0.86490229  0.07653855  1
  O  O117  1  0.35123090  0.85202283  0.57810180  1
  O  O118  1  0.49667328  0.64193334  0.57755461  1
  O  O119  1  0.13509771  0.48788055  0.57653855  1
  O  O120  1  0.30688662  0.83780278  0.25614774  1
  O  O121  1  0.51903845  0.69085869  0.25664747  1
  O  O122  1  0.17039439  0.48070304  0.25621744  1
  O  O123  1  0.30914131  0.48096155  0.75664747  1
  O  O124  1  0.16219722  0.69311338  0.75614774  1
  O  O125  1  0.51929696  0.82960561  0.75621744  1
