# generated using pymatgen
data_Na2LaGaP2SO12
_symmetry_space_group_name_H-M   'P 1'
_cell_length_a   9.04620432
_cell_length_b   9.04462722
_cell_length_c   23.25586508
_cell_angle_alpha   91.15952572
_cell_angle_beta   89.10744149
_cell_angle_gamma   120.31987539
_symmetry_Int_Tables_number   1
_chemical_formula_structural   Na2LaGaP2SO12
_chemical_formula_sum   'Na12 La6 Ga6 P12 S6 O72'
_cell_volume   1642.15436323
_cell_formula_units_Z   6
loop_
 _symmetry_equiv_pos_site_id
 _symmetry_equiv_pos_as_xyz
  1  'x, y, z'
loop_
 _atom_site_type_symbol
 _atom_site_label
 _atom_site_symmetry_multiplicity
 _atom_site_fract_x
 _atom_site_fract_y
 _atom_site_fract_z
 _atom_site_occupancy
  Na  Na0  1  0.99540572  0.63476146  0.26102055  1
  Na  Na1  1  0.37221301  0.01226180  0.74371193  1
  Na  Na2  1  0.66335425  0.95340277  0.58941796  1
  Na  Na3  1  0.04208480  0.33840634  0.09580922  1
  Na  Na4  1  0.32581227  0.30373920  0.92082235  1
  Na  Na5  1  0.69387814  0.66865459  0.41746779  1
  Na  Na6  1  0.03605762  0.99899976  0.49867687  1
  Na  Na7  1  0.01229885  0.97569905  0.00225503  1
  Na  Na8  1  0.69250794  0.32354305  0.82835518  1
  Na  Na9  1  0.66563732  0.30471038  0.33646842  1
  Na  Na10  1  0.36067657  0.65974282  0.17842760  1
  Na  Na11  1  0.34027507  0.63920502  0.66115586  1
  La  La12  1  0.98840698  0.00416521  0.84145535  1
  La  La13  1  0.00334267  0.99897900  0.16576646  1
  La  La14  1  0.66964772  0.32364523  0.98364921  1
  La  La15  1  0.33341929  0.68779286  0.02415572  1
  La  La16  1  0.32115981  0.66776612  0.51343497  1
  La  La17  1  0.33830906  0.66201197  0.80690020  1
  Ga  Ga18  1  0.97585856  0.99717274  0.34689831  1
  Ga  Ga19  1  0.00374680  0.99297341  0.64365391  1
  Ga  Ga20  1  0.65576378  0.33534172  0.67716790  1
  Ga  Ga21  1  0.66070622  0.35673380  0.18857887  1
  Ga  Ga22  1  0.66733272  0.33080006  0.48427215  1
  Ga  Ga23  1  0.33026255  0.66795936  0.32370419  1
  P  P24  1  0.67934825  0.68925452  0.25691703  1
  P  P25  1  0.00344871  0.31269035  0.25534688  1
  P  P26  1  0.30197865  0.28874996  0.73801644  1
  P  P27  1  0.70635063  0.01899629  0.73257859  1
  P  P28  1  0.37655392  0.06219994  0.58295817  1
  P  P29  1  0.68458311  0.62522769  0.58215040  1
  P  P30  1  0.95881331  0.62673252  0.09543152  1
  P  P31  1  0.37285589  0.33672384  0.08992721  1
  P  P32  1  0.03313550  0.36055188  0.91883700  1
  P  P33  1  0.32984764  0.97748390  0.90865628  1
  P  P34  1  0.63561136  0.97380944  0.41633360  1
  P  P35  1  0.02289272  0.67389375  0.41071444  1
  S  S36  1  0.31277198  0.99571189  0.25749468  1
  S  S37  1  0.98338591  0.69019599  0.73764252  1
  S  S38  1  0.94230387  0.32053545  0.58346728  1
  S  S39  1  0.66577810  0.04414747  0.09768851  1
  S  S40  1  0.64366880  0.66971088  0.91681724  1
  S  S41  1  0.32648382  0.35459847  0.41243016  1
  O  O42  1  0.21257375  0.02001446  0.30379616  1
  O  O43  1  0.81780093  0.78326045  0.30472508  1
  O  O44  1  0.97751671  0.17171543  0.29845596  1
  O  O45  1  0.24224505  0.20722152  0.79819143  1
  O  O46  1  0.96387462  0.75300445  0.79462910  1
  O  O47  1  0.79106956  0.03230077  0.79080160  1
  O  O48  1  0.80511357  0.99472344  0.68174879  1
  O  O49  1  0.17498909  0.16759707  0.69248833  1
  O  O50  1  -0.00081074  0.80746970  0.69182235  1
  O  O51  1  0.73887472  0.78749641  0.20050858  1
  O  O52  1  0.03941253  0.26410738  0.19478345  1
  O  O53  1  0.21640313  0.95031682  0.20269095  1
  O  O54  1  0.85413203  0.33356937  0.63496176  1
  O  O55  1  0.48313283  0.13913997  0.63791904  1
  O  O56  1  0.66688165  0.51672922  0.63397235  1
  O  O57  1  0.86044385  0.52765491  0.15043351  1
  O  O58  1  0.67132921  0.15834996  0.14474626  1
  O  O59  1  0.48128205  0.33236488  0.14023364  1
  O  O60  1  0.44529990  0.32936577  0.03004759  1
  O  O61  1  0.87032555  0.53222303  0.03994752  1
  O  O62  1  0.65800613  0.10788342  0.04029686  1
  O  O63  1  0.46602828  0.17003228  0.52910081  1
  O  O64  1  0.70033283  0.54334669  0.52389737  1
  O  O65  1  0.84639736  0.30604587  0.52992320  1
  O  O66  1  0.54774425  0.66534154  0.96896167  1
  O  O67  1  0.11636863  0.44898949  0.97674435  1
  O  O68  1  0.34265567  0.88411498  0.96144468  1
  O  O69  1  0.58163365  0.86683570  0.47215595  1
  O  O70  1  0.28948240  0.41368212  0.46744242  1
  O  O71  1  0.13094363  0.71219602  0.46551373  1
  O  O72  1  0.11544098  0.64605307  0.35861594  1
  O  O73  1  0.50412404  0.87108135  0.36855079  1
  O  O74  1  0.36031241  0.48175140  0.36676778  1
  O  O75  1  0.15142821  0.46105529  0.86823204  1
  O  O76  1  0.32829009  0.88742472  0.85142086  1
  O  O77  1  0.56095921  0.68415072  0.86472569  1
  O  O78  1  0.99565322  0.83018138  0.40179749  1
  O  O79  1  0.81337944  0.99305119  0.40179852  1
  O  O80  1  0.17908693  0.18249838  0.39961740  1
  O  O81  1  0.02028061  0.18378844  0.92042464  1
  O  O82  1  0.16820223  0.99151967  0.91557564  1
  O  O83  1  0.81872497  0.81549812  0.92142395  1
  O  O84  1  0.95615198  0.16275545  0.58404106  1
  O  O85  1  0.19310944  0.03619558  0.58770290  1
  O  O86  1  0.84680688  0.81152521  0.58712603  1
  O  O87  1  0.98421628  0.80636852  0.09299580  1
  O  O88  1  0.82612426  0.03789191  0.09622819  1
  O  O89  1  0.18876020  0.18045755  0.09207125  1
  O  O90  1  0.68769915  0.18055793  0.73022150  1
  O  O91  1  0.48308552  0.31018246  0.73270435  1
  O  O92  1  0.83576795  0.51613002  0.73106007  1
  O  O93  1  0.67077964  0.51144588  0.25006201  1
  O  O94  1  0.84263707  0.33331889  0.25357430  1
  O  O95  1  0.48223295  0.15249182  0.25128945  1
  O  O96  1  0.64352319  0.50628434  0.91083027  1
  O  O97  1  0.85815510  0.34222308  0.90937167  1
  O  O98  1  0.48471603  0.16198485  0.90608738  1
  O  O99  1  0.65059193  0.15172338  0.42612657  1
  O  O100  1  0.48880345  0.35022514  0.41781980  1
  O  O101  1  0.84189406  0.51000963  0.41927048  1
  O  O102  1  0.35847826  0.49995501  0.09474865  1
  O  O103  1  0.13330124  0.63291001  0.09872361  1
  O  O104  1  0.51566852  0.87222024  0.10454964  1
  O  O105  1  0.36506197  0.88469509  0.57842001  1
  O  O106  1  0.52768957  0.65190503  0.58052875  1
  O  O107  1  0.11569425  0.47243214  0.58296255  1
  O  O108  1  0.33141183  0.84346274  0.26797020  1
  O  O109  1  0.50343452  0.66614758  0.27230721  1
  O  O110  1  0.16181579  0.49218542  0.26927620  1
  O  O111  1  0.31515385  0.46393539  0.73516447  1
  O  O112  1  0.14609199  0.68616022  0.73644489  1
  O  O113  1  0.52170805  0.86149071  0.73235157  1
