# generated using pymatgen
data_CsBi3S5
_symmetry_space_group_name_H-M   'P 1'
_cell_length_a   4.08716899
_cell_length_b   12.22869193
_cell_length_c   21.30907612
_cell_angle_alpha   90.00000000
_cell_angle_beta   90.00000000
_cell_angle_gamma   90.00000000
_symmetry_Int_Tables_number   1
_chemical_formula_structural   CsBi3S5
_chemical_formula_sum   'Cs4 Bi12 S20'
_cell_volume   1065.04318958
_cell_formula_units_Z   4
loop_
 _symmetry_equiv_pos_site_id
 _symmetry_equiv_pos_as_xyz
  1  'x, y, z'
loop_
 _atom_site_type_symbol
 _atom_site_label
 _atom_site_symmetry_multiplicity
 _atom_site_fract_x
 _atom_site_fract_y
 _atom_site_fract_z
 _atom_site_occupancy
  Cs  Cs0  1  0.75000000  0.00429151  0.88854550  1
  Cs  Cs1  1  0.25000000  0.99570849  0.11145450  1
  Cs  Cs2  1  0.75000000  0.50429151  0.61145450  1
  Cs  Cs3  1  0.25000000  0.49570849  0.38854550  1
  Bi  Bi4  1  0.25000000  0.87090465  0.64651432  1
  Bi  Bi5  1  0.75000000  0.12909535  0.35348568  1
  Bi  Bi6  1  0.25000000  0.37090465  0.85348568  1
  Bi  Bi7  1  0.75000000  0.62909535  0.14651432  1
  Bi  Bi8  1  0.25000000  0.66477839  0.97434529  1
  Bi  Bi9  1  0.75000000  0.33522161  0.02565471  1
  Bi  Bi10  1  0.25000000  0.16477839  0.52565471  1
  Bi  Bi11  1  0.75000000  0.83522161  0.47434529  1
  Bi  Bi12  1  0.75000000  0.64663373  0.80816493  1
  Bi  Bi13  1  0.25000000  0.35336627  0.19183507  1
  Bi  Bi14  1  0.75000000  0.14663373  0.69183507  1
  Bi  Bi15  1  0.25000000  0.85336627  0.30816493  1
  S  S16  1  0.25000000  0.71967037  0.52746280  1
  S  S17  1  0.75000000  0.28032963  0.47253720  1
  S  S18  1  0.25000000  0.21967037  0.97253720  1
  S  S19  1  0.75000000  0.78032963  0.02746280  1
  S  S20  1  0.25000000  0.01421981  0.74083522  1
  S  S21  1  0.75000000  0.98578019  0.25916478  1
  S  S22  1  0.25000000  0.51421981  0.75916478  1
  S  S23  1  0.75000000  0.48578019  0.24083522  1
  S  S24  1  0.25000000  0.98857780  0.41676982  1
  S  S25  1  0.75000000  0.01142220  0.58323018  1
  S  S26  1  0.25000000  0.48857780  0.08323018  1
  S  S27  1  0.75000000  0.51142220  0.91676982  1
  S  S28  1  0.25000000  0.74915069  0.19227107  1
  S  S29  1  0.75000000  0.25084931  0.80772893  1
  S  S30  1  0.25000000  0.24915069  0.30772893  1
  S  S31  1  0.75000000  0.75084931  0.69227107  1
  S  S32  1  0.75000000  0.72665687  0.36826144  1
  S  S33  1  0.25000000  0.27334313  0.63173856  1
  S  S34  1  0.75000000  0.22665687  0.13173856  1
  S  S35  1  0.25000000  0.77334313  0.86826144  1
