# generated using pymatgen
data_Na3Mg2Ta4(PO4)9
_symmetry_space_group_name_H-M   'P 1'
_cell_length_a   8.72644679
_cell_length_b   8.72644652
_cell_length_c   22.72225219
_cell_angle_alpha   90.00000000
_cell_angle_beta   90.00000000
_cell_angle_gamma   120.00000106
_symmetry_Int_Tables_number   1
_chemical_formula_structural   Na3Mg2Ta4(PO4)9
_chemical_formula_sum   'Na6 Mg4 Ta8 P18 O72'
_cell_volume   1498.50045473
_cell_formula_units_Z   2
loop_
 _symmetry_equiv_pos_site_id
 _symmetry_equiv_pos_as_xyz
  1  'x, y, z'
loop_
 _atom_site_type_symbol
 _atom_site_label
 _atom_site_symmetry_multiplicity
 _atom_site_fract_x
 _atom_site_fract_y
 _atom_site_fract_z
 _atom_site_occupancy
  Na  Na0  1  -0.00000000  0.00000000  0.49324205  1
  Na  Na1  1  -0.00000000  0.00000000  0.99324205  1
  Na  Na2  1  0.66666700  0.33333300  0.82208593  1
  Na  Na3  1  0.66666700  0.33333300  0.32208593  1
  Na  Na4  1  0.33333300  0.66666700  0.16746362  1
  Na  Na5  1  0.33333300  0.66666700  0.66746362  1
  Mg  Mg6  1  -0.00000000  0.00000000  0.35407702  1
  Mg  Mg7  1  -0.00000000  0.00000000  0.85407702  1
  Mg  Mg8  1  0.66666700  0.33333300  0.68679728  1
  Mg  Mg9  1  0.66666700  0.33333300  0.18679728  1
  Ta  Ta10  1  -0.00000000  0.00000000  0.64892079  1
  Ta  Ta11  1  -0.00000000  0.00000000  0.14892079  1
  Ta  Ta12  1  0.66666700  0.33333300  0.97841028  1
  Ta  Ta13  1  0.66666700  0.33333300  0.47841028  1
  Ta  Ta14  1  0.33333300  0.66666700  0.02044597  1
  Ta  Ta15  1  0.33333300  0.66666700  0.52044597  1
  Ta  Ta16  1  0.33333300  0.66666700  0.30913199  1
  Ta  Ta17  1  0.33333300  0.66666700  0.80913199  1
  P  P18  1  0.29191449  0.00722123  0.25310536  1
  P  P19  1  0.71530674  0.70808551  0.25310536  1
  P  P20  1  0.99277877  0.28469326  0.25310536  1
  P  P21  1  0.29191449  0.28469326  0.75310536  1
  P  P22  1  0.99277877  0.70808551  0.75310536  1
  P  P23  1  0.71530674  0.00722123  0.75310536  1
  P  P24  1  0.95254474  0.33157439  0.58482609  1
  P  P25  1  0.37903066  0.04745526  0.58482609  1
  P  P26  1  0.66842561  0.62096934  0.58482609  1
  P  P27  1  0.95254474  0.62096934  0.08482609  1
  P  P28  1  0.66842561  0.04745526  0.08482609  1
  P  P29  1  0.37903066  0.33157439  0.08482609  1
  P  P30  1  0.62353657  0.66934080  0.91618167  1
  P  P31  1  0.04580323  0.37646343  0.91618167  1
  P  P32  1  0.33065920  0.95419677  0.91618167  1
  P  P33  1  0.62353657  0.95419677  0.41618167  1
  P  P34  1  0.33065920  0.37646343  0.41618167  1
  P  P35  1  0.04580323  0.66934080  0.41618167  1
  O  O36  1  0.20456203  0.02491184  0.30680435  1
  O  O37  1  0.82034981  0.79543797  0.30680435  1
  O  O38  1  0.97508816  0.17965019  0.30680435  1
  O  O39  1  0.20456203  0.17965019  0.80680435  1
  O  O40  1  0.97508816  0.79543797  0.80680435  1
  O  O41  1  0.82034981  0.02491184  0.80680435  1
  O  O42  1  0.80138530  0.97165352  0.69544181  1
  O  O43  1  0.17026821  0.19861470  0.69544181  1
  O  O44  1  0.02834648  0.82973179  0.69544181  1
  O  O45  1  0.80138530  0.82973179  0.19544181  1
  O  O46  1  0.02834648  0.19861470  0.19544181  1
  O  O47  1  0.17026821  0.97165352  0.19544181  1
  O  O48  1  0.88008598  0.36863947  0.63837774  1
  O  O49  1  0.48855450  0.11991402  0.63837774  1
  O  O50  1  0.63136053  0.51144550  0.63837774  1
  O  O51  1  0.88008598  0.51144550  0.13837774  1
  O  O52  1  0.63136053  0.11991402  0.13837774  1
  O  O53  1  0.48855450  0.36863947  0.13837774  1
  O  O54  1  0.46743221  0.30588498  0.02798898  1
  O  O55  1  0.83845376  0.53256779  0.02798898  1
  O  O56  1  0.69411502  0.16154624  0.02798898  1
  O  O57  1  0.46743221  0.16154624  0.52798898  1
  O  O58  1  0.69411502  0.53256779  0.52798898  1
  O  O59  1  0.83845376  0.30588498  0.52798898  1
  O  O60  1  0.52414991  0.68306184  0.97136455  1
  O  O61  1  0.15891093  0.47585009  0.97136455  1
  O  O62  1  0.31693816  0.84108907  0.97136455  1
  O  O63  1  0.52414991  0.84108907  0.47136455  1
  O  O64  1  0.31693816  0.47585009  0.47136455  1
  O  O65  1  0.15891093  0.68306184  0.47136455  1
  O  O66  1  0.13343683  0.63644724  0.36188727  1
  O  O67  1  0.50300941  0.86656317  0.36188727  1
  O  O68  1  0.36355276  0.49699059  0.36188727  1
  O  O69  1  0.13343683  0.49699059  0.86188727  1
  O  O70  1  0.36355276  0.86656317  0.86188727  1
  O  O71  1  0.50300941  0.63644724  0.86188727  1
  O  O72  1  0.02590178  0.82952788  0.41390335  1
  O  O73  1  0.80362610  0.97409822  0.41390335  1
  O  O74  1  0.17047212  0.19637390  0.41390335  1
  O  O75  1  0.02590178  0.19637390  0.91390335  1
  O  O76  1  0.17047212  0.97409822  0.91390335  1
  O  O77  1  0.80362610  0.82952788  0.91390335  1
  O  O78  1  0.97537494  0.16566290  0.58905850  1
  O  O79  1  0.19028796  0.02462506  0.58905850  1
  O  O80  1  0.83433710  0.80971204  0.58905850  1
  O  O81  1  0.97537494  0.80971204  0.08905850  1
  O  O82  1  0.83433710  0.02462506  0.08905850  1
  O  O83  1  0.19028796  0.16566290  0.08905850  1
  O  O84  1  0.68327974  0.15861681  0.74293876  1
  O  O85  1  0.47533806  0.31672026  0.74293876  1
  O  O86  1  0.84138319  0.52466194  0.74293876  1
  O  O87  1  0.68327974  0.52466194  0.24293876  1
  O  O88  1  0.84138319  0.31672026  0.24293876  1
  O  O89  1  0.47533806  0.15861681  0.24293876  1
  O  O90  1  0.63221372  0.49508200  0.92502838  1
  O  O91  1  0.86286928  0.36778628  0.92502838  1
  O  O92  1  0.50491800  0.13713072  0.92502838  1
  O  O93  1  0.63221372  0.13713072  0.42502838  1
  O  O94  1  0.50491800  0.36778628  0.42502838  1
  O  O95  1  0.86286928  0.49508200  0.42502838  1
  O  O96  1  0.35057101  0.49332570  0.07248512  1
  O  O97  1  0.14275369  0.64942899  0.07248512  1
  O  O98  1  0.50667430  0.85724631  0.07248512  1
  O  O99  1  0.35057101  0.85724631  0.57248512  1
  O  O100  1  0.50667430  0.64942899  0.57248512  1
  O  O101  1  0.14275369  0.49332570  0.57248512  1
  O  O102  1  0.30025021  0.82740031  0.25708309  1
  O  O103  1  0.52714910  0.69974979  0.25708309  1
  O  O104  1  0.17259969  0.47285090  0.25708309  1
  O  O105  1  0.30025021  0.47285090  0.75708309  1
  O  O106  1  0.17259969  0.69974979  0.75708309  1
  O  O107  1  0.52714910  0.82740031  0.75708309  1
