# generated using pymatgen
data_MgCr2(NiO4)2
_symmetry_space_group_name_H-M   'P 1'
_cell_length_a   5.14081279
_cell_length_b   5.14049791
_cell_length_c   6.30550400
_cell_angle_alpha   90.00000000
_cell_angle_beta   90.00000000
_cell_angle_gamma   113.40021745
_symmetry_Int_Tables_number   1
_chemical_formula_structural   MgCr2(NiO4)2
_chemical_formula_sum   'Mg1 Cr2 Ni2 O8'
_cell_volume   152.92646515
_cell_formula_units_Z   1
loop_
 _symmetry_equiv_pos_site_id
 _symmetry_equiv_pos_as_xyz
  1  'x, y, z'
loop_
 _atom_site_type_symbol
 _atom_site_label
 _atom_site_symmetry_multiplicity
 _atom_site_fract_x
 _atom_site_fract_y
 _atom_site_fract_z
 _atom_site_occupancy
  Mg  Mg0  1  0.66179800  0.33816300  0.75000000  1
  Cr  Cr1  1  0.63904800  0.36102400  0.25000100  1
  Cr  Cr2  1  0.34112000  0.65883800  0.75000100  1
  Ni  Ni3  1  0.00043500  0.99976400  0.49551600  1
  Ni  Ni4  1  0.00043500  0.99976400  0.00448400  1
  O  O5  1  0.24279000  0.27206900  0.75000000  1
  O  O6  1  0.78632200  0.72542900  0.25000000  1
  O  O7  1  0.27448000  0.21363300  0.25000000  1
  O  O8  1  0.72790200  0.75718200  0.75000000  1
  O  O9  1  0.23778600  0.76217500  0.97007300  1
  O  O10  1  0.76254800  0.23739200  0.47139400  1
  O  O11  1  0.76254800  0.23739200  0.02860500  1
  O  O12  1  0.23778600  0.76217500  0.52992600  1
