# generated using pymatgen
data_Na15Nb10Zn2Si15(PO24)3
_symmetry_space_group_name_H-M   'P 1'
_cell_length_a   9.03877494
_cell_length_b   9.04988833
_cell_length_c   22.49953690
_cell_angle_alpha   89.97646229
_cell_angle_beta   90.07998634
_cell_angle_gamma   119.95896063
_symmetry_Int_Tables_number   1
_chemical_formula_structural   Na15Nb10Zn2Si15(PO24)3
_chemical_formula_sum   'Na15 Nb10 Zn2 Si15 P3 O72'
_cell_volume   1594.54215982
_cell_formula_units_Z   1
loop_
 _symmetry_equiv_pos_site_id
 _symmetry_equiv_pos_as_xyz
  1  'x, y, z'
loop_
 _atom_site_type_symbol
 _atom_site_label
 _atom_site_symmetry_multiplicity
 _atom_site_fract_x
 _atom_site_fract_y
 _atom_site_fract_z
 _atom_site_occupancy
  Na  Na0  1  0.63282818  0.02221235  0.24285457  1
  Na  Na1  1  0.38990752  0.37166979  0.24043570  1
  Na  Na2  1  0.98120283  0.60996734  0.23901847  1
  Na  Na3  1  0.62829502  0.60928900  0.74124868  1
  Na  Na4  1  0.97575652  0.36953681  0.74210726  1
  Na  Na5  1  0.38879477  0.01874668  0.73840901  1
  Na  Na6  1  0.02354807  0.68527550  0.58475205  1
  Na  Na7  1  0.65959719  0.97718948  0.58512775  1
  Na  Na8  1  0.02182866  0.33858328  0.08684220  1
  Na  Na9  1  0.01333162  0.01421502  0.49737659  1
  Na  Na10  1  0.99947279  0.98631388  0.99860789  1
  Na  Na11  1  0.67161383  0.33155400  0.83023191  1
  Na  Na12  1  0.66816122  0.33013375  0.33086748  1
  Na  Na13  1  0.34654189  0.67901814  0.16182214  1
  Na  Na14  1  0.33155415  0.64941488  0.66308878  1
  Nb  Nb15  1  0.00417687  0.00652190  0.35851889  1
  Nb  Nb16  1  0.99426852  0.99630717  0.85916507  1
  Nb  Nb17  1  0.99867325  0.99692237  0.64318765  1
  Nb  Nb18  1  0.00883033  0.00015882  0.14250244  1
  Nb  Nb19  1  0.66398401  0.33796488  0.97878341  1
  Nb  Nb20  1  0.66574368  0.33161235  0.47896636  1
  Nb  Nb21  1  0.33246027  0.66645642  0.01998666  1
  Nb  Nb22  1  0.33465282  0.66512012  0.51913165  1
  Nb  Nb23  1  0.32884116  0.66545084  0.31357298  1
  Nb  Nb24  1  0.33257460  0.67090110  0.81404572  1
  Zn  Zn25  1  0.67232912  0.33489243  0.67925284  1
  Zn  Zn26  1  0.66564892  0.33041205  0.17998528  1
  Si  Si27  1  0.28937891  0.99768747  0.25131587  1
  Si  Si28  1  0.00252169  0.29079299  0.24933487  1
  Si  Si29  1  0.00239884  0.71166608  0.75116516  1
  Si  Si30  1  0.70733640  0.99548897  0.75056540  1
  Si  Si31  1  0.96066164  0.33627004  0.58595009  1
  Si  Si32  1  0.37834548  0.04544220  0.58578167  1
  Si  Si33  1  0.65967568  0.61665994  0.58708763  1
  Si  Si34  1  0.95593009  0.62236800  0.08634457  1
  Si  Si35  1  0.38080903  0.33816836  0.08711155  1
  Si  Si36  1  0.62056771  0.66262127  0.91612429  1
  Si  Si37  1  0.03960329  0.37595404  0.91719469  1
  Si  Si38  1  0.33651186  0.96074187  0.91737666  1
  Si  Si39  1  0.62402335  0.96073963  0.41622789  1
  Si  Si40  1  0.33935192  0.37865168  0.41522766  1
  Si  Si41  1  0.03866426  0.66448619  0.41755609  1
  P  P42  1  0.71388297  0.72142382  0.25138780  1
  P  P43  1  0.27972397  0.28645259  0.75229317  1
  P  P44  1  0.66357560  0.03952144  0.08559483  1
  O  O45  1  0.18030784  0.00553951  0.30811149  1
  O  O46  1  0.81806912  0.81521949  0.30734973  1
  O  O47  1  0.99082864  0.17189512  0.30658758  1
  O  O48  1  0.18578762  0.18397524  0.80803355  1
  O  O49  1  0.00012504  0.82591958  0.80733285  1
  O  O50  1  0.82696135  0.00784191  0.80753668  1
  O  O51  1  0.80361306  0.97437817  0.69065901  1
  O  O52  1  0.16885109  0.19303169  0.69604939  1
  O  O53  1  0.02769731  0.82819557  0.69057648  1
  O  O54  1  0.80409689  0.83244548  0.19544493  1
  O  O55  1  0.02403584  0.19604012  0.18940603  1
  O  O56  1  0.16567063  0.97245429  0.19236784  1
  O  O57  1  0.89944197  0.38465997  0.64626206  1
  O  O58  1  0.49208066  0.11079774  0.64512684  1
  O  O59  1  0.63200005  0.51979890  0.64878147  1
  O  O60  1  0.89092470  0.50935225  0.14581590  1
  O  O61  1  0.63654936  0.10331294  0.14514640  1
  O  O62  1  0.47847149  0.36219271  0.14844901  1
  O  O63  1  0.47815543  0.31327626  0.02936871  1
  O  O64  1  0.83483247  0.51849614  0.02901076  1
  O  O65  1  0.69063601  0.16175073  0.03328591  1
  O  O66  1  0.47589766  0.16525183  0.52797082  1
  O  O67  1  0.69546731  0.52314496  0.53077993  1
  O  O68  1  0.82964325  0.30240285  0.53012502  1
  O  O69  1  0.51973646  0.68324915  0.97245921  1
  O  O70  1  0.15801582  0.47085849  0.97557533  1
  O  O71  1  0.31123742  0.83431215  0.97280807  1
  O  O72  1  0.52849996  0.84522532  0.47485984  1
  O  O73  1  0.31771837  0.48187091  0.47109533  1
  O  O74  1  0.15816209  0.68965219  0.47551811  1
  O  O75  1  0.13849805  0.64310328  0.35816621  1
  O  O76  1  0.50515302  0.86025224  0.35702328  1
  O  O77  1  0.35674155  0.49063105  0.35467635  1
  O  O78  1  0.13820313  0.49642481  0.85793886  1
  O  O79  1  0.35860291  0.86512691  0.85676456  1
  O  O80  1  0.50775082  0.64261872  0.85544709  1
  O  O81  1  0.02016354  0.83383353  0.41089340  1
  O  O82  1  0.81205539  0.97737661  0.41114520  1
  O  O83  1  0.16674397  0.19048970  0.41215488  1
  O  O84  1  0.02487219  0.18916225  0.91132880  1
  O  O85  1  0.16739129  0.97984538  0.91144542  1
  O  O86  1  0.81043839  0.83259430  0.91217785  1
  O  O87  1  0.97042604  0.15883887  0.58945478  1
  O  O88  1  0.18493999  0.02261384  0.58887898  1
  O  O89  1  0.83867503  0.81080970  0.58882421  1
  O  O90  1  0.96676556  0.81009029  0.08921285  1
  O  O91  1  0.83244572  0.02872503  0.08732296  1
  O  O92  1  0.18284010  0.16447561  0.08781891  1
  O  O93  1  0.68600089  0.16114586  0.75071665  1
  O  O94  1  0.45625925  0.30599330  0.75060406  1
  O  O95  1  0.83383193  0.52741827  0.75284430  1
  O  O96  1  0.69435411  0.54483459  0.25016915  1
  O  O97  1  0.83661143  0.31252744  0.25012370  1
  O  O98  1  0.47490208  0.16452252  0.25024899  1
  O  O99  1  0.63953338  0.49344562  0.92285306  1
  O  O100  1  0.85194398  0.35660740  0.92377935  1
  O  O101  1  0.50840830  0.14460368  0.92437676  1
  O  O102  1  0.64039621  0.14724894  0.42163537  1
  O  O103  1  0.50816586  0.36186441  0.42295740  1
  O  O104  1  0.85443530  0.49247880  0.42316627  1
  O  O105  1  0.34104435  0.49681552  0.07784173  1
  O  O106  1  0.15082637  0.65323232  0.07555313  1
  O  O107  1  0.51063882  0.85695990  0.07529555  1
  O  O108  1  0.34407639  0.84863318  0.57601259  1
  O  O109  1  0.50710015  0.66334022  0.57672597  1
  O  O110  1  0.15199819  0.49986459  0.57398802  1
  O  O111  1  0.29842336  0.81874636  0.25248725  1
  O  O112  1  0.53423011  0.71010161  0.25266956  1
  O  O113  1  0.18355638  0.47786682  0.25230025  1
  O  O114  1  0.28835300  0.46442757  0.75245444  1
  O  O115  1  0.18035731  0.69912992  0.75277400  1
  O  O116  1  0.52135175  0.81365943  0.75232330  1
