# generated using pymatgen
data_CaZr3SiS5O24
_symmetry_space_group_name_H-M   'P 1'
_cell_length_a   9.10376914
_cell_length_b   9.09793931
_cell_length_c   23.38176060
_cell_angle_alpha   89.78366718
_cell_angle_beta   89.83126382
_cell_angle_gamma   120.03353332
_symmetry_Int_Tables_number   1
_chemical_formula_structural   CaZr3SiS5O24
_chemical_formula_sum   'Ca3 Zr9 Si3 S15 O72'
_cell_volume   1676.54569722
_cell_formula_units_Z   3
loop_
 _symmetry_equiv_pos_site_id
 _symmetry_equiv_pos_as_xyz
  1  'x, y, z'
loop_
 _atom_site_type_symbol
 _atom_site_label
 _atom_site_symmetry_multiplicity
 _atom_site_fract_x
 _atom_site_fract_y
 _atom_site_fract_z
 _atom_site_occupancy
  Ca  Ca0  1  0.99909613  0.99973154  0.35735717  1
  Ca  Ca1  1  0.66366181  0.33644536  0.68951645  1
  Ca  Ca2  1  0.66649775  0.33293726  0.18673931  1
  Zr  Zr3  1  0.00747539  0.00786675  0.85936873  1
  Zr  Zr4  1  0.99172025  0.99185296  0.64477833  1
  Zr  Zr5  1  0.00053284  0.00144071  0.14437257  1
  Zr  Zr6  1  0.66571167  0.32673910  0.97341170  1
  Zr  Zr7  1  0.67015180  0.34570198  0.48149116  1
  Zr  Zr8  1  0.32273559  0.66353345  0.01674273  1
  Zr  Zr9  1  0.33900210  0.66785292  0.52456208  1
  Zr  Zr10  1  0.33381110  0.66755204  0.30984090  1
  Zr  Zr11  1  0.32507323  0.66993018  0.81294776  1
  Si  Si12  1  0.66885094  0.62506163  0.58503481  1
  Si  Si13  1  0.04597179  0.37966116  0.91625733  1
  Si  Si14  1  0.33271163  0.95330789  0.91568384  1
  S  S15  1  0.28680379  0.99659368  0.25048376  1
  S  S16  1  0.70942806  0.71272300  0.25057868  1
  S  S17  1  0.00374280  0.29112087  0.25054842  1
  S  S18  1  0.28380951  0.28799585  0.75069269  1
  S  S19  1  0.00281875  0.71634972  0.75117449  1
  S  S20  1  0.71256010  0.99527440  0.75137664  1
  S  S21  1  0.95735926  0.33211827  0.58271346  1
  S  S22  1  0.37497907  0.04313269  0.58283826  1
  S  S23  1  0.95900061  0.62690009  0.08348471  1
  S  S24  1  0.66616446  0.03901608  0.08320278  1
  S  S25  1  0.37493895  0.33507561  0.08345802  1
  S  S26  1  0.61989854  0.66641008  0.91637288  1
  S  S27  1  0.61494788  0.95471582  0.41721966  1
  S  S28  1  0.33734762  0.38395662  0.41748450  1
  S  S29  1  0.04668599  0.66147777  0.41731474  1
  O  O30  1  0.20938617  0.02036556  0.30141588  1
  O  O31  1  0.81056128  0.78991022  0.30126738  1
  O  O32  1  0.97876198  0.18880016  0.30143513  1
  O  O33  1  0.19382270  0.17876352  0.80171508  1
  O  O34  1  0.98182097  0.80210132  0.80133448  1
  O  O35  1  0.81923566  0.01457269  0.80156197  1
  O  O36  1  0.79779884  0.97246507  0.69856665  1
  O  O37  1  0.17635196  0.20631172  0.69897978  1
  O  O38  1  0.02960104  0.82533956  0.69855504  1
  O  O39  1  0.79154943  0.82489579  0.19861986  1
  O  O40  1  0.03352944  0.20926528  0.19878964  1
  O  O41  1  0.17582255  0.96718868  0.19880127  1
  O  O42  1  0.88876060  0.36555744  0.63340339  1
  O  O43  1  0.47877837  0.10693904  0.63318021  1
  O  O44  1  0.62683682  0.50888695  0.63884440  1
  O  O45  1  0.88800091  0.52564473  0.13486727  1
  O  O46  1  0.63572446  0.11001831  0.13432201  1
  O  O47  1  0.47434846  0.36182264  0.13474183  1
  O  O48  1  0.45192907  0.30268810  0.03262554  1
  O  O49  1  0.85076348  0.55103698  0.03285360  1
  O  O50  1  0.69977052  0.15138073  0.03246486  1
  O  O51  1  0.45909274  0.15285618  0.53091001  1
  O  O52  1  0.69745356  0.53250219  0.52654444  1
  O  O53  1  0.84688581  0.30240729  0.53099338  1
  O  O54  1  0.54341526  0.69594169  0.96810577  1
  O  O55  1  0.16539103  0.46594015  0.97239361  1
  O  O56  1  0.30724658  0.83658311  0.97224200  1
  O  O57  1  0.52737843  0.84504820  0.46782464  1
  O  O58  1  0.31492160  0.46987795  0.46784456  1
  O  O59  1  0.15236550  0.68269343  0.46782980  1
  O  O60  1  0.13019169  0.63676300  0.36519407  1
  O  O61  1  0.50613210  0.86973801  0.36533127  1
  O  O62  1  0.36516884  0.49329605  0.36536665  1
  O  O63  1  0.13832447  0.49987428  0.86059116  1
  O  O64  1  0.36824001  0.86607211  0.86040541  1
  O  O65  1  0.51329416  0.63557985  0.86537713  1
  O  O66  1  0.02524922  0.80757391  0.41064803  1
  O  O67  1  0.78042727  0.97044899  0.41103715  1
  O  O68  1  0.18934099  0.21762488  0.41138567  1
  O  O69  1  0.01860348  0.19157618  0.90593507  1
  O  O70  1  0.16611533  0.97043074  0.90539476  1
  O  O71  1  0.78992657  0.81611728  0.90750909  1
  O  O72  1  0.97974844  0.18208720  0.58981230  1
  O  O73  1  0.20538228  0.02699150  0.59019333  1
  O  O74  1  0.83694278  0.81620481  0.59275115  1
  O  O75  1  0.97939075  0.80200830  0.09311260  1
  O  O76  1  0.82404703  0.02351220  0.09276286  1
  O  O77  1  0.19946996  0.17860286  0.09315595  1
  O  O78  1  0.69445657  0.14314064  0.74412244  1
  O  O79  1  0.44817739  0.30061207  0.74642829  1
  O  O80  1  0.85767468  0.54856512  0.74523841  1
  O  O81  1  0.68205224  0.54351334  0.24124462  1
  O  O82  1  0.86154434  0.31781458  0.24109129  1
  O  O83  1  0.45627827  0.13853161  0.24111079  1
  O  O84  1  0.63917050  0.51555721  0.92671643  1
  O  O85  1  0.86188551  0.36402838  0.92892022  1
  O  O86  1  0.49586330  0.14122931  0.92851847  1
  O  O87  1  0.62803450  0.12242755  0.42528579  1
  O  O88  1  0.49257905  0.36874129  0.42510717  1
  O  O89  1  0.87756401  0.50251258  0.42441077  1
  O  O90  1  0.35074535  0.48198527  0.07366279  1
  O  O91  1  0.13195484  0.65204655  0.07420247  1
  O  O92  1  0.52314008  0.86666183  0.07262081  1
  O  O93  1  0.34698432  0.86945502  0.56974754  1
  O  O94  1  0.50925298  0.65445291  0.56776638  1
  O  O95  1  0.12843526  0.48210555  0.56977285  1
  O  O96  1  0.29981113  0.83655415  0.25850441  1
  O  O97  1  0.53666117  0.70004047  0.25854885  1
  O  O98  1  0.16368711  0.46380564  0.25852355  1
  O  O99  1  0.30011189  0.45759567  0.75841140  1
  O  O100  1  0.16176560  0.70633087  0.75648295  1
  O  O101  1  0.54537993  0.83751008  0.75751558  1
