# generated using pymatgen
data_Na6La4Al4Si3(S3O16)3
_symmetry_space_group_name_H-M   'P 1'
_cell_length_a   17.97469201
_cell_length_b   9.05938873
_cell_length_c   23.51038077
_cell_angle_alpha   90.36800340
_cell_angle_beta   89.22922196
_cell_angle_gamma   120.21055106
_symmetry_Int_Tables_number   1
_chemical_formula_structural   Na6La4Al4Si3(S3O16)3
_chemical_formula_sum   'Na18 La12 Al12 Si9 S27 O144'
_cell_volume   3308.15596599
_cell_formula_units_Z   3
loop_
 _symmetry_equiv_pos_site_id
 _symmetry_equiv_pos_as_xyz
  1  'x, y, z'
loop_
 _atom_site_type_symbol
 _atom_site_label
 _atom_site_symmetry_multiplicity
 _atom_site_fract_x
 _atom_site_fract_y
 _atom_site_fract_z
 _atom_site_occupancy
  Na  Na0  1  0.00433849  0.64052622  0.25538845  1
  Na  Na1  1  0.50257500  0.37020165  0.74110835  1
  Na  Na2  1  0.15991064  0.31062197  0.91264936  1
  Na  Na3  1  0.66130166  0.30503724  0.90860996  1
  Na  Na4  1  0.16436796  0.02242499  0.41641341  1
  Na  Na5  1  0.65879971  0.00483380  0.41881565  1
  Na  Na6  1  0.99269326  0.98366931  0.49381058  1
  Na  Na7  1  0.49067695  0.00148749  0.49712568  1
  Na  Na8  1  0.99199016  0.00031425  0.98850370  1
  Na  Na9  1  0.49359909  0.00223651  0.99000467  1
  Na  Na10  1  0.33453201  0.33381837  0.82658162  1
  Na  Na11  1  0.83949875  0.33678816  0.83949376  1
  Na  Na12  1  0.34176668  0.34679608  0.34299451  1
  Na  Na13  1  0.83268214  0.33146988  0.33337692  1
  Na  Na14  1  0.17361382  0.68296442  0.17749859  1
  Na  Na15  1  0.66753404  0.68778270  0.17458330  1
  Na  Na16  1  0.17092446  0.65115440  0.67212854  1
  Na  Na17  1  0.66171175  0.64611556  0.66792961  1
  La  La18  1  0.99618290  0.00950906  0.64650165  1
  La  La19  1  0.51284982  0.02276673  0.64649193  1
  La  La20  1  0.01326915  0.01022347  0.15013549  1
  La  La21  1  0.49724789  0.98326692  0.14685534  1
  La  La22  1  0.82643824  0.33253569  0.69562583  1
  La  La23  1  0.32778853  0.32378231  0.19654602  1
  La  La24  1  0.15412770  0.65029867  0.01046325  1
  La  La25  1  0.66665332  0.65786883  0.01069124  1
  La  La26  1  0.16823528  0.67607866  0.51163746  1
  La  La27  1  0.63951262  0.63371002  0.51734298  1
  La  La28  1  0.66028521  0.67579186  0.32225525  1
  La  La29  1  0.16012694  0.64307984  0.82010627  1
  Al  Al30  1  0.00413305  0.99190648  0.35460709  1
  Al  Al31  1  0.50963861  0.99213485  0.34522819  1
  Al  Al32  1  0.01050424  0.03262716  0.84194857  1
  Al  Al33  1  0.49982440  0.01746121  0.84756485  1
  Al  Al34  1  0.32252282  0.32828648  0.67818858  1
  Al  Al35  1  0.82200636  0.31782884  0.18547621  1
  Al  Al36  1  0.34519055  0.33536292  0.97702299  1
  Al  Al37  1  0.83863700  0.32834562  0.98529128  1
  Al  Al38  1  0.35342017  0.36675489  0.49109992  1
  Al  Al39  1  0.84518101  0.35217421  0.47801781  1
  Al  Al40  1  0.15965375  0.67428846  0.32237438  1
  Al  Al41  1  0.65199883  0.64636429  0.81851885  1
  Si  Si42  1  0.14412207  0.98140239  0.26143932  1
  Si  Si43  1  0.65528658  0.01527298  0.24945023  1
  Si  Si44  1  0.15932567  0.29482339  0.74822699  1
  Si  Si45  1  0.64561029  0.31034971  0.76196805  1
  Si  Si46  1  0.46585951  0.32833431  0.59086726  1
  Si  Si47  1  0.99929678  0.32999551  0.91636392  1
  Si  Si48  1  0.51227747  0.35333530  0.91283752  1
  Si  Si49  1  0.01261492  0.66953178  0.41344573  1
  Si  Si50  1  0.49920558  0.67014457  0.41513579  1
  S  S51  1  0.34559461  0.71538726  0.26198825  1
  S  S52  1  0.85431255  0.69412798  0.24949242  1
  S  S53  1  0.00165885  0.30416697  0.25518954  1
  S  S54  1  0.50135742  0.28062689  0.25668261  1
  S  S55  1  0.00073363  0.72351914  0.75696768  1
  S  S56  1  0.50395710  0.71088930  0.75870254  1
  S  S57  1  0.35611424  0.00827127  0.75441390  1
  S  S58  1  0.84516720  0.97667315  0.76264407  1
  S  S59  1  0.97292620  0.33090167  0.57640092  1
  S  S60  1  0.19851852  0.06492095  0.57918214  1
  S  S61  1  0.69648030  0.05526231  0.57300529  1
  S  S62  1  0.33074051  0.60267473  0.58468863  1
  S  S63  1  0.83478527  0.61668846  0.57432481  1
  S  S64  1  0.47214863  0.61384566  0.07621849  1
  S  S65  1  0.96368853  0.59669391  0.08588037  1
  S  S66  1  0.33391400  0.05224091  0.07446618  1
  S  S67  1  0.83245041  0.06541855  0.08530478  1
  S  S68  1  0.19326394  0.33451839  0.07467999  1
  S  S69  1  0.70226229  0.33517767  0.08091044  1
  S  S70  1  0.33088062  0.66530106  0.91908498  1
  S  S71  1  0.82221554  0.66605878  0.91232924  1
  S  S72  1  0.16941859  0.99471051  0.91793374  1
  S  S73  1  0.66349093  0.96882283  0.91247821  1
  S  S74  1  0.32040867  0.96963964  0.40822765  1
  S  S75  1  0.83112035  0.99325470  0.41870084  1
  S  S76  1  0.16074028  0.36040783  0.40881805  1
  S  S77  1  0.66879544  0.34185170  0.41577775  1
  O  O78  1  0.08551267  0.00606032  0.30929319  1
  O  O79  1  0.60461243  0.02527847  0.30708417  1
  O  O80  1  0.40928384  0.82450573  0.30425301  1
  O  O81  1  0.90720586  0.78210312  0.29982466  1
  O  O82  1  0.50108440  0.17552863  0.30421436  1
  O  O83  1  0.98448868  0.18584026  0.30233706  1
  O  O84  1  0.10988322  0.18774726  0.80756905  1
  O  O85  1  0.59122368  0.17415605  0.81180397  1
  O  O86  1  0.49073967  0.80475938  0.80600159  1
  O  O87  1  0.00074097  0.83057141  0.80502803  1
  O  O88  1  0.40903720  0.01293137  0.80402446  1
  O  O89  1  0.90973390  0.99710002  0.80537293  1
  O  O90  1  0.39115530  0.98031322  0.70096482  1
  O  O91  1  0.87151505  0.94761573  0.70540425  1
  O  O92  1  0.09590886  0.20479144  0.69429793  1
  O  O93  1  0.59548677  0.24492997  0.70132438  1
  O  O94  1  0.99769124  0.79470115  0.70133651  1
  O  O95  1  0.51949099  0.80057960  0.70384258  1
  O  O96  1  0.37116770  0.79409296  0.20427901  1
  O  O97  1  0.89058104  0.79830096  0.19725254  1
  O  O98  1  0.01790014  0.23985794  0.20059472  1
  O  O99  1  0.49834560  0.20258931  0.20050206  1
  O  O100  1  0.09391272  0.94198699  0.19978505  1
  O  O101  1  0.59636391  0.98330830  0.19316256  1
  O  O102  1  0.41473671  0.33270103  0.64937783  1
  O  O103  1  0.93357644  0.33049870  0.63171618  1
  O  O104  1  0.24258958  0.15730702  0.63143971  1
  O  O105  1  0.73398752  0.13666853  0.62813587  1
  O  O106  1  0.32712864  0.50876578  0.63711898  1
  O  O107  1  0.83221005  0.53529628  0.62926610  1
  O  O108  1  0.43251855  0.53648477  0.13149800  1
  O  O109  1  0.91903677  0.50319267  0.13909678  1
  O  O110  1  0.33091254  0.12849945  0.12962203  1
  O  O111  1  0.83214897  0.15766507  0.13831872  1
  O  O112  1  0.23172036  0.33216079  0.12957456  1
  O  O113  1  0.74875400  0.33618274  0.13289678  1
  O  O114  1  0.24586316  0.33897334  0.02481724  1
  O  O115  1  0.74771568  0.33292549  0.02674911  1
  O  O116  1  0.42252420  0.50527870  0.02764295  1
  O  O117  1  0.91925821  0.50645931  0.03275784  1
  O  O118  1  0.33294168  0.15609212  0.02586674  1
  O  O119  1  0.83163967  0.15704209  0.03304957  1
  O  O120  1  0.24352417  0.15754991  0.52525675  1
  O  O121  1  0.74905395  0.15946763  0.52353582  1
  O  O122  1  0.32704586  0.50698713  0.53178352  1
  O  O123  1  0.83413779  0.51018030  0.52537408  1
  O  O124  1  0.42252744  0.33411476  0.53067946  1
  O  O125  1  0.92358906  0.33966672  0.52771406  1
  O  O126  1  0.29308756  0.70744357  0.96883037  1
  O  O127  1  0.79608388  0.71357273  0.96729598  1
  O  O128  1  0.07059071  0.40561486  0.96863955  1
  O  O129  1  0.57722401  0.41994421  0.96831073  1
  O  O130  1  0.15240062  0.88760983  0.96924262  1
  O  O131  1  0.64893037  0.87276447  0.96641863  1
  O  O132  1  0.29474742  0.87425354  0.46332692  1
  O  O133  1  0.79397930  0.87752201  0.46753669  1
  O  O134  1  0.14577971  0.42348138  0.46366482  1
  O  O135  1  0.65219308  0.41540359  0.46709477  1
  O  O136  1  0.07874385  0.73221502  0.46778094  1
  O  O137  1  0.57122470  0.73473060  0.46617495  1
  O  O138  1  0.06375492  0.63634517  0.36055645  1
  O  O139  1  0.53676215  0.61473817  0.36068932  1
  O  O140  1  0.25281022  0.86282319  0.36510426  1
  O  O141  1  0.77332135  0.92706402  0.36861238  1
  O  O142  1  0.17432088  0.48126401  0.36214280  1
  O  O143  1  0.69107765  0.45445848  0.36624466  1
  O  O144  1  0.03899403  0.46244391  0.86359370  1
  O  O145  1  0.56491673  0.49522459  0.86243267  1
  O  O146  1  0.19113033  0.92419019  0.86858624  1
  O  O147  1  0.67986177  0.88063593  0.86484577  1
  O  O148  1  0.27109195  0.61524819  0.87023946  1
  O  O149  1  0.75651261  0.63185237  0.86836050  1
  O  O150  1  0.00081527  0.83825942  0.40355524  1
  O  O151  1  0.49636744  0.84456727  0.40053882  1
  O  O152  1  0.40687450  0.00510651  0.39372123  1
  O  O153  1  0.91704153  0.01571175  0.40362077  1
  O  O154  1  0.08222087  0.18637441  0.40029307  1
  O  O155  1  0.58976966  0.17204543  0.40617853  1
  O  O156  1  0.99746168  0.15045438  0.90005549  1
  O  O157  1  0.49881264  0.16036709  0.90170382  1
  O  O158  1  0.09130506  0.00905390  0.90875057  1
  O  O159  1  0.58669021  0.98806483  0.90367935  1
  O  O160  1  0.41576855  0.81336041  0.90552156  1
  O  O161  1  0.90923581  0.80425199  0.89861082  1
  O  O162  1  0.47583074  0.15886697  0.58472799  1
  O  O163  1  0.97713450  0.17211415  0.56971439  1
  O  O164  1  0.11052673  0.04002676  0.57834228  1
  O  O165  1  0.60960761  0.03510064  0.56804204  1
  O  O166  1  0.41070973  0.76880044  0.58270415  1
  O  O167  1  0.91540213  0.78507332  0.57059229  1
  O  O168  1  0.47659858  0.78099447  0.06976774  1
  O  O169  1  0.97064731  0.76632538  0.08396882  1
  O  O170  1  0.41341282  0.04140004  0.07040245  1
  O  O171  1  0.91138253  0.05313453  0.08339910  1
  O  O172  1  0.10678865  0.17778544  0.07011362  1
  O  O173  1  0.61595861  0.18202702  0.07962253  1
  O  O174  1  0.35798239  0.17357856  0.75340807  1
  O  O175  1  0.84234572  0.13808086  0.76188904  1
  O  O176  1  0.25324186  0.30511199  0.73670529  1
  O  O177  1  0.74020533  0.32597586  0.76230597  1
  O  O178  1  0.42894883  0.53497297  0.75473406  1
  O  O179  1  0.92454087  0.54990560  0.76311128  1
  O  O180  1  0.34188180  0.54736519  0.26134703  1
  O  O181  1  0.85596792  0.52929121  0.24177817  1
  O  O182  1  0.42472605  0.30191033  0.26228760  1
  O  O183  1  0.92616313  0.33136638  0.24687882  1
  O  O184  1  0.23784918  0.15482269  0.26086372  1
  O  O185  1  0.74934617  0.19379222  0.24003232  1
  O  O186  1  0.33614046  0.50864969  0.93145687  1
  O  O187  1  0.82042750  0.49825930  0.92212593  1
  O  O188  1  0.41925767  0.33949180  0.92600737  1
  O  O189  1  0.90889463  0.31954102  0.93512362  1
  O  O190  1  0.24359686  0.17328879  0.92905417  1
  O  O191  1  0.73941069  0.14664524  0.92045691  1
  O  O192  1  0.31704929  0.13063777  0.41497333  1
  O  O193  1  0.83846870  0.16344760  0.43049112  1
  O  O194  1  0.23497271  0.33261385  0.41357198  1
  O  O195  1  0.74258453  0.30982296  0.42638449  1
  O  O196  1  0.40696828  0.50001624  0.43279062  1
  O  O197  1  0.91925774  0.49783432  0.42620643  1
  O  O198  1  0.18421346  0.48868795  0.07645760  1
  O  O199  1  0.69706391  0.49298211  0.08272265  1
  O  O200  1  0.05112711  0.61706703  0.08628620  1
  O  O201  1  0.56009081  0.63836183  0.07644047  1
  O  O202  1  0.25688817  0.87859398  0.07305315  1
  O  O203  1  0.75444374  0.89410216  0.08583360  1
  O  O204  1  0.19363871  0.89649293  0.58225858  1
  O  O205  1  0.69126191  0.88763186  0.57398433  1
  O  O206  1  0.25372980  0.62207453  0.58522383  1
  O  O207  1  0.75907238  0.63879692  0.57266259  1
  O  O208  1  0.06084882  0.48186922  0.57643038  1
  O  O209  1  0.56232153  0.50126731  0.59440257  1
  O  O210  1  0.15429241  0.81139874  0.26875481  1
  O  O211  1  0.67107704  0.85250249  0.25239455  1
  O  O212  1  0.25801573  0.68792301  0.27356559  1
  O  O213  1  0.76466532  0.65567802  0.25554996  1
  O  O214  1  0.08003580  0.47750722  0.26404335  1
  O  O215  1  0.58033610  0.45125828  0.25531847  1
  O  O216  1  0.17417135  0.48846566  0.75185811  1
  O  O217  1  0.65375577  0.49945783  0.76853298  1
  O  O218  1  0.07976921  0.71118853  0.75605379  1
  O  O219  1  0.58317208  0.69405319  0.76772196  1
  O  O220  1  0.26679168  0.86718507  0.76005089  1
  O  O221  1  0.75885863  0.82984656  0.77565357  1
