# generated using pymatgen
data_Na3Nb2Al2SiP5O24
_symmetry_space_group_name_H-M   'P 1'
_cell_length_a   8.68389719
_cell_length_b   8.64975644
_cell_length_c   22.30971693
_cell_angle_alpha   90.04467819
_cell_angle_beta   89.95332678
_cell_angle_gamma   119.81357917
_symmetry_Int_Tables_number   1
_chemical_formula_structural   Na3Nb2Al2SiP5O24
_chemical_formula_sum   'Na9 Nb6 Al6 Si3 P15 O72'
_cell_volume   1453.97125151
_cell_formula_units_Z   3
loop_
 _symmetry_equiv_pos_site_id
 _symmetry_equiv_pos_as_xyz
  1  'x, y, z'
loop_
 _atom_site_type_symbol
 _atom_site_label
 _atom_site_symmetry_multiplicity
 _atom_site_fract_x
 _atom_site_fract_y
 _atom_site_fract_z
 _atom_site_occupancy
  Na  Na0  1  0.36261747  0.99527802  0.75148946  1
  Na  Na1  1  0.66991444  0.97097267  0.58566052  1
  Na  Na2  1  0.67226851  0.69970617  0.08371581  1
  Na  Na3  1  0.01042122  0.00071980  0.50366523  1
  Na  Na4  1  0.00799040  0.00488492  0.00344658  1
  Na  Na5  1  0.67336136  0.34035194  0.83807485  1
  Na  Na6  1  0.66557832  0.33242599  0.33731382  1
  Na  Na7  1  0.32599846  0.66618598  0.17161688  1
  Na  Na8  1  0.32837246  0.65508093  0.67074752  1
  Nb  Nb9  1  0.00090051  0.00083449  0.35525585  1
  Nb  Nb10  1  0.99428006  0.99985968  0.85566978  1
  Nb  Nb11  1  0.66785101  0.33137498  0.68771318  1
  Nb  Nb12  1  0.67210794  0.33538023  0.18905317  1
  Nb  Nb13  1  0.32571321  0.66574209  0.02107755  1
  Nb  Nb14  1  0.32922965  0.66684124  0.52075084  1
  Al  Al15  1  0.00378301  0.99967999  0.64741970  1
  Al  Al16  1  0.00675214  0.00167235  0.14720533  1
  Al  Al17  1  0.66850603  0.33693550  0.98059835  1
  Al  Al18  1  0.66047274  0.33071094  0.47991003  1
  Al  Al19  1  0.33317375  0.66671417  0.31371334  1
  Al  Al20  1  0.33772510  0.66482882  0.81375678  1
  Si  Si21  1  0.70727405  0.98603025  0.74668243  1
  Si  Si22  1  0.36735721  0.05331574  0.58069198  1
  Si  Si23  1  0.95173345  0.62748792  0.08105610  1
  P  P24  1  0.28340849  0.98960593  0.24847502  1
  P  P25  1  0.70557398  0.71790350  0.24849011  1
  P  P26  1  0.01165514  0.29215156  0.24817376  1
  P  P27  1  0.28057033  0.29366473  0.74887445  1
  P  P28  1  0.00496117  0.71390717  0.74915664  1
  P  P29  1  0.95204415  0.32791799  0.58083448  1
  P  P30  1  0.67574473  0.62279241  0.58058605  1
  P  P31  1  0.67645426  0.05332200  0.08129451  1
  P  P32  1  0.37355945  0.32040105  0.08163332  1
  P  P33  1  0.61470717  0.65453639  0.91564713  1
  P  P34  1  0.04058152  0.38542898  0.91400003  1
  P  P35  1  0.34461172  0.96329975  0.91431708  1
  P  P36  1  0.61566097  0.95975913  0.41449658  1
  P  P37  1  0.34489039  0.38544304  0.41409144  1
  P  P38  1  0.03832733  0.65387668  0.41407046  1
  O  O39  1  0.19966364  0.02696847  0.30557964  1
  O  O40  1  0.82774289  0.80035763  0.30466605  1
  O  O41  1  0.97311029  0.17290781  0.30543505  1
  O  O42  1  0.20575701  0.16971276  0.80530833  1
  O  O43  1  0.97165367  0.79839011  0.80626623  1
  O  O44  1  0.83504487  0.03075770  0.80684623  1
  O  O45  1  0.80263922  0.96784204  0.68775490  1
  O  O46  1  0.17003447  0.20287596  0.69366492  1
  O  O47  1  0.03869890  0.83350980  0.69476313  1
  O  O48  1  0.79374139  0.82718332  0.19209866  1
  O  O49  1  0.03126479  0.19915980  0.19324765  1
  O  O50  1  0.16910720  0.96723968  0.19382010  1
  O  O51  1  0.87243168  0.36707906  0.63853659  1
  O  O52  1  0.49846253  0.12908457  0.64191710  1
  O  O53  1  0.63773051  0.50711075  0.63818837  1
  O  O54  1  0.86434288  0.49886296  0.14139532  1
  O  O55  1  0.63371270  0.12868607  0.13880096  1
  O  O56  1  0.49625139  0.36568126  0.13823527  1
  O  O57  1  0.46225044  0.29741987  0.02617285  1
  O  O58  1  0.82363020  0.53154552  0.02515770  1
  O  O59  1  0.69714548  0.16473309  0.02614788  1
  O  O60  1  0.47354030  0.17062330  0.52420360  1
  O  O61  1  0.70019121  0.53365160  0.52559512  1
  O  O62  1  0.83432304  0.29987311  0.52666212  1
  O  O63  1  0.54054944  0.69530934  0.97379233  1
  O  O64  1  0.16032797  0.46623301  0.97151051  1
  O  O65  1  0.30679390  0.83964804  0.97105467  1
  O  O66  1  0.53907304  0.84300642  0.47290575  1
  O  O67  1  0.30461753  0.46431551  0.47149309  1
  O  O68  1  0.15930926  0.69494799  0.47155243  1
  O  O69  1  0.13252795  0.63397293  0.35984203  1
  O  O70  1  0.50060235  0.86513306  0.36047286  1
  O  O71  1  0.36374303  0.49835233  0.35937696  1
  O  O72  1  0.13469488  0.49957133  0.85977430  1
  O  O73  1  0.36446744  0.87184864  0.85844303  1
  O  O74  1  0.50215901  0.63613195  0.86091631  1
  O  O75  1  0.02408862  0.82827737  0.40950359  1
  O  O76  1  0.80391971  0.97412244  0.40916845  1
  O  O77  1  0.17177351  0.19591626  0.40913244  1
  O  O78  1  0.02877843  0.19767860  0.91049619  1
  O  O79  1  0.17192320  0.97677525  0.91059375  1
  O  O80  1  0.80475375  0.82709424  0.91024200  1
  O  O81  1  0.96941771  0.16283406  0.59028204  1
  O  O82  1  0.17341720  0.02269607  0.59278695  1
  O  O83  1  0.83209707  0.81147161  0.58929748  1
  O  O84  1  0.97151176  0.82069482  0.09276367  1
  O  O85  1  0.83522049  0.02539691  0.09128474  1
  O  O86  1  0.18828877  0.16474622  0.09205123  1
  O  O87  1  0.68781512  0.16988131  0.74413066  1
  O  O88  1  0.46944402  0.30900618  0.74335249  1
  O  O89  1  0.83458431  0.52926542  0.74429221  1
  O  O90  1  0.68886003  0.52804336  0.24399098  1
  O  O91  1  0.83678268  0.30515589  0.24420189  1
  O  O92  1  0.46989649  0.16146629  0.24352299  1
  O  O93  1  0.63787539  0.49190874  0.92347952  1
  O  O94  1  0.85579121  0.35918864  0.92404974  1
  O  O95  1  0.50681838  0.14568983  0.92504128  1
  O  O96  1  0.64281830  0.14617130  0.42375074  1
  O  O97  1  0.50609948  0.36203661  0.42312000  1
  O  O98  1  0.85501789  0.49441404  0.42510144  1
  O  O99  1  0.36429559  0.49833272  0.07610641  1
  O  O100  1  0.14912036  0.64362749  0.07730166  1
  O  O101  1  0.50868243  0.86022489  0.07592413  1
  O  O102  1  0.36052047  0.85484934  0.57592762  1
  O  O103  1  0.50460723  0.64303206  0.57565577  1
  O  O104  1  0.13943754  0.49653398  0.57660617  1
  O  O105  1  0.30579818  0.82695152  0.25877709  1
  O  O106  1  0.52103287  0.69393260  0.25853012  1
  O  O107  1  0.17088172  0.47750760  0.25810868  1
  O  O108  1  0.30359016  0.47768928  0.75907231  1
  O  O109  1  0.16855674  0.69295330  0.75880454  1
  O  O110  1  0.50764740  0.82434786  0.75819085  1
