# generated using pymatgen
data_Na6CaSi6Ge7(SO8)6
_symmetry_space_group_name_H-M   'P 1'
_cell_length_a   17.30505638
_cell_length_b   8.59583269
_cell_length_c   22.12469709
_cell_angle_alpha   89.76929631
_cell_angle_beta   90.48874977
_cell_angle_gamma   119.83273024
_symmetry_Int_Tables_number   1
_chemical_formula_structural   Na6CaSi6Ge7(SO8)6
_chemical_formula_sum   'Na18 Ca3 Si18 Ge21 S18 O144'
_cell_volume   2854.84589813
_cell_formula_units_Z   3
loop_
 _symmetry_equiv_pos_site_id
 _symmetry_equiv_pos_as_xyz
  1  'x, y, z'
loop_
 _atom_site_type_symbol
 _atom_site_label
 _atom_site_symmetry_multiplicity
 _atom_site_fract_x
 _atom_site_fract_y
 _atom_site_fract_z
 _atom_site_occupancy
  Na  Na0  1  0.68843022  0.38007776  0.25238489  1
  Na  Na1  1  0.99759376  0.64703815  0.25371229  1
  Na  Na2  1  0.99639413  0.36294814  0.75349390  1
  Na  Na3  1  0.49390751  0.36112561  0.75107192  1
  Na  Na4  1  0.19270218  0.01297898  0.75575093  1
  Na  Na5  1  0.68916797  0.01000828  0.75081676  1
  Na  Na6  1  0.99770186  0.99848784  0.49451642  1
  Na  Na7  1  0.50530072  0.00217208  0.49850567  1
  Na  Na8  1  0.00740643  0.01181209  0.99988010  1
  Na  Na9  1  0.50041161  0.99282855  0.99850812  1
  Na  Na10  1  0.33233785  0.33865567  0.83046253  1
  Na  Na11  1  0.82874302  0.33023306  0.83256837  1
  Na  Na12  1  0.33360597  0.33268527  0.33093893  1
  Na  Na13  1  0.83405829  0.33399287  0.33594116  1
  Na  Na14  1  0.17273008  0.66972174  0.16560390  1
  Na  Na15  1  0.66299819  0.66832753  0.16889153  1
  Na  Na16  1  0.17667278  0.66639965  0.66749724  1
  Na  Na17  1  0.67151535  0.66536172  0.66519670  1
  Ca  Ca18  1  0.33307031  0.33799400  0.68440671  1
  Ca  Ca19  1  0.83046544  0.33116522  0.68273745  1
  Ca  Ca20  1  0.83272248  0.33101129  0.18384863  1
  Si  Si21  1  0.14932781  0.00566541  0.25381541  1
  Si  Si22  1  0.85746687  0.73346759  0.25218701  1
  Si  Si23  1  0.49674972  0.28182909  0.24960465  1
  Si  Si24  1  0.14222472  0.29254706  0.75283079  1
  Si  Si25  1  0.64465012  0.29618694  0.75530478  1
  Si  Si26  1  0.50051878  0.71567791  0.75332084  1
  Si  Si27  1  0.35609733  0.98227044  0.75627154  1
  Si  Si28  1  0.86021512  0.98877837  0.75541312  1
  Si  Si29  1  0.47197764  0.61485635  0.08458162  1
  Si  Si30  1  0.18659053  0.33519368  0.08690978  1
  Si  Si31  1  0.02264831  0.38225845  0.91636390  1
  Si  Si32  1  0.16873228  0.95423406  0.91813696  1
  Si  Si33  1  0.66234833  0.95318055  0.91558417  1
  Si  Si34  1  0.81159769  0.94877529  0.41360876  1
  Si  Si35  1  0.16646850  0.37926430  0.41458604  1
  Si  Si36  1  0.66460744  0.37852491  0.41689645  1
  Si  Si37  1  0.02259209  0.66548371  0.41770345  1
  Si  Si38  1  0.52397193  0.67017403  0.41256545  1
  Ge  Ge39  1  0.00467650  0.99210246  0.35987124  1
  Ge  Ge40  1  0.50339507  0.01222994  0.35735998  1
  Ge  Ge41  1  0.01218931  0.02918600  0.85932582  1
  Ge  Ge42  1  0.50699539  0.99718452  0.85013723  1
  Ge  Ge43  1  0.99460009  0.00892558  0.65175796  1
  Ge  Ge44  1  0.50061980  0.00662048  0.66000273  1
  Ge  Ge45  1  0.00989896  0.99842297  0.15344726  1
  Ge  Ge46  1  0.49502715  0.99078417  0.14832097  1
  Ge  Ge47  1  0.33326647  0.33413930  0.18764509  1
  Ge  Ge48  1  0.31984860  0.32903366  0.98525700  1
  Ge  Ge49  1  0.83351823  0.32118443  0.97280472  1
  Ge  Ge50  1  0.33740170  0.35577734  0.47397491  1
  Ge  Ge51  1  0.83112760  0.32761103  0.46855276  1
  Ge  Ge52  1  0.16092301  0.64986315  0.01633728  1
  Ge  Ge53  1  0.65232164  0.66744432  0.01878138  1
  Ge  Ge54  1  0.16161590  0.65617806  0.51243595  1
  Ge  Ge55  1  0.66692374  0.67429491  0.50599492  1
  Ge  Ge56  1  0.16102483  0.66281588  0.31795452  1
  Ge  Ge57  1  0.66755801  0.65833972  0.31633495  1
  Ge  Ge58  1  0.17054875  0.66747767  0.81659559  1
  Ge  Ge59  1  0.67108177  0.68268299  0.80830294  1
  S  S60  1  0.63714153  0.98628110  0.25137195  1
  S  S61  1  0.35522998  0.71308642  0.25154170  1
  S  S62  1  0.00670607  0.28962733  0.25297938  1
  S  S63  1  0.00251828  0.72463682  0.75222555  1
  S  S64  1  0.48541416  0.33613907  0.57971990  1
  S  S65  1  0.98600485  0.33530927  0.58144077  1
  S  S66  1  0.18184812  0.02641986  0.58006150  1
  S  S67  1  0.68067752  0.02599531  0.57993997  1
  S  S68  1  0.33227887  0.64074264  0.57881259  1
  S  S69  1  0.83333536  0.63995294  0.58018741  1
  S  S70  1  0.98271059  0.63135989  0.07964846  1
  S  S71  1  0.33295825  0.04267909  0.08340563  1
  S  S72  1  0.83147586  0.02703126  0.07825967  1
  S  S73  1  0.68300089  0.33639672  0.07808159  1
  S  S74  1  0.31198977  0.66649528  0.91885555  1
  S  S75  1  0.80804286  0.66469962  0.91927633  1
  S  S76  1  0.52015450  0.37742632  0.91730826  1
  S  S77  1  0.31055154  0.95683510  0.41784389  1
  O  O78  1  0.10380658  0.03842014  0.31166409  1
  O  O79  1  0.59582343  0.02002307  0.30469329  1
  O  O80  1  0.41055238  0.79399726  0.30580320  1
  O  O81  1  0.92733199  0.82262336  0.30770986  1
  O  O82  1  0.47923191  0.15048146  0.30871458  1
  O  O83  1  0.99473820  0.18425406  0.30681998  1
  O  O84  1  0.10011952  0.16044709  0.81053410  1
  O  O85  1  0.60077251  0.16519292  0.81264063  1
  O  O86  1  0.48331176  0.79887913  0.81312414  1
  O  O87  1  0.99025982  0.80262396  0.80663058  1
  O  O88  1  0.42201092  0.02878761  0.81500270  1
  O  O89  1  0.92316103  0.01622953  0.81334233  1
  O  O90  1  0.39607982  0.94954353  0.69167992  1
  O  O91  1  0.89561265  0.95435372  0.68970800  1
  O  O92  1  0.07759844  0.20591299  0.69031241  1
  O  O93  1  0.58067244  0.21711946  0.69237140  1
  O  O94  1  0.01768195  0.83277549  0.69426477  1
  O  O95  1  0.52549780  0.84533735  0.69126969  1
  O  O96  1  0.39409923  0.82176637  0.19460334  1
  O  O97  1  0.90415333  0.84821282  0.18733034  1
  O  O98  1  0.01806743  0.21318623  0.19532310  1
  O  O99  1  0.52047984  0.18953176  0.18978166  1
  O  O100  1  0.08269734  0.94119941  0.19328073  1
  O  O101  1  0.58623013  0.96449740  0.19339265  1
  O  O102  1  0.45218628  0.36430587  0.63657333  1
  O  O103  1  0.95532616  0.36459516  0.63930905  1
  O  O104  1  0.22869964  0.08879186  0.63774547  1
  O  O105  1  0.72741688  0.08722656  0.63817798  1
  O  O106  1  0.31273170  0.53846195  0.63394010  1
  O  O107  1  0.82046141  0.54583117  0.63738339  1
  O  O108  1  0.43036726  0.49320827  0.14430352  1
  O  O109  1  0.95111092  0.53541138  0.13705359  1
  O  O110  1  0.31725261  0.11880397  0.13856846  1
  O  O111  1  0.81284851  0.09292319  0.13381078  1
  O  O112  1  0.25247525  0.37173198  0.14432492  1
  O  O113  1  0.72939181  0.36840228  0.13645717  1
  O  O114  1  0.22295122  0.28677576  0.02556593  1
  O  O115  1  0.73068174  0.30673261  0.02753843  1
  O  O116  1  0.41101030  0.52579298  0.02302491  1
  O  O117  1  0.92192458  0.53636880  0.02754210  1
  O  O118  1  0.35113303  0.15629949  0.02857245  1
  O  O119  1  0.84546623  0.15062994  0.02518338  1
  O  O120  1  0.22763990  0.14838384  0.52796168  1
  O  O121  1  0.72877421  0.15087247  0.52899708  1
  O  O122  1  0.34696420  0.54846424  0.52546298  1
  O  O123  1  0.84817688  0.55000421  0.52791389  1
  O  O124  1  0.42204695  0.30370190  0.52705150  1
  O  O125  1  0.92696251  0.31000115  0.52969736  1
  O  O126  1  0.27072119  0.69295145  0.97366970  1
  O  O127  1  0.76544410  0.69168712  0.97310989  1
  O  O128  1  0.08369131  0.45902416  0.97638035  1
  O  O129  1  0.57966996  0.45823817  0.97283008  1
  O  O130  1  0.15554791  0.82870616  0.97733994  1
  O  O131  1  0.64647473  0.83224420  0.97573660  1
  O  O132  1  0.27130352  0.84487965  0.47250916  1
  O  O133  1  0.77066935  0.83184537  0.47535535  1
  O  O134  1  0.15239050  0.46707400  0.47582566  1
  O  O135  1  0.64529756  0.46427142  0.47584300  1
  O  O136  1  0.08746059  0.70705877  0.47597680  1
  O  O137  1  0.58237840  0.71331298  0.47471257  1
  O  O138  1  0.06090543  0.62217796  0.35585701  1
  O  O139  1  0.56633978  0.62670013  0.35475860  1
  O  O140  1  0.25566150  0.88324819  0.36221754  1
  O  O141  1  0.74423662  0.86539987  0.35591987  1
  O  O142  1  0.19179086  0.51760414  0.35641139  1
  O  O143  1  0.68652716  0.49060476  0.35398102  1
  O  O144  1  0.06602692  0.50351321  0.85546671  1
  O  O145  1  0.56182219  0.48730088  0.86254623  1
  O  O146  1  0.18633452  0.87087210  0.85592529  1
  O  O147  1  0.68492509  0.86879027  0.85644264  1
  O  O148  1  0.25633841  0.63093768  0.86308620  1
  O  O149  1  0.75333357  0.62805802  0.86322202  1
  O  O150  1  0.01494851  0.84310901  0.41335607  1
  O  O151  1  0.50387705  0.83803329  0.40407998  1
  O  O152  1  0.39891697  0.97060842  0.41233175  1
  O  O153  1  0.91093910  0.97952495  0.40652574  1
  O  O154  1  0.07806954  0.18788680  0.40804913  1
  O  O155  1  0.57615943  0.17888386  0.41085468  1
  O  O156  1  0.00810938  0.17979960  0.91379296  1
  O  O157  1  0.51166276  0.19782640  0.91488378  1
  O  O158  1  0.07587503  0.96505520  0.91148701  1
  O  O159  1  0.57331803  0.97469205  0.91198255  1
  O  O160  1  0.39952047  0.82830699  0.91456334  1
  O  O161  1  0.89802466  0.81945200  0.91449628  1
  O  O162  1  0.49175981  0.16773533  0.58270448  1
  O  O163  1  0.99319160  0.16648657  0.58366688  1
  O  O164  1  0.09080863  0.00667578  0.58371036  1
  O  O165  1  0.59162150  0.01425306  0.58315326  1
  O  O166  1  0.41442655  0.81754998  0.58207448  1
  O  O167  1  0.91916563  0.82258559  0.58415591  1
  O  O168  1  0.48730071  0.82448872  0.09394127  1
  O  O169  1  0.98887877  0.81035268  0.08247592  1
  O  O170  1  0.41519358  0.02464919  0.08940959  1
  O  O171  1  0.91295414  0.01572729  0.08148927  1
  O  O172  1  0.08451739  0.15739541  0.09709278  1
  O  O173  1  0.59325267  0.17267546  0.08115285  1
  O  O174  1  0.34460732  0.15412492  0.75058198  1
  O  O175  1  0.85094476  0.16563284  0.75274332  1
  O  O176  1  0.23604598  0.30777764  0.74922918  1
  O  O177  1  0.73912293  0.31137780  0.75107800  1
  O  O178  1  0.42202267  0.51716966  0.75107689  1
  O  O179  1  0.92661373  0.54247028  0.74679206  1
  O  O180  1  0.34817159  0.53479142  0.24596784  1
  O  O181  1  0.84419528  0.53164019  0.24974207  1
  O  O182  1  0.40893970  0.30199024  0.24097093  1
  O  O183  1  0.92997225  0.31985812  0.24891886  1
  O  O184  1  0.24535653  0.18081341  0.24100472  1
  O  O185  1  0.72554128  0.14880688  0.24852925  1
  O  O186  1  0.32019274  0.50138993  0.92315989  1
  O  O187  1  0.81593062  0.49706426  0.92604052  1
  O  O188  1  0.43313076  0.36652067  0.92453529  1
  O  O189  1  0.92457659  0.36924767  0.92383011  1
  O  O190  1  0.25951793  0.15783198  0.92659194  1
  O  O191  1  0.75138043  0.15332038  0.92440945  1
  O  O192  1  0.32035502  0.13775114  0.42537464  1
  O  O193  1  0.81931308  0.14620237  0.42446106  1
  O  O194  1  0.25451593  0.35268953  0.42447734  1
  O  O195  1  0.75243512  0.35664812  0.42603423  1
  O  O196  1  0.42559750  0.48699485  0.42357873  1
  O  O197  1  0.92534935  0.48795301  0.42689437  1
  O  O198  1  0.17969826  0.52052346  0.07646238  1
  O  O199  1  0.67551699  0.50155566  0.06877998  1
  O  O200  1  0.07344936  0.65263863  0.07323747  1
  O  O201  1  0.57344245  0.64009529  0.07700384  1
  O  O202  1  0.25418915  0.86210584  0.07660222  1
  O  O203  1  0.75097091  0.84355662  0.06967656  1
  O  O204  1  0.17573986  0.84516589  0.57232663  1
  O  O205  1  0.67228280  0.84432574  0.57223803  1
  O  O206  1  0.25186504  0.66378827  0.56910458  1
  O  O207  1  0.75275362  0.66003240  0.57319733  1
  O  O208  1  0.07787770  0.49692047  0.57496557  1
  O  O209  1  0.57459390  0.49841934  0.57157051  1
  O  O210  1  0.15728049  0.81653350  0.26109957  1
  O  O211  1  0.64313106  0.82336960  0.25487631  1
  O  O212  1  0.26671299  0.69900144  0.25508867  1
  O  O213  1  0.75667272  0.70839748  0.25516057  1
  O  O214  1  0.08986878  0.47418492  0.25445196  1
  O  O215  1  0.58867435  0.47633278  0.25599022  1
  O  O216  1  0.14299393  0.48341852  0.75905472  1
  O  O217  1  0.64445187  0.48409116  0.76282965  1
  O  O218  1  0.08610763  0.71138011  0.75331789  1
  O  O219  1  0.59454051  0.70958717  0.75656043  1
  O  O220  1  0.25523630  0.80546811  0.75992087  1
  O  O221  1  0.76097364  0.81346263  0.75717634  1
