# generated using pymatgen
data_MgCo2(SiO3)4
_symmetry_space_group_name_H-M   'P 1'
_cell_length_a   5.34616112
_cell_length_b   6.47645661
_cell_length_c   6.61044302
_cell_angle_alpha   83.08733227
_cell_angle_beta   74.50957440
_cell_angle_gamma   75.37836127
_symmetry_Int_Tables_number   1
_chemical_formula_structural   MgCo2(SiO3)4
_chemical_formula_sum   'Mg1 Co2 Si4 O12'
_cell_volume   213.07957854
_cell_formula_units_Z   1
loop_
 _symmetry_equiv_pos_site_id
 _symmetry_equiv_pos_as_xyz
  1  'x, y, z'
loop_
 _atom_site_type_symbol
 _atom_site_label
 _atom_site_symmetry_multiplicity
 _atom_site_fract_x
 _atom_site_fract_y
 _atom_site_fract_z
 _atom_site_occupancy
  Mg  Mg0  1  0.25026800  0.72646500  0.27145300  1
  Co  Co1  1  0.26206200  0.10741200  0.89189000  1
  Co  Co2  1  0.75178100  0.91516400  0.08888800  1
  Si  Si3  1  0.23138700  0.20302500  0.39037700  1
  Si  Si4  1  0.26382100  0.61633900  0.79419100  1
  Si  Si5  1  0.73934400  0.38320800  0.20745100  1
  Si  Si6  1  0.76059800  0.79466000  0.61561000  1
  O  O7  1  0.42664000  0.37742300  0.33915300  1
  O  O8  1  0.06384700  0.65792200  0.63481400  1
  O  O9  1  0.55435700  0.63773100  0.64537800  1
  O  O10  1  0.94516500  0.35092800  0.35769400  1
  O  O11  1  0.21001900  0.09022100  0.62056200  1
  O  O12  1  0.27794100  0.38078100  0.91083600  1
  O  O13  1  0.84580500  0.87537900  0.36953000  1
  O  O14  1  0.67112000  0.63341800  0.12012100  1
  O  O15  1  0.84420900  0.19182900  0.04140000  1
  O  O16  1  0.64244400  0.96067900  0.80584200  1
  O  O17  1  0.35118500  0.02291900  0.20907700  1
  O  O18  1  0.15800600  0.79324800  0.97740000  1
