# generated using pymatgen
data_Na14Ca5Zr3Si6(SO8)6
_symmetry_space_group_name_H-M   'P 1'
_cell_length_a   18.87242983
_cell_length_b   9.43978119
_cell_length_c   22.95633474
_cell_angle_alpha   90.03253523
_cell_angle_beta   89.98573257
_cell_angle_gamma   119.94678668
_symmetry_Int_Tables_number   1
_chemical_formula_structural   Na14Ca5Zr3Si6(SO8)6
_chemical_formula_sum   'Na42 Ca15 Zr9 Si18 S18 O144'
_cell_volume   3543.68802751
_cell_formula_units_Z   3
loop_
 _symmetry_equiv_pos_site_id
 _symmetry_equiv_pos_as_xyz
  1  'x, y, z'
loop_
 _atom_site_type_symbol
 _atom_site_label
 _atom_site_symmetry_multiplicity
 _atom_site_fract_x
 _atom_site_fract_y
 _atom_site_fract_z
 _atom_site_occupancy
  Na  Na0  1  0.19545770  0.35481681  0.24394093  1
  Na  Na1  1  0.69089205  0.35217744  0.24239040  1
  Na  Na2  1  0.99376868  0.64892918  0.25410962  1
  Na  Na3  1  0.49236281  0.63746338  0.23870148  1
  Na  Na4  1  0.31659601  0.63347775  0.74767520  1
  Na  Na5  1  0.81408444  0.62498462  0.73287399  1
  Na  Na6  1  0.18921585  0.03420576  0.74401975  1
  Na  Na7  1  0.69148825  0.03294338  0.74395423  1
  Na  Na8  1  0.15462449  0.31975478  0.57417921  1
  Na  Na9  1  0.67360339  0.35400291  0.57517406  1
  Na  Na10  1  0.00923660  0.70285844  0.57916153  1
  Na  Na11  1  0.51855292  0.70291094  0.58205707  1
  Na  Na12  1  0.31927406  0.97474746  0.59615693  1
  Na  Na13  1  0.81892499  0.95535132  0.59284511  1
  Na  Na14  1  0.15804443  0.98251207  0.07505057  1
  Na  Na15  1  0.64662224  0.96305801  0.06976286  1
  Na  Na16  1  0.81519164  0.65945659  0.09444956  1
  Na  Na17  1  0.01828816  0.33278530  0.07969226  1
  Na  Na18  1  0.52320602  0.35695673  0.08952585  1
  Na  Na19  1  0.49814333  0.68751736  0.92463278  1
  Na  Na20  1  0.99532023  0.68777218  0.91736128  1
  Na  Na21  1  0.84360214  0.03309096  0.90199329  1
  Na  Na22  1  0.16351812  0.27796994  0.90318179  1
  Na  Na23  1  0.66253017  0.27112325  0.91306906  1
  Na  Na24  1  0.49754647  0.30970880  0.41786946  1
  Na  Na25  1  0.99199730  0.30071103  0.42179043  1
  Na  Na26  1  0.16318698  0.05648419  0.41326538  1
  Na  Na27  1  0.66579800  0.05802453  0.41319517  1
  Na  Na28  1  0.34743541  0.65263131  0.40172071  1
  Na  Na29  1  0.84675906  0.65248036  0.41584815  1
  Na  Na30  1  0.00789700  0.00059971  0.50314561  1
  Na  Na31  1  0.52401544  0.02962626  0.49799359  1
  Na  Na32  1  0.01507900  0.01034544  0.99656210  1
  Na  Na33  1  0.50723235  0.99807138  0.00177515  1
  Na  Na34  1  0.32967403  0.28982106  0.82809373  1
  Na  Na35  1  0.82208387  0.30141934  0.82419458  1
  Na  Na36  1  0.31994797  0.32516167  0.32333059  1
  Na  Na37  1  0.81367775  0.32125446  0.32655405  1
  Na  Na38  1  0.19098526  0.67536489  0.16375078  1
  Na  Na39  1  0.66136137  0.66491230  0.16054561  1
  Na  Na40  1  0.16175259  0.67074307  0.66626374  1
  Na  Na41  1  0.67521017  0.67358454  0.66010183  1
  Ca  Ca42  1  0.00140439  0.00025039  0.34686463  1
  Ca  Ca43  1  0.50146386  0.99883655  0.34466716  1
  Ca  Ca44  1  0.00327939  0.01074061  0.84471393  1
  Ca  Ca45  1  0.50018640  0.00888508  0.84975358  1
  Ca  Ca46  1  0.33106581  0.32221769  0.68400468  1
  Ca  Ca47  1  0.83019976  0.32643212  0.68148803  1
  Ca  Ca48  1  0.33085701  0.33558765  0.18232396  1
  Ca  Ca49  1  0.82744576  0.32351702  0.18324769  1
  Ca  Ca50  1  0.81982436  0.31524586  0.98414530  1
  Ca  Ca51  1  0.32155460  0.32441303  0.48348907  1
  Ca  Ca52  1  0.82297943  0.33705687  0.48775792  1
  Ca  Ca53  1  0.17226244  0.67112211  0.01635493  1
  Ca  Ca54  1  0.66473564  0.66709860  0.01594710  1
  Ca  Ca55  1  0.16692939  0.66652581  0.51546278  1
  Ca  Ca56  1  0.67025077  0.66686124  0.51652246  1
  Zr  Zr57  1  0.00006133  0.01070245  0.65395118  1
  Zr  Zr58  1  0.50539058  0.02313077  0.65679770  1
  Zr  Zr59  1  0.00500023  0.99388611  0.15518547  1
  Zr  Zr60  1  0.49997898  0.97458113  0.15008972  1
  Zr  Zr61  1  0.32515430  0.32898692  0.98644420  1
  Zr  Zr62  1  0.17689384  0.67268036  0.31117820  1
  Zr  Zr63  1  0.67540986  0.66900733  0.30968810  1
  Zr  Zr64  1  0.17282628  0.68282220  0.81227798  1
  Zr  Zr65  1  0.66984963  0.67641067  0.81092743  1
  Si  Si66  1  0.15272217  0.99266601  0.25533072  1
  Si  Si67  1  0.65021470  0.99092840  0.25381572  1
  Si  Si68  1  0.35090944  0.70025942  0.25507666  1
  Si  Si69  1  0.85127866  0.69861109  0.25212503  1
  Si  Si70  1  0.15245380  0.31167394  0.75280718  1
  Si  Si71  1  0.65334689  0.30897944  0.75689408  1
  Si  Si72  1  0.34942644  0.99764470  0.75004279  1
  Si  Si73  1  0.84928785  0.00175553  0.75585749  1
  Si  Si74  1  0.17614830  0.02074461  0.58470737  1
  Si  Si75  1  0.67273789  0.02196633  0.58497977  1
  Si  Si76  1  0.83944426  0.65158175  0.58516727  1
  Si  Si77  1  0.48146761  0.63029617  0.08387080  1
  Si  Si78  1  0.17582443  0.32658300  0.08802169  1
  Si  Si79  1  0.67548092  0.32722298  0.08536110  1
  Si  Si80  1  0.16715886  0.96825827  0.92095774  1
  Si  Si81  1  0.66683760  0.96805566  0.91685405  1
  Si  Si82  1  0.16539327  0.36752116  0.41797356  1
  Si  Si83  1  0.66449451  0.36527038  0.41667986  1
  S  S84  1  0.00465373  0.30453570  0.24991033  1
  S  S85  1  0.50283885  0.30390994  0.25147997  1
  S  S86  1  0.00359351  0.70547265  0.75190342  1
  S  S87  1  0.50279685  0.70823467  0.75083342  1
  S  S88  1  0.48230793  0.32666583  0.58185980  1
  S  S89  1  0.98466854  0.33027533  0.58235743  1
  S  S90  1  0.33886735  0.64604180  0.58472389  1
  S  S91  1  0.98410537  0.63887089  0.08390410  1
  S  S92  1  0.33557629  0.04187304  0.08371047  1
  S  S93  1  0.84209899  0.03455915  0.08257413  1
  S  S94  1  0.31417693  0.65573133  0.91529215  1
  S  S95  1  0.81576421  0.66662552  0.91627930  1
  S  S96  1  0.01955318  0.37724292  0.91772452  1
  S  S97  1  0.51546100  0.37471240  0.91738650  1
  S  S98  1  0.31550233  0.96535586  0.41690976  1
  S  S99  1  0.81495028  0.96665416  0.41544325  1
  S  S100  1  0.01792807  0.66118415  0.41478767  1
  S  S101  1  0.51801792  0.66268842  0.41673908  1
  O  O102  1  0.11146721  0.01775000  0.31270774  1
  O  O103  1  0.61291276  0.02050208  0.31248291  1
  O  O104  1  0.39140787  0.77558410  0.31689426  1
  O  O105  1  0.89821065  0.78038020  0.31155686  1
  O  O106  1  0.49496346  0.21695818  0.30637282  1
  O  O107  1  0.99196300  0.21301348  0.30371183  1
  O  O108  1  0.11871921  0.20081364  0.81070350  1
  O  O109  1  0.61467536  0.19649834  0.81318536  1
  O  O110  1  0.49206649  0.77599693  0.80510959  1
  O  O111  1  0.99283970  0.77400298  0.80642483  1
  O  O112  1  0.39693106  0.98621743  0.80476992  1
  O  O113  1  0.89079885  0.00244149  0.81675242  1
  O  O114  1  0.39202375  0.97221900  0.68866511  1
  O  O115  1  0.89983807  0.97585527  0.70044105  1
  O  O116  1  0.09235765  0.20940339  0.69611058  1
  O  O117  1  0.59248717  0.20792928  0.69844679  1
  O  O118  1  0.01580777  0.81823985  0.70154241  1
  O  O119  1  0.51440032  0.82158357  0.70011589  1
  O  O120  1  0.40272841  0.82592973  0.20068620  1
  O  O121  1  0.90083751  0.81897595  0.19380462  1
  O  O122  1  0.01401602  0.21177713  0.19880288  1
  O  O123  1  0.51163244  0.21636055  0.20045470  1
  O  O124  1  0.08785332  0.96964750  0.19808688  1
  O  O125  1  0.58661016  0.96484220  0.19674241  1
  O  O126  1  0.44049116  0.35011749  0.63153424  1
  O  O127  1  0.94195171  0.34950590  0.63177000  1
  O  O128  1  0.23848965  0.10749550  0.63881603  1
  O  O129  1  0.73090568  0.10456226  0.64101147  1
  O  O130  1  0.33100231  0.54796735  0.63674021  1
  O  O131  1  0.83001251  0.54061968  0.64152759  1
  O  O132  1  0.44558850  0.52272040  0.14170634  1
  O  O133  1  0.94457201  0.53808684  0.13549287  1
  O  O134  1  0.32324146  0.11439936  0.13573250  1
  O  O135  1  0.83307917  0.12049503  0.13248275  1
  O  O136  1  0.22176609  0.33732918  0.14727756  1
  O  O137  1  0.73637638  0.36072665  0.14008347  1
  O  O138  1  0.22847138  0.30259663  0.03106552  1
  O  O139  1  0.70908836  0.28396281  0.02557168  1
  O  O140  1  0.42123994  0.52736133  0.02546692  1
  O  O141  1  0.93659842  0.56286520  0.03015458  1
  O  O142  1  0.34187936  0.14639843  0.03108558  1
  O  O143  1  0.85528547  0.13063630  0.02828534  1
  O  O144  1  0.21115130  0.12745638  0.52434680  1
  O  O145  1  0.70661483  0.13382808  0.52573511  1
  O  O146  1  0.34973315  0.56874483  0.53176717  1
  O  O147  1  0.86058037  0.58232619  0.52566458  1
  O  O148  1  0.43576884  0.30208179  0.52718264  1
  O  O149  1  0.93994851  0.30877976  0.52681435  1
  O  O150  1  0.27518247  0.67459036  0.96682703  1
  O  O151  1  0.77774322  0.68079974  0.97023140  1
  O  O152  1  0.06375782  0.44718056  0.97298630  1
  O  O153  1  0.56047770  0.44591800  0.97180003  1
  O  O154  1  0.15484985  0.86615199  0.98008559  1
  O  O155  1  0.66475453  0.87578044  0.97644087  1
  O  O156  1  0.27764771  0.87629784  0.47095757  1
  O  O157  1  0.77718330  0.87871253  0.46977398  1
  O  O158  1  0.16037188  0.44943114  0.47875066  1
  O  O159  1  0.65513915  0.44525940  0.47644836  1
  O  O160  1  0.06503392  0.67950798  0.46826298  1
  O  O161  1  0.56396220  0.67978904  0.47080596  1
  O  O162  1  0.06535389  0.65820167  0.36243457  1
  O  O163  1  0.56469722  0.65584460  0.36495861  1
  O  O164  1  0.26040056  0.87019990  0.36621238  1
  O  O165  1  0.76061700  0.87058546  0.36483567  1
  O  O166  1  0.16854196  0.49179097  0.36262871  1
  O  O167  1  0.66776088  0.48835921  0.36095797  1
  O  O168  1  0.06940924  0.48278875  0.86798718  1
  O  O169  1  0.56197902  0.48254047  0.86700727  1
  O  O170  1  0.17375788  0.86135495  0.86373832  1
  O  O171  1  0.66901331  0.85141257  0.86080815  1
  O  O172  1  0.26374938  0.64025100  0.86191290  1
  O  O173  1  0.76206511  0.65241309  0.86507854  1
  O  O174  1  0.00368954  0.80228316  0.41275945  1
  O  O175  1  0.50420904  0.80465837  0.41406898  1
  O  O176  1  0.39724742  0.98215102  0.41154676  1
  O  O177  1  0.89681369  0.98224961  0.41075050  1
  O  O178  1  0.08170363  0.18713185  0.41598372  1
  O  O179  1  0.58167271  0.18351254  0.41420308  1
  O  O180  1  0.00717200  0.20894749  0.91317400  1
  O  O181  1  0.50457056  0.20969856  0.91199264  1
  O  O182  1  0.08512345  0.98709329  0.91577786  1
  O  O183  1  0.58256166  0.97922453  0.91703762  1
  O  O184  1  0.39932280  0.78725052  0.91065986  1
  O  O185  1  0.89870026  0.81291612  0.91178360  1
  O  O186  1  0.48704811  0.17085011  0.58960713  1
  O  O187  1  0.99134346  0.17707113  0.58901888  1
  O  O188  1  0.08563438  0.01177263  0.59437285  1
  O  O189  1  0.57783892  0.00426405  0.59382685  1
  O  O190  1  0.41361514  0.81332589  0.58922436  1
  O  O191  1  0.92059472  0.84109343  0.59335676  1
  O  O192  1  0.48711575  0.81456286  0.08519941  1
  O  O193  1  0.98776395  0.80396036  0.08903512  1
  O  O194  1  0.41332089  0.03773638  0.08528225  1
  O  O195  1  0.91823912  0.02026764  0.08960679  1
  O  O196  1  0.08430855  0.14735568  0.08629170  1
  O  O197  1  0.58107581  0.16451783  0.09532950  1
  O  O198  1  0.33136361  0.14746360  0.74918493  1
  O  O199  1  0.83161070  0.15041587  0.74933723  1
  O  O200  1  0.24649352  0.35113248  0.74432166  1
  O  O201  1  0.74547370  0.34122336  0.74852985  1
  O  O202  1  0.43184601  0.54768007  0.73999640  1
  O  O203  1  0.93438636  0.54250921  0.74261636  1
  O  O204  1  0.34099701  0.51987471  0.24964032  1
  O  O205  1  0.84457049  0.52065647  0.24656254  1
  O  O206  1  0.43476356  0.33663719  0.24620745  1
  O  O207  1  0.93894756  0.34013531  0.23979031  1
  O  O208  1  0.24165775  0.14850148  0.24681090  1
  O  O209  1  0.73971257  0.14832578  0.24524827  1
  O  O210  1  0.31403073  0.49376651  0.91835661  1
  O  O211  1  0.82372832  0.51731862  0.91613506  1
  O  O212  1  0.43387490  0.36914241  0.91896099  1
  O  O213  1  0.93931156  0.37188615  0.91748500  1
  O  O214  1  0.25103927  0.15649068  0.92199149  1
  O  O215  1  0.75192255  0.14568614  0.90903744  1
  O  O216  1  0.32257406  0.12931264  0.41567332  1
  O  O217  1  0.82299203  0.13140219  0.41452785  1
  O  O218  1  0.25055110  0.35984052  0.41020956  1
  O  O219  1  0.75003493  0.35901203  0.41064528  1
  O  O220  1  0.43743216  0.50685444  0.41770176  1
  O  O221  1  0.93874856  0.50378466  0.41494499  1
  O  O222  1  0.15658887  0.47508394  0.08014253  1
  O  O223  1  0.66756122  0.49288740  0.08232114  1
  O  O224  1  0.06904105  0.66928456  0.08085111  1
  O  O225  1  0.57535653  0.66853402  0.07811525  1
  O  O226  1  0.26355685  0.87624980  0.07708017  1
  O  O227  1  0.77021536  0.86710543  0.07932888  1
  O  O228  1  0.15962787  0.83170561  0.58340749  1
  O  O229  1  0.65611104  0.83425966  0.58140744  1
  O  O230  1  0.26484621  0.66462709  0.58130506  1
  O  O231  1  0.75701534  0.66925032  0.58324054  1
  O  O232  1  0.06931277  0.47243945  0.58078197  1
  O  O233  1  0.56643508  0.46695650  0.57955847  1
  O  O234  1  0.14551794  0.80808955  0.25552846  1
  O  O235  1  0.64647998  0.80971964  0.25579612  1
  O  O236  1  0.25555938  0.67647392  0.25233203  1
  O  O237  1  0.75640276  0.67406334  0.25156155  1
  O  O238  1  0.08467778  0.46512855  0.25188285  1
  O  O239  1  0.58194361  0.46980241  0.25291033  1
  O  O240  1  0.15575833  0.49168267  0.75908261  1
  O  O241  1  0.65589300  0.48755055  0.75823283  1
  O  O242  1  0.08282462  0.70089964  0.75426569  1
  O  O243  1  0.58039771  0.69917729  0.75218770  1
  O  O244  1  0.25486355  0.82304315  0.75179412  1
  O  O245  1  0.75639893  0.82322860  0.75367778  1
