# generated using pymatgen
data_Na30Nb20Zn4Si33(SO48)3
_symmetry_space_group_name_H-M   'P 1'
_cell_length_a   18.12651946
_cell_length_b   9.07430607
_cell_length_c   22.54940378
_cell_angle_alpha   90.10890709
_cell_angle_beta   89.92175563
_cell_angle_gamma   120.06051613
_symmetry_Int_Tables_number   1
_chemical_formula_structural   Na30Nb20Zn4Si33(SO48)3
_chemical_formula_sum   'Na30 Nb20 Zn4 Si33 S3 O144'
_cell_volume   3210.16643905
_cell_formula_units_Z   1
loop_
 _symmetry_equiv_pos_site_id
 _symmetry_equiv_pos_as_xyz
  1  'x, y, z'
loop_
 _atom_site_type_symbol
 _atom_site_label
 _atom_site_symmetry_multiplicity
 _atom_site_fract_x
 _atom_site_fract_y
 _atom_site_fract_z
 _atom_site_occupancy
  Na  Na0  1  0.31275292  0.97955528  0.25564298  1
  Na  Na1  1  0.18504686  0.38973375  0.25719273  1
  Na  Na2  1  0.68020782  0.38399455  0.25328182  1
  Na  Na3  1  0.50710185  0.63620339  0.26016705  1
  Na  Na4  1  0.31051203  0.63871026  0.75801158  1
  Na  Na5  1  0.00571615  0.38994318  0.75620311  1
  Na  Na6  1  0.18458616  0.97755842  0.75554715  1
  Na  Na7  1  0.64965180  0.33254553  0.58404166  1
  Na  Na8  1  0.64232751  0.96719107  0.08737861  1
  Na  Na9  1  0.34028479  0.72090538  0.08972044  1
  Na  Na10  1  0.51889008  0.31605287  0.08980737  1
  Na  Na11  1  0.98861906  0.66080728  0.91393255  1
  Na  Na12  1  0.34530692  0.02856008  0.91549974  1
  Na  Na13  1  0.66570811  0.29719622  0.91568468  1
  Na  Na14  1  0.48756252  0.31646586  0.41457843  1
  Na  Na15  1  0.99015706  0.32133006  0.41445236  1
  Na  Na16  1  0.34157992  0.66050516  0.41509560  1
  Na  Na17  1  0.84289506  0.65766957  0.41418331  1
  Na  Na18  1  0.00991527  0.00647103  0.50121895  1
  Na  Na19  1  0.50120992  0.98862602  0.50248107  1
  Na  Na20  1  0.00590902  0.01610448  0.00218466  1
  Na  Na21  1  0.49846274  0.99125946  0.00657269  1
  Na  Na22  1  0.33931728  0.34527612  0.83693366  1
  Na  Na23  1  0.82899434  0.32177863  0.83118175  1
  Na  Na24  1  0.32907233  0.32566778  0.33650545  1
  Na  Na25  1  0.83352774  0.32335834  0.33303708  1
  Na  Na26  1  0.15735479  0.65603145  0.17251336  1
  Na  Na27  1  0.67551900  0.67041856  0.17482016  1
  Na  Na28  1  0.16719972  0.67755947  0.66673098  1
  Na  Na29  1  0.66805209  0.67616645  0.66683885  1
  Nb  Nb30  1  0.99326919  0.99511692  0.35690115  1
  Nb  Nb31  1  0.49449932  0.99702352  0.35522584  1
  Nb  Nb32  1  0.99378529  0.99309477  0.85800004  1
  Nb  Nb33  1  0.49828461  0.99478177  0.85533470  1
  Nb  Nb34  1  0.99353078  0.98665603  0.64082726  1
  Nb  Nb35  1  0.49846485  0.99441700  0.64535929  1
  Nb  Nb36  1  0.99375502  0.99938020  0.14234891  1
  Nb  Nb37  1  0.34099132  0.33546536  0.68435908  1
  Nb  Nb38  1  0.83057233  0.33192293  0.68947851  1
  Nb  Nb39  1  0.33787480  0.33845217  0.18509402  1
  Nb  Nb40  1  0.84073376  0.34588475  0.18707722  1
  Nb  Nb41  1  0.33062014  0.33860846  0.97912560  1
  Nb  Nb42  1  0.83514532  0.32793359  0.97881764  1
  Nb  Nb43  1  0.33086412  0.32935282  0.48112322  1
  Nb  Nb44  1  0.83360908  0.33001312  0.48048016  1
  Nb  Nb45  1  0.16412572  0.66498507  0.02031007  1
  Nb  Nb46  1  0.66942862  0.66667267  0.02201861  1
  Nb  Nb47  1  0.16487898  0.66564374  0.52175528  1
  Nb  Nb48  1  0.66658732  0.67231225  0.51946596  1
  Nb  Nb49  1  0.66526705  0.66407264  0.80979590  1
  Zn  Zn50  1  0.49448882  0.00479720  0.14606793  1
  Zn  Zn51  1  0.16457168  0.65414150  0.31975340  1
  Zn  Zn52  1  0.66961436  0.66148739  0.31924880  1
  Zn  Zn53  1  0.16806643  0.67843685  0.82164294  1
  Si  Si54  1  0.35246819  0.70727532  0.24618549  1
  Si  Si55  1  0.85285935  0.70818983  0.24956512  1
  Si  Si56  1  0.99917364  0.29129449  0.24966339  1
  Si  Si57  1  0.50146967  0.29521750  0.24665770  1
  Si  Si58  1  0.64344550  0.28707625  0.74996377  1
  Si  Si59  1  0.99973226  0.71008146  0.74934192  1
  Si  Si60  1  0.50002419  0.70959106  0.74971713  1
  Si  Si61  1  0.35458877  0.00241983  0.75034050  1
  Si  Si62  1  0.85490402  0.99896895  0.74958896  1
  Si  Si63  1  0.48150066  0.33232147  0.58054304  1
  Si  Si64  1  0.97889787  0.33609164  0.58566005  1
  Si  Si65  1  0.18806944  0.04118248  0.58545028  1
  Si  Si66  1  0.68916426  0.04057343  0.58466597  1
  Si  Si67  1  0.33169083  0.62251123  0.58400862  1
  Si  Si68  1  0.83171997  0.61928395  0.58248647  1
  Si  Si69  1  0.48109089  0.62786549  0.08231049  1
  Si  Si70  1  0.97971110  0.62627079  0.08105725  1
  Si  Si71  1  0.33066750  0.04080735  0.08090220  1
  Si  Si72  1  0.83149126  0.04465519  0.08485141  1
  Si  Si73  1  0.18727585  0.33289258  0.08464082  1
  Si  Si74  1  0.69023193  0.33541401  0.08389390  1
  Si  Si75  1  0.30908321  0.66398808  0.91360694  1
  Si  Si76  1  0.80922736  0.66329919  0.91574446  1
  Si  Si77  1  0.02413616  0.37813996  0.91302617  1
  Si  Si78  1  0.52103097  0.37992655  0.91658248  1
  Si  Si79  1  0.16751498  0.96119901  0.91438679  1
  Si  Si80  1  0.66631773  0.95129508  0.91668168  1
  Si  Si81  1  0.30577046  0.95493552  0.41306005  1
  Si  Si82  1  0.80692137  0.95580324  0.41388837  1
  Si  Si83  1  0.16696868  0.37413467  0.41505443  1
  Si  Si84  1  0.66750412  0.37291826  0.41514091  1
  Si  Si85  1  0.02431957  0.66829841  0.41488837  1
  Si  Si86  1  0.52169443  0.66840496  0.41363344  1
  S  S87  1  0.14205298  -0.00032603  0.24861192  1
  S  S88  1  0.64649606  0.00575541  0.24872377  1
  S  S89  1  0.14259906  0.28204417  0.74893255  1
  O  O90  1  0.10138374  0.02372169  0.30249527  1
  O  O91  1  0.60045771  0.02656888  0.30120631  1
  O  O92  1  0.41565439  0.80123518  0.30651310  1
  O  O93  1  0.91221514  0.80139267  0.30954074  1
  O  O94  1  0.48718161  0.16755052  0.30593673  1
  O  O95  1  0.98856922  0.16993555  0.30894536  1
  O  O96  1  0.10308331  0.17900383  0.80312033  1
  O  O97  1  0.59717431  0.17024084  0.80916368  1
  O  O98  1  0.48401146  0.80442021  0.80679698  1
  O  O99  1  0.99035272  0.80906705  0.80901656  1
  O  O100  1  0.41281953  0.02743661  0.81010092  1
  O  O101  1  0.91834590  0.02818556  0.80712201  1
  O  O102  1  0.40981432  0.98835719  0.69417570  1
  O  O103  1  0.90505222  0.97956340  0.69222533  1
  O  O104  1  0.09178690  0.19872708  0.69597567  1
  O  O105  1  0.58777108  0.19688920  0.69003121  1
  O  O106  1  0.01008174  0.83755619  0.69375838  1
  O  O107  1  0.51166249  0.82818377  0.69177615  1
  O  O108  1  0.39826743  0.81380175  0.18784477  1
  O  O109  1  0.91065149  0.82783651  0.19352405  1
  O  O110  1  0.00712004  0.18031825  0.19362584  1
  O  O111  1  0.51807483  0.21536441  0.18825540  1
  O  O112  1  0.09315809  0.98830322  0.19471118  1
  O  O113  1  0.59848674  0.98424044  0.19326029  1
  O  O114  1  0.43228052  0.35798740  0.63938224  1
  O  O115  1  0.93156465  0.35988679  0.64404714  1
  O  O116  1  0.24784949  0.13825389  0.64455225  1
  O  O117  1  0.74874826  0.13638569  0.64274525  1
  O  O118  1  0.32154438  0.50353453  0.64306283  1
  O  O119  1  0.81810923  0.49574784  0.63943021  1
  O  O120  1  0.43451292  0.50307466  0.14242624  1
  O  O121  1  0.93173800  0.50233517  0.13932455  1
  O  O122  1  0.32003516  0.13796189  0.14136033  1
  O  O123  1  0.81669986  0.13932128  0.14116593  1
  O  O124  1  0.24912261  0.36297271  0.14348797  1
  O  O125  1  0.74915426  0.36018211  0.14299274  1
  O  O126  1  0.23570236  0.30935745  0.02743278  1
  O  O127  1  0.74112784  0.31720430  0.02551434  1
  O  O128  1  0.41685467  0.52158090  0.02819579  1
  O  O129  1  0.92114869  0.53602008  0.02211404  1
  O  O130  1  0.34176867  0.16311204  0.02443675  1
  O  O131  1  0.84541027  0.16332177  0.02620309  1
  O  O132  1  0.23809550  0.16522779  0.52892665  1
  O  O133  1  0.73745674  0.16743240  0.52836212  1
  O  O134  1  0.34577269  0.52999978  0.52599227  1
  O  O135  1  0.84617124  0.53383299  0.52338922  1
  O  O136  1  0.42307079  0.31048566  0.52313532  1
  O  O137  1  0.92036997  0.30718044  0.52638395  1
  O  O138  1  0.26418857  0.69895674  0.97196536  1
  O  O139  1  0.76474070  0.69237912  0.97463330  1
  O  O140  1  0.08405674  0.47327313  0.97133592  1
  O  O141  1  0.58278107  0.47022165  0.97518062  1
  O  O142  1  0.14921185  0.82766656  0.96994482  1
  O  O143  1  0.65418246  0.83876316  0.97696087  1
  O  O144  1  0.26264462  0.82707736  0.47002339  1
  O  O145  1  0.76500539  0.83075631  0.47280333  1
  O  O146  1  0.14888362  0.46938467  0.47109214  1
  O  O147  1  0.64987980  0.46392827  0.47361194  1
  O  O148  1  0.08328408  0.69637894  0.47443941  1
  O  O149  1  0.58376652  0.69197262  0.47151872  1
  O  O150  1  0.05806743  0.61132778  0.35907813  1
  O  O151  1  0.55441115  0.61958109  0.35513964  1
  O  O152  1  0.25825698  0.88737341  0.35123551  1
  O  O153  1  0.75319737  0.87700165  0.35574341  1
  O  O154  1  0.19413000  0.48453771  0.35534270  1
  O  O155  1  0.69206437  0.48527068  0.35602701  1
  O  O156  1  0.05576552  0.49104923  0.85365118  1
  O  O157  1  0.57011520  0.49942847  0.85942825  1
  O  O158  1  0.19174341  0.90064277  0.85404145  1
  O  O159  1  0.67952092  0.85684197  0.85953686  1
  O  O160  1  0.25811725  0.63221945  0.85242415  1
  O  O161  1  0.74823046  0.63256751  0.85920139  1
  O  O162  1  0.01004619  0.83506317  0.40961768  1
  O  O163  1  0.50926989  0.83676712  0.41045937  1
  O  O164  1  0.40454034  0.97316181  0.40964973  1
  O  O165  1  0.90475430  0.97286644  0.41171216  1
  O  O166  1  0.07948670  0.18564415  0.40996039  1
  O  O167  1  0.57883681  0.18580289  0.40923096  1
  O  O168  1  0.01353963  0.18694460  0.90911254  1
  O  O169  1  0.51479684  0.19205934  0.91157923  1
  O  O170  1  0.07947018  0.97278952  0.91031312  1
  O  O171  1  0.58324332  0.97878569  0.91040209  1
  O  O172  1  0.40440276  0.84295939  0.91130890  1
  O  O173  1  0.90577564  0.83144808  0.91119447  1
  O  O174  1  0.49254370  0.16557500  0.58712497  1
  O  O175  1  0.98988069  0.16726101  0.59268921  1
  O  O176  1  0.09490077  0.02751912  0.59151466  1
  O  O177  1  0.59670476  0.03153543  0.58861272  1
  O  O178  1  0.41772352  0.81081591  0.59028032  1
  O  O179  1  0.91672084  0.80970582  0.58788728  1
  O  O180  1  0.49176902  0.81259584  0.08555862  1
  O  O181  1  0.98986326  0.81370254  0.08997850  1
  O  O182  1  0.41516902  0.02488811  0.08163778  1
  O  O183  1  0.91555532  0.02262742  0.08903349  1
  O  O184  1  0.09401323  0.16330546  0.09163175  1
  O  O185  1  0.59774992  0.16675120  0.08335473  1
  O  O186  1  0.34381819  0.17409882  0.74504761  1
  O  O187  1  0.85179894  0.17631074  0.74598194  1
  O  O188  1  0.23007340  0.29826402  0.74608496  1
  O  O189  1  0.73817281  0.30474548  0.74504464  1
  O  O190  1  0.40960624  0.52462034  0.74503113  1
  O  O191  1  0.91285747  0.52206458  0.74526940  1
  O  O192  1  0.34610384  0.51403411  0.24612067  1
  O  O193  1  0.84563463  0.51700600  0.24522891  1
  O  O194  1  0.40727281  0.29370824  0.24614229  1
  O  O195  1  0.90991867  0.29748944  0.24386470  1
  O  O196  1  0.22876712  0.16446610  0.24627231  1
  O  O197  1  0.73070113  0.16825939  0.24814333  1
  O  O198  1  0.32528726  0.50396068  0.92513420  1
  O  O199  1  0.82110053  0.49596243  0.92053744  1
  O  O200  1  0.42447933  0.34743221  0.92172922  1
  O  O201  1  0.92856344  0.35668049  0.92519175  1
  O  O202  1  0.25029585  0.14952533  0.92618741  1
  O  O203  1  0.74928445  0.14664885  0.92230375  1
  O  O204  1  0.32938105  0.15370257  0.42432135  1
  O  O205  1  0.83057555  0.15377116  0.42441633  1
  O  O206  1  0.25005023  0.34941291  0.42754019  1
  O  O207  1  0.75056173  0.34923583  0.42717379  1
  O  O208  1  0.42454058  0.50402057  0.42569754  1
  O  O209  1  0.92600688  0.50366132  0.42624073  1
  O  O210  1  0.18436486  0.50912024  0.07734065  1
  O  O211  1  0.68092544  0.50693259  0.07763332  1
  O  O212  1  0.07198939  0.63796622  0.07637932  1
  O  O213  1  0.57242375  0.63180174  0.07860761  1
  O  O214  1  0.24540067  0.85156612  0.07673120  1
  O  O215  1  0.74453707  0.85991021  0.07861499  1
  O  O216  1  0.18062051  0.85654205  0.57787084  1
  O  O217  1  0.67939564  0.85315488  0.57671028  1
  O  O218  1  0.24721710  0.63958832  0.57717881  1
  O  O219  1  0.74527191  0.63160185  0.57729476  1
  O  O220  1  0.07285977  0.50536677  0.57787302  1
  O  O221  1  0.57578277  0.50115706  0.57820922  1
  O  O222  1  0.15541999  0.85524132  0.25096441  1
  O  O223  1  0.65608924  0.85506800  0.25565327  1
  O  O224  1  0.25947687  0.68724388  0.25206328  1
  O  O225  1  0.75952154  0.68278125  0.24873172  1
  O  O226  1  0.08445346  0.47140918  0.25015109  1
  O  O227  1  0.57949416  0.48748900  0.25348651  1
  O  O228  1  0.15306911  0.45369433  0.75203515  1
  O  O229  1  0.65326861  0.47618829  0.75632987  1
  O  O230  1  0.08340825  0.69048587  0.74937211  1
  O  O231  1  0.58277655  0.68681967  0.75541314  1
  O  O232  1  0.26288666  0.83132845  0.74854296  1
  O  O233  1  0.76172413  0.82958805  0.75620958  1
