# generated using pymatgen
data_Na3ZrTiSi2PO12
_symmetry_space_group_name_H-M   'P 1'
_cell_length_a   9.05767332
_cell_length_b   9.06996164
_cell_length_c   22.28122718
_cell_angle_alpha   89.68353548
_cell_angle_beta   90.39946499
_cell_angle_gamma   119.85115056
_symmetry_Int_Tables_number   1
_chemical_formula_structural   Na3ZrTiSi2PO12
_chemical_formula_sum   'Na18 Zr6 Ti6 Si12 P6 O72'
_cell_volume   1587.55769736
_cell_formula_units_Z   6
loop_
 _symmetry_equiv_pos_site_id
 _symmetry_equiv_pos_as_xyz
  1  'x, y, z'
loop_
 _atom_site_type_symbol
 _atom_site_label
 _atom_site_symmetry_multiplicity
 _atom_site_fract_x
 _atom_site_fract_y
 _atom_site_fract_z
 _atom_site_occupancy
  Na  Na0  1  0.99762710  0.98598222  0.50017904  1
  Na  Na1  1  0.00365629  0.99804026  0.99760440  1
  Na  Na2  1  0.66667266  0.32307951  0.83946108  1
  Na  Na3  1  0.67002504  0.33096567  0.32717725  1
  Na  Na4  1  0.33567911  0.65962999  0.16666746  1
  Na  Na5  1  0.34930976  0.66762093  0.67337657  1
  Na  Na6  1  0.64084087  0.00302817  0.24616725  1
  Na  Na7  1  0.99812582  0.63832930  0.25347135  1
  Na  Na8  1  0.00480888  0.36931414  0.75546377  1
  Na  Na9  1  0.37073425  0.99882708  0.75860176  1
  Na  Na10  1  0.30637339  0.33439027  0.58567578  1
  Na  Na11  1  0.66151541  0.96441600  0.58792334  1
  Na  Na12  1  0.66376700  0.70860595  0.07846182  1
  Na  Na13  1  0.04091557  0.33710967  0.08405015  1
  Na  Na14  1  0.95809384  0.66531884  0.91478251  1
  Na  Na15  1  0.33408010  0.29546019  0.92079433  1
  Na  Na16  1  0.32964106  0.02869203  0.41563190  1
  Na  Na17  1  0.70395992  0.67141527  0.41704329  1
  Zr  Zr18  1  0.99459892  0.00205877  0.34956860  1
  Zr  Zr19  1  0.99521911  0.99091674  0.64955083  1
  Zr  Zr20  1  0.00712822  0.00509877  0.14406509  1
  Zr  Zr21  1  0.66288654  0.33676648  0.69190252  1
  Zr  Zr22  1  0.67551272  0.33741954  0.47682327  1
  Zr  Zr23  1  0.32925700  0.67112420  0.52159706  1
  Ti  Ti24  1  0.00283214  0.01230224  0.85696749  1
  Ti  Ti25  1  0.67032717  0.34712577  0.18295344  1
  Ti  Ti26  1  0.66174016  0.32350292  0.97966320  1
  Ti  Ti27  1  0.31944702  0.66200163  0.02053057  1
  Ti  Ti28  1  0.32820923  0.66027146  0.31133718  1
  Ti  Ti29  1  0.34188927  0.67247670  0.81802009  1
  Si  Si30  1  0.69595085  0.69964939  0.24642051  1
  Si  Si31  1  0.00167300  0.30395294  0.24303801  1
  Si  Si32  1  0.29119204  0.29828523  0.75489361  1
  Si  Si33  1  0.70401316  0.99029283  0.75285271  1
  Si  Si34  1  0.37060910  0.04025916  0.58406306  1
  Si  Si35  1  0.67150931  0.62983333  0.57980931  1
  Si  Si36  1  0.95480360  0.62139052  0.07917651  1
  Si  Si37  1  0.37985927  0.33528371  0.07781860  1
  Si  Si38  1  0.04000607  0.37650115  0.91730602  1
  Si  Si39  1  0.33534033  0.95731442  0.91696819  1
  Si  Si40  1  0.62240299  0.95746342  0.41373185  1
  Si  Si41  1  0.03948651  0.66458976  0.41018531  1
  P  P42  1  0.30395614  0.00501317  0.25094521  1
  P  P43  1  0.00523729  0.70942932  0.75941693  1
  P  P44  1  0.96018019  0.33416775  0.58881586  1
  P  P45  1  0.65701108  0.04155154  0.08368817  1
  P  P46  1  0.62554618  0.67152705  0.92067370  1
  P  P47  1  0.32895037  0.37602651  0.41607776  1
  O  O48  1  0.22600828  0.02248861  0.31032558  1
  O  O49  1  0.82338009  0.78440667  0.30499467  1
  O  O50  1  0.97151090  0.16892883  0.29724505  1
  O  O51  1  0.19129363  0.17012331  0.81271363  1
  O  O52  1  0.99343849  0.79493500  0.81705563  1
  O  O53  1  0.83675136  0.00417317  0.80712316  1
  O  O54  1  0.78263976  0.97446943  0.68890921  1
  O  O55  1  0.17676677  0.20878671  0.69447745  1
  O  O56  1  0.01831258  0.82141779  0.70432893  1
  O  O57  1  0.78949976  0.82523778  0.18850063  1
  O  O58  1  0.02540078  0.22081799  0.18122062  1
  O  O59  1  0.17829267  0.98137735  0.19864374  1
  O  O60  1  0.88023782  0.34506532  0.64821953  1
  O  O61  1  0.48697059  0.13333570  0.64409794  1
  O  O62  1  0.66405303  0.51053145  0.63642970  1
  O  O63  1  0.86421146  0.50291304  0.13931074  1
  O  O64  1  0.64909347  0.12658817  0.14223559  1
  O  O65  1  0.50502091  0.34667592  0.13392883  1
  O  O66  1  0.47278838  0.32166677  0.01664020  1
  O  O67  1  0.83579971  0.51986117  0.02098713  1
  O  O68  1  0.67246197  0.15902536  0.02960012  1
  O  O69  1  0.46721661  0.15157300  0.52374002  1
  O  O70  1  0.68233617  0.54432794  0.51661269  1
  O  O71  1  0.84790328  0.32543821  0.53451561  1
  O  O72  1  0.54201911  0.68399153  0.97923272  1
  O  O73  1  0.16496027  0.46528158  0.97696446  1
  O  O74  1  0.31499085  0.82514379  0.97239780  1
  O  O75  1  0.53699821  0.84976432  0.47585245  1
  O  O76  1  0.31781264  0.45249194  0.47647015  1
  O  O77  1  0.15149585  0.67337437  0.46905207  1
  O  O78  1  0.14056416  0.66044601  0.34968860  1
  O  O79  1  0.50296522  0.84804548  0.35614955  1
  O  O80  1  0.33451639  0.49066025  0.36321379  1
  O  O81  1  0.13981028  0.50046079  0.85984714  1
  O  O82  1  0.35202341  0.86616638  0.85584178  1
  O  O83  1  0.50580354  0.65698928  0.86721710  1
  O  O84  1  0.02744999  0.83951337  0.41267698  1
  O  O85  1  0.81028859  0.97283840  0.41092441  1
  O  O86  1  0.17722724  0.19291966  0.41162546  1
  O  O87  1  0.02557536  0.18750042  0.91203947  1
  O  O88  1  0.16132837  0.97351926  0.91648347  1
  O  O89  1  0.80776717  0.82628917  0.91505668  1
  O  O90  1  0.96805198  0.16722132  0.58565130  1
  O  O91  1  0.18798345  0.03467890  0.58639524  1
  O  O92  1  0.83252813  0.82273364  0.58372627  1
  O  O93  1  0.96461963  0.80572638  0.08278060  1
  O  O94  1  0.82358968  0.02844945  0.08102188  1
  O  O95  1  0.18744784  0.17081658  0.08089654  1
  O  O96  1  0.69668722  0.16834162  0.75498032  1
  O  O97  1  0.47579238  0.30566375  0.75317559  1
  O  O98  1  0.84951464  0.52738607  0.75475450  1
  O  O99  1  0.68375501  0.51345917  0.23883894  1
  O  O100  1  0.82682961  0.31747578  0.24166896  1
  O  O101  1  0.48254889  0.15990339  0.24289634  1
  O  O102  1  0.63942970  0.50625477  0.91760681  1
  O  O103  1  0.85268343  0.36069990  0.92222823  1
  O  O104  1  0.50112537  0.14979119  0.92205686  1
  O  O105  1  0.62997210  0.14144147  0.41375842  1
  O  O106  1  0.49603667  0.36636281  0.41289274  1
  O  O107  1  0.84706592  0.50053528  0.41114047  1
  O  O108  1  0.36623588  0.51058039  0.07919699  1
  O  O109  1  0.14408513  0.63568229  0.07612095  1
  O  O110  1  0.50339942  0.85965098  0.07872969  1
  O  O111  1  0.35687019  0.85330149  0.58369565  1
  O  O112  1  0.49308022  0.63556683  0.58372787  1
  O  O113  1  0.14268024  0.48623948  0.58491628  1
  O  O114  1  0.31819276  0.84069738  0.25010007  1
  O  O115  1  0.51098580  0.68655166  0.25412027  1
  O  O116  1  0.16623860  0.49426622  0.25222064  1
  O  O117  1  0.30530928  0.48410227  0.76104439  1
  O  O118  1  0.16901306  0.69430689  0.75644307  1
  O  O119  1  0.51066161  0.82873004  0.75922998  1
