# generated using pymatgen
data_MgCr2O4
_symmetry_space_group_name_H-M   'P 1'
_cell_length_a   2.96330700
_cell_length_b   5.01540697
_cell_length_c   4.97853324
_cell_angle_alpha   92.76829927
_cell_angle_beta   90.00030910
_cell_angle_gamma   90.00075166
_symmetry_Int_Tables_number   1
_chemical_formula_structural   MgCr2O4
_chemical_formula_sum   'Mg1 Cr2 O4'
_cell_volume   73.90556219
_cell_formula_units_Z   1
loop_
 _symmetry_equiv_pos_site_id
 _symmetry_equiv_pos_as_xyz
  1  'x, y, z'
loop_
 _atom_site_type_symbol
 _atom_site_label
 _atom_site_symmetry_multiplicity
 _atom_site_fract_x
 _atom_site_fract_y
 _atom_site_fract_z
 _atom_site_occupancy
  Mg  Mg0  1  0.97531500  0.50006400  0.00003200  1
  Cr  Cr1  1  0.47604200  0.49991600  0.49988600  1
  Cr  Cr2  1  0.97652300  0.00012300  0.00004600  1
  O  O3  1  0.47631000  0.76077100  0.15481000  1
  O  O4  1  0.47631200  0.23925900  0.84526600  1
  O  O5  1  0.97641700  0.71053700  0.68208500  1
  O  O6  1  0.97641300  0.28932900  0.31787500  1
