# generated using pymatgen
data_Na6Y6Ta2Si5S7O48
_symmetry_space_group_name_H-M   'P 1'
_cell_length_a   18.34359394
_cell_length_b   9.20800989
_cell_length_c   23.90314296
_cell_angle_alpha   90.07806259
_cell_angle_beta   90.10330924
_cell_angle_gamma   120.09043125
_symmetry_Int_Tables_number   1
_chemical_formula_structural   Na6Y6Ta2Si5S7O48
_chemical_formula_sum   'Na18 Y18 Ta6 Si15 S21 O144'
_cell_volume   3493.31041883
_cell_formula_units_Z   3
loop_
 _symmetry_equiv_pos_site_id
 _symmetry_equiv_pos_as_xyz
  1  'x, y, z'
loop_
 _atom_site_type_symbol
 _atom_site_label
 _atom_site_symmetry_multiplicity
 _atom_site_fract_x
 _atom_site_fract_y
 _atom_site_fract_z
 _atom_site_occupancy
  Na  Na0  1  0.99279011  0.68161256  0.91008673  1
  Na  Na1  1  0.34810439  0.02764612  0.91415761  1
  Na  Na2  1  0.17311278  0.30613681  0.91270385  1
  Na  Na3  1  0.49303440  0.30664864  0.42181375  1
  Na  Na4  1  0.67157332  0.03675810  0.41658390  1
  Na  Na5  1  0.84575115  0.66871737  0.41798241  1
  Na  Na6  1  0.99684833  0.99731428  0.49418051  1
  Na  Na7  1  0.49924824  0.00133889  0.50182770  1
  Na  Na8  1  0.00035789  0.00345172  0.99654785  1
  Na  Na9  1  0.49689152  0.99716196  0.99057377  1
  Na  Na10  1  0.33943221  0.34743269  0.84049223  1
  Na  Na11  1  0.82611463  0.32319830  0.81829362  1
  Na  Na12  1  0.32828578  0.33431894  0.32315113  1
  Na  Na13  1  0.83658780  0.32731422  0.34655496  1
  Na  Na14  1  0.17215212  0.67154581  0.17069009  1
  Na  Na15  1  0.66490595  0.66566103  0.16798990  1
  Na  Na16  1  0.16865910  0.66652663  0.66703935  1
  Na  Na17  1  0.65788523  0.65201826  0.66082699  1
  Y  Y18  1  0.00344870  0.00372221  0.35508184  1
  Y  Y19  1  0.49719276  0.00362057  0.34785685  1
  Y  Y20  1  0.99703365  0.99156667  0.84681368  1
  Y  Y21  1  0.50303663  0.00304483  0.85280723  1
  Y  Y22  1  0.33723289  0.34282260  0.68139882  1
  Y  Y23  1  0.83299284  0.33310743  0.68871308  1
  Y  Y24  1  0.33391952  0.33305032  0.18956588  1
  Y  Y25  1  0.83190827  0.32382701  0.18348416  1
  Y  Y26  1  0.34567968  0.35042693  0.97735916  1
  Y  Y27  1  0.82771655  0.30564412  0.98570641  1
  Y  Y28  1  0.33528866  0.34995348  0.49113271  1
  Y  Y29  1  0.84360569  0.33727289  0.47907822  1
  Y  Y30  1  0.17049475  0.67740949  0.01644110  1
  Y  Y31  1  0.66669549  0.66637683  0.02007332  1
  Y  Y32  1  0.16665379  0.66690414  0.52150791  1
  Y  Y33  1  0.66641646  0.65709447  0.51796476  1
  Y  Y34  1  0.66808629  0.65457636  0.31406390  1
  Y  Y35  1  0.16967685  0.68299485  0.81217946  1
  Ta  Ta36  1  0.99299282  0.98665690  0.65579902  1
  Ta  Ta37  1  0.50170122  0.02001235  0.64393797  1
  Ta  Ta38  1  0.00260868  0.99938004  0.14934549  1
  Ta  Ta39  1  0.49205235  0.99721369  0.15562730  1
  Ta  Ta40  1  0.16612873  0.67807195  0.31188660  1
  Ta  Ta41  1  0.66203361  0.64912752  0.80773207  1
  Si  Si42  1  0.14345162  0.99371385  0.25049639  1
  Si  Si43  1  0.34797589  0.70299776  0.25324346  1
  Si  Si44  1  0.50466348  0.30599469  0.25074461  1
  Si  Si45  1  0.64299355  0.28719113  0.75008066  1
  Si  Si46  1  0.00371613  0.70197819  0.75091609  1
  Si  Si47  1  0.84823494  0.99275872  0.75312913  1
  Si  Si48  1  0.48464772  0.33997611  0.58271566  1
  Si  Si49  1  0.33501177  0.63996408  0.58807155  1
  Si  Si50  1  0.83564901  0.03009556  0.08683218  1
  Si  Si51  1  0.31298712  0.66696202  0.91551103  1
  Si  Si52  1  0.52469006  0.37843887  0.91526913  1
  Si  Si53  1  0.16415717  0.96461073  0.91914094  1
  Si  Si54  1  0.81179067  0.95715382  0.41591787  1
  Si  Si55  1  0.66509124  0.36348279  0.41757264  1
  Si  Si56  1  0.02339848  0.66868987  0.41590888  1
  S  S57  1  0.64320621  0.99864848  0.24673176  1
  S  S58  1  0.85771518  0.71604364  0.24611946  1
  S  S59  1  0.00445527  0.29403709  0.24907493  1
  S  S60  1  0.14420945  0.28806492  0.74724391  1
  S  S61  1  0.50348300  0.70894164  0.75139496  1
  S  S62  1  0.35737000  0.00018159  0.74641291  1
  S  S63  1  0.98228785  0.31976621  0.58711645  1
  S  S64  1  0.17715965  0.03610727  0.58662313  1
  S  S65  1  0.68062001  0.03715576  0.58466903  1
  S  S66  1  0.84021064  0.64399050  0.58557812  1
  S  S67  1  0.48252368  0.64446538  0.08706476  1
  S  S68  1  0.98137425  0.63913742  0.08577189  1
  S  S69  1  0.33881495  0.03474647  0.08590583  1
  S  S70  1  0.17948129  0.32489752  0.08557110  1
  S  S71  1  0.67859306  0.32053233  0.08624080  1
  S  S72  1  0.80923480  0.66181676  0.91429258  1
  S  S73  1  0.01814590  0.37440637  0.91748952  1
  S  S74  1  0.66899444  0.95200341  0.91355957  1
  S  S75  1  0.30805315  0.95583376  0.41330784  1
  S  S76  1  0.17109716  0.38912818  0.41291737  1
  S  S77  1  0.51726044  0.66243220  0.41617968  1
  O  O78  1  0.10061263  0.02029342  0.30356574  1
  O  O79  1  0.60722696  0.01609857  0.29932432  1
  O  O80  1  0.40593584  0.78720285  0.30617953  1
  O  O81  1  0.90407194  0.78887811  0.29805039  1
  O  O82  1  0.49575513  0.20433094  0.30773502  1
  O  O83  1  0.98906541  0.19531269  0.29911406  1
  O  O84  1  0.10691465  0.19864159  0.80027281  1
  O  O85  1  0.60316214  0.18406535  0.80532255  1
  O  O86  1  0.49204801  0.78289606  0.80179625  1
  O  O87  1  0.99496911  0.78352860  0.80917752  1
  O  O88  1  0.40313984  0.01680279  0.79883795  1
  O  O89  1  0.90560498  0.02495359  0.80675459  1
  O  O90  1  0.40632531  0.98839318  0.69721032  1
  O  O91  1  0.90234856  0.97068232  0.69656424  1
  O  O92  1  0.08631590  0.18632564  0.69845632  1
  O  O93  1  0.58139662  0.18856594  0.69490612  1
  O  O94  1  0.00710073  0.83490596  0.69713418  1
  O  O95  1  0.51724438  0.81242836  0.70104620  1
  O  O96  1  0.40202857  0.83313155  0.19603853  1
  O  O97  1  0.90742664  0.82964690  0.19666374  1
  O  O98  1  0.01502012  0.20482129  0.19867094  1
  O  O99  1  0.50727260  0.17910657  0.19601761  1
  O  O100  1  0.08089104  0.96963194  0.19404801  1
  O  O101  1  0.58636755  0.98574791  0.19759630  1
  O  O102  1  0.43279212  0.34525594  0.63551710  1
  O  O103  1  0.94067075  0.34570645  0.63493494  1
  O  O104  1  0.23063142  0.11606601  0.63559646  1
  O  O105  1  0.73469358  0.12314135  0.63273408  1
  O  O106  1  0.31857815  0.51845840  0.64042058  1
  O  O107  1  0.83077042  0.53611892  0.63288584  1
  O  O108  1  0.44090802  0.53588004  0.13489713  1
  O  O109  1  0.93660458  0.53403345  0.13384077  1
  O  O110  1  0.32924749  0.12291648  0.13316150  1
  O  O111  1  0.82496999  0.12818152  0.13937837  1
  O  O112  1  0.23391874  0.34972642  0.13331682  1
  O  O113  1  0.73349670  0.34806643  0.13506769  1
  O  O114  1  0.21013613  0.29114520  0.03333659  1
  O  O115  1  0.71805145  0.29673826  0.03508791  1
  O  O116  1  0.43218447  0.57511885  0.03550921  1
  O  O117  1  0.93245002  0.56985173  0.03331166  1
  O  O118  1  0.35258074  0.12624580  0.03298018  1
  O  O119  1  0.85519962  0.14679341  0.03060836  1
  O  O120  1  0.21466711  0.13721943  0.53525167  1
  O  O121  1  0.71344312  0.13485947  0.53268060  1
  O  O122  1  0.35512861  0.56677117  0.53114857  1
  O  O123  1  0.85487208  0.57942939  0.53275654  1
  O  O124  1  0.43154308  0.30192924  0.52374381  1
  O  O125  1  0.93225297  0.28899819  0.53545583  1
  O  O126  1  0.26961065  0.69522041  0.97151006  1
  O  O127  1  0.77159141  0.68244284  0.96527811  1
  O  O128  1  0.06936286  0.45148238  0.96837056  1
  O  O129  1  0.57673975  0.46760287  0.97113296  1
  O  O130  1  0.14148649  0.83772962  0.97237198  1
  O  O131  1  0.66284949  0.86144392  0.96558880  1
  O  O132  1  0.26930242  0.85899957  0.46367826  1
  O  O133  1  0.76868078  0.84210125  0.47089044  1
  O  O134  1  0.16363209  0.46784688  0.46448150  1
  O  O135  1  0.64234946  0.44631900  0.46971100  1
  O  O136  1  0.07729487  0.68555913  0.47060853  1
  O  O137  1  0.56858597  0.68765431  0.46674843  1
  O  O138  1  0.07885850  0.65330971  0.35958537  1
  O  O139  1  0.55712437  0.63890877  0.36586613  1
  O  O140  1  0.25632699  0.86057130  0.36153288  1
  O  O141  1  0.75339720  0.87611932  0.35983468  1
  O  O142  1  0.17816331  0.49414738  0.36213128  1
  O  O143  1  0.68145759  0.47811695  0.36175808  1
  O  O144  1  0.05708788  0.47662485  0.86733163  1
  O  O145  1  0.57979552  0.50438973  0.86002166  1
  O  O146  1  0.17888256  0.87800527  0.86409319  1
  O  O147  1  0.67798206  0.86589017  0.86333436  1
  O  O148  1  0.25238084  0.62937868  0.86098825  1
  O  O149  1  0.75788864  0.64735893  0.86339619  1
  O  O150  1  0.00841603  0.82759283  0.41084038  1
  O  O151  1  0.50922508  0.81408628  0.41129292  1
  O  O152  1  0.39351175  0.97752899  0.40894192  1
  O  O153  1  0.90403318  0.97148999  0.41141996  1
  O  O154  1  0.09411697  0.22344435  0.40858505  1
  O  O155  1  0.58356229  0.16957488  0.41421872  1
  O  O156  1  0.00852207  0.20549983  0.91293551  1
  O  O157  1  0.50880219  0.18880263  0.91107990  1
  O  O158  1  0.08269319  0.99585307  0.91535672  1
  O  O159  1  0.59340064  0.96801560  0.91031033  1
  O  O160  1  0.40437525  0.83716316  0.91189828  1
  O  O161  1  0.89573217  0.81155550  0.91062905  1
  O  O162  1  0.49292331  0.16263848  0.59380065  1
  O  O163  1  0.99144339  0.16680225  0.59636375  1
  O  O164  1  0.09163971  0.02126537  0.59473693  1
  O  O165  1  0.59398957  0.02009788  0.59461041  1
  O  O166  1  0.42310592  0.82598141  0.60286103  1
  O  O167  1  0.91951063  0.81778084  0.59489123  1
  O  O168  1  0.49185736  0.81624335  0.09647970  1
  O  O169  1  0.98957562  0.81226681  0.09397069  1
  O  O170  1  0.41729278  0.01708198  0.09473663  1
  O  O171  1  0.92339484  0.01666399  0.10150487  1
  O  O172  1  0.09237012  0.16647474  0.09665885  1
  O  O173  1  0.59431473  0.16450061  0.09402608  1
  O  O174  1  0.34686237  0.14735034  0.74118110  1
  O  O175  1  0.83273751  0.14447701  0.74058982  1
  O  O176  1  0.22606248  0.29845884  0.74142910  1
  O  O177  1  0.73728522  0.32929317  0.74044163  1
  O  O178  1  0.43158776  0.53689766  0.74598648  1
  O  O179  1  0.91964974  0.52464083  0.74266117  1
  O  O180  1  0.33266213  0.52081638  0.24019061  1
  O  O181  1  0.85024505  0.55090380  0.23749110  1
  O  O182  1  0.42044598  0.31491936  0.24236064  1
  O  O183  1  0.93296186  0.32256240  0.23976699  1
  O  O184  1  0.23632812  0.14225249  0.23920788  1
  O  O185  1  0.72590542  0.15340858  0.24031507  1
  O  O186  1  0.31829296  0.49541707  0.92298942  1
  O  O187  1  0.81949714  0.51079328  0.91787239  1
  O  O188  1  0.43061635  0.35826524  0.91393063  1
  O  O189  1  0.93456876  0.36664679  0.92379499  1
  O  O190  1  0.25015435  0.14659104  0.92709728  1
  O  O191  1  0.74589911  0.12426485  0.91682249  1
  O  O192  1  0.31465399  0.12229237  0.41372039  1
  O  O193  1  0.81802124  0.14064602  0.42284800  1
  O  O194  1  0.24704180  0.37156646  0.41503112  1
  O  O195  1  0.75102254  0.35270695  0.42566395  1
  O  O196  1  0.43322206  0.50561232  0.42110250  1
  O  O197  1  0.93010783  0.50123324  0.41476405  1
  O  O198  1  0.16335652  0.46670969  0.08160159  1
  O  O199  1  0.66795783  0.46769868  0.08072129  1
  O  O200  1  0.06615326  0.66048020  0.08322746  1
  O  O201  1  0.56771209  0.66647354  0.08099268  1
  O  O202  1  0.26453233  0.86267304  0.08369397  1
  O  O203  1  0.75710118  0.84280284  0.08093660  1
  O  O204  1  0.16533875  0.86594036  0.58048078  1
  O  O205  1  0.66746822  0.86675497  0.58025998  1
  O  O206  1  0.25763561  0.67591701  0.58079881  1
  O  O207  1  0.76756532  0.66968101  0.58279462  1
  O  O208  1  0.06744890  0.46836027  0.58113177  1
  O  O209  1  0.57879849  0.49820214  0.58347797  1
  O  O210  1  0.14848919  0.81387062  0.25954005  1
  O  O211  1  0.64983857  0.84726942  0.24501504  1
  O  O212  1  0.25562240  0.69596593  0.26037310  1
  O  O213  1  0.77574282  0.70663426  0.24491174  1
  O  O214  1  0.08419433  0.46222606  0.25358386  1
  O  O215  1  0.59106739  0.48245279  0.24447875  1
  O  O216  1  0.14922069  0.45171763  0.74602528  1
  O  O217  1  0.64725223  0.47811732  0.75859454  1
  O  O218  1  0.09035346  0.69878418  0.74518668  1
  O  O219  1  0.58403134  0.69569499  0.75857138  1
  O  O220  1  0.27518906  0.84311555  0.74575594  1
  O  O221  1  0.75634263  0.81474621  0.76222089  1
