# generated using pymatgen
data_MgTiV2CrO10
_symmetry_space_group_name_H-M   'P 1'
_cell_length_a   6.61467828
_cell_length_b   6.60976406
_cell_length_c   4.93829597
_cell_angle_alpha   94.10054173
_cell_angle_beta   85.77386716
_cell_angle_gamma   88.54259220
_symmetry_Int_Tables_number   1
_chemical_formula_structural   MgTiV2CrO10
_chemical_formula_sum   'Mg1 Ti1 V2 Cr1 O10'
_cell_volume   214.66892372
_cell_formula_units_Z   1
loop_
 _symmetry_equiv_pos_site_id
 _symmetry_equiv_pos_as_xyz
  1  'x, y, z'
loop_
 _atom_site_type_symbol
 _atom_site_label
 _atom_site_symmetry_multiplicity
 _atom_site_fract_x
 _atom_site_fract_y
 _atom_site_fract_z
 _atom_site_occupancy
  Mg  Mg0  1  0.49908100  0.99373800  0.99541300  1
  Ti  Ti1  1  0.75218700  0.24685900  0.49442600  1
  V  V2  1  0.25911400  0.24640500  0.60517500  1
  V  V3  1  0.75199800  0.75371400  0.38554700  1
  Cr  Cr4  1  0.25578000  0.75033600  0.49631200  1
  O  O5  1  0.02394200  0.75605200  0.32668600  1
  O  O6  1  0.30633000  0.19582500  0.27262600  1
  O  O7  1  0.26123600  0.51843900  0.66667900  1
  O  O8  1  0.26564500  0.96233400  0.73993000  1
  O  O9  1  0.46709700  0.76063700  0.25206900  1
  O  O10  1  0.52919900  0.22901900  0.73959900  1
  O  O11  1  0.73453400  0.02348200  0.24996700  1
  O  O12  1  0.73963400  0.47898600  0.32004400  1
  O  O13  1  0.70010400  0.79987900  0.71808300  1
  O  O14  1  0.98411900  0.23429500  0.66799900  1
