# generated using pymatgen
data_Na5Ca3HfP3(SO8)3
_symmetry_space_group_name_H-M   'P 1'
_cell_length_a   9.26494244
_cell_length_b   9.28224355
_cell_length_c   23.26916551
_cell_angle_alpha   90.13947427
_cell_angle_beta   89.85475623
_cell_angle_gamma   119.82366107
_symmetry_Int_Tables_number   1
_chemical_formula_structural   Na5Ca3HfP3(SO8)3
_chemical_formula_sum   'Na15 Ca9 Hf3 P9 S9 O72'
_cell_volume   1736.09823078
_cell_formula_units_Z   3
loop_
 _symmetry_equiv_pos_site_id
 _symmetry_equiv_pos_as_xyz
  1  'x, y, z'
loop_
 _atom_site_type_symbol
 _atom_site_label
 _atom_site_symmetry_multiplicity
 _atom_site_fract_x
 _atom_site_fract_y
 _atom_site_fract_z
 _atom_site_occupancy
  Na  Na0  1  0.99733729  0.63514005  0.25975395  1
  Na  Na1  1  0.30251094  0.34641648  0.58910586  1
  Na  Na2  1  0.02337333  0.68670747  0.57778051  1
  Na  Na3  1  0.67106058  0.95509099  0.57529907  1
  Na  Na4  1  0.66555846  0.69705018  0.07827138  1
  Na  Na5  1  0.03906426  0.34630304  0.08334324  1
  Na  Na6  1  0.99155571  0.68456853  0.90923017  1
  Na  Na7  1  0.32017452  0.29492681  0.90194894  1
  Na  Na8  1  0.69424508  0.68258629  0.41925617  1
  Na  Na9  1  0.99361744  0.00246801  0.49319795  1
  Na  Na10  1  0.00040835  0.98997941  0.99224970  1
  Na  Na11  1  0.65040038  0.31476578  0.81997863  1
  Na  Na12  1  0.65422883  0.28991719  0.33616386  1
  Na  Na13  1  0.33621509  0.68251791  0.17611737  1
  Na  Na14  1  0.33171021  0.64316207  0.66968619  1
  Ca  Ca15  1  0.00257029  0.00938395  0.35087149  1
  Ca  Ca16  1  0.99328035  0.00361093  0.84621010  1
  Ca  Ca17  1  0.00216886  0.00940211  0.65670654  1
  Ca  Ca18  1  0.00635012  0.99686822  0.14810553  1
  Ca  Ca19  1  0.66787999  0.34052180  0.68690532  1
  Ca  Ca20  1  0.65884311  0.32675226  0.18629112  1
  Ca  Ca21  1  0.33252314  0.67742513  0.01482749  1
  Ca  Ca22  1  0.32680299  0.66693541  0.51025457  1
  Ca  Ca23  1  0.33497028  0.67291880  0.32470159  1
  Hf  Hf24  1  0.66950075  0.33171756  0.97615714  1
  Hf  Hf25  1  0.68159431  0.33675483  0.48182698  1
  Hf  Hf26  1  0.33760287  0.66586647  0.82028966  1
  P  P27  1  0.30997915  0.31704963  0.75439795  1
  P  P28  1  0.96277201  0.33233922  0.58429116  1
  P  P29  1  0.66600589  0.62809779  0.58072049  1
  P  P30  1  0.95219098  0.62164649  0.08179291  1
  P  P31  1  0.63036652  0.66003244  0.92169504  1
  P  P32  1  0.03735230  0.37462405  0.92067266  1
  P  P33  1  0.33736879  0.96765949  0.91684933  1
  P  P34  1  0.64120565  0.97708887  0.42168487  1
  P  P35  1  0.01629483  0.66354685  0.41768449  1
  S  S36  1  0.29950062  0.99313835  0.25036752  1
  S  S37  1  0.69547642  0.69848851  0.24831092  1
  S  S38  1  0.00619129  0.31142216  0.24605508  1
  S  S39  1  0.01329227  0.69426922  0.75422421  1
  S  S40  1  0.67886686  0.98716077  0.75097846  1
  S  S41  1  0.37527975  0.04360533  0.58193133  1
  S  S42  1  0.67179875  0.04406220  0.07999113  1
  S  S43  1  0.37385171  0.33262715  0.07857840  1
  S  S44  1  0.34525437  0.36080727  0.42119237  1
  O  O45  1  0.21238011  0.00325995  0.30148694  1
  O  O46  1  0.79784046  0.78979635  0.29867279  1
  O  O47  1  0.00179499  0.21119792  0.29510714  1
  O  O48  1  0.21824164  0.21290858  0.80734966  1
  O  O49  1  0.99530832  0.77840064  0.80545898  1
  O  O50  1  0.78637764  0.00410369  0.79960204  1
  O  O51  1  0.74532982  0.96161005  0.69617857  1
  O  O52  1  0.21290292  0.24569145  0.69776084  1
  O  O53  1  0.03262169  0.78944308  0.70086992  1
  O  O54  1  0.77522836  0.79052383  0.19395520  1
  O  O55  1  0.01090024  0.23351348  0.19037563  1
  O  O56  1  0.20631208  0.98520374  0.19729992  1
  O  O57  1  0.87879391  0.34960431  0.63754960  1
  O  O58  1  0.47068568  0.11812441  0.63420078  1
  O  O59  1  0.64241263  0.52102194  0.63290981  1
  O  O60  1  0.86753246  0.52624857  0.13657219  1
  O  O61  1  0.65582540  0.11938280  0.13263606  1
  O  O62  1  0.46644719  0.33992752  0.13009355  1
  O  O63  1  0.46221021  0.31987254  0.02589132  1
  O  O64  1  0.83717944  0.51263304  0.02842732  1
  O  O65  1  0.67181951  0.14298917  0.02845346  1
  O  O66  1  0.46783232  0.14817366  0.53062665  1
  O  O67  1  0.67572415  0.53157239  0.52527205  1
  O  O68  1  0.85184769  0.32422432  0.53053530  1
  O  O69  1  0.56694535  0.68445782  0.97910121  1
  O  O70  1  0.12827343  0.44123518  0.97748096  1
  O  O71  1  0.30334300  0.86562883  0.97082587  1
  O  O72  1  0.56661333  0.87617161  0.47746811  1
  O  O73  1  0.32496666  0.43402053  0.47499810  1
  O  O74  1  0.11371854  0.67871834  0.47251900  1
  O  O75  1  0.09239194  0.63871891  0.36239311  1
  O  O76  1  0.53164743  0.89274208  0.36956284  1
  O  O77  1  0.37393402  0.47323969  0.37204667  1
  O  O78  1  0.13561638  0.50464280  0.87146118  1
  O  O79  1  0.36184090  0.87544237  0.86458600  1
  O  O80  1  0.50519421  0.63738559  0.87207254  1
  O  O81  1  0.98106134  0.80916937  0.41450649  1
  O  O82  1  0.81631273  0.99778934  0.41572322  1
  O  O83  1  0.20238880  0.19356379  0.41402181  1
  O  O84  1  0.01528324  0.20373758  0.90985860  1
  O  O85  1  0.18887939  0.99782392  0.90873487  1
  O  O86  1  0.81027218  0.79465727  0.91094753  1
  O  O87  1  0.97286146  0.17005356  0.58271773  1
  O  O88  1  0.20939178  0.03467060  0.58320661  1
  O  O89  1  0.83184632  0.79821545  0.58203079  1
  O  O90  1  0.95467703  0.78978820  0.07757775  1
  O  O91  1  0.83508377  0.04575172  0.07776682  1
  O  O92  1  0.20151837  0.18900533  0.07790606  1
  O  O93  1  0.65372852  0.13140993  0.74913664  1
  O  O94  1  0.48718464  0.34450696  0.75290695  1
  O  O95  1  0.87045018  0.52432188  0.75188829  1
  O  O96  1  0.69119502  0.53506218  0.24810632  1
  O  O97  1  0.85528262  0.33191044  0.24928830  1
  O  O98  1  0.47041694  0.13726273  0.24948972  1
  O  O99  1  0.62828662  0.48559763  0.92290107  1
  O  O100  1  0.86176880  0.36801775  0.92277139  1
  O  O101  1  0.49989370  0.14478996  0.92229946  1
  O  O102  1  0.65771363  0.15452773  0.42748818  1
  O  O103  1  0.50156098  0.34815523  0.42476902  1
  O  O104  1  0.83549163  0.50120649  0.42330290  1
  O  O105  1  0.36465761  0.48907119  0.07714062  1
  O  O106  1  0.12423079  0.63535292  0.07819540  1
  O  O107  1  0.53552938  0.86982757  0.07716942  1
  O  O108  1  0.35023186  0.87328641  0.57651422  1
  O  O109  1  0.51387353  0.65527444  0.57681573  1
  O  O110  1  0.13898098  0.48637562  0.57868582  1
  O  O111  1  0.30582494  0.83458574  0.25131895  1
  O  O112  1  0.52534397  0.67380669  0.25135716  1
  O  O113  1  0.15502562  0.48240884  0.24812834  1
  O  O114  1  0.32393016  0.49519641  0.76346325  1
  O  O115  1  0.17056114  0.68346181  0.76068473  1
  O  O116  1  0.51126467  0.83246871  0.76009578  1
