# generated using pymatgen
data_Ca3C3Cl2
_symmetry_space_group_name_H-M   'P 1'
_cell_length_a   3.84052644
_cell_length_b   6.97937067
_cell_length_c   11.52304964
_cell_angle_alpha   90.00000000
_cell_angle_beta   90.00000000
_cell_angle_gamma   105.97000881
_symmetry_Int_Tables_number   1
_chemical_formula_structural   Ca3C3Cl2
_chemical_formula_sum   'Ca6 C6 Cl4'
_cell_volume   296.94855382
_cell_formula_units_Z   2
loop_
 _symmetry_equiv_pos_site_id
 _symmetry_equiv_pos_as_xyz
  1  'x, y, z'
loop_
 _atom_site_type_symbol
 _atom_site_label
 _atom_site_symmetry_multiplicity
 _atom_site_fract_x
 _atom_site_fract_y
 _atom_site_fract_z
 _atom_site_occupancy
  Ca  Ca0  1  0.34397687  0.68795474  0.56113867  1
  Ca  Ca1  1  0.65602313  0.31204526  0.43886133  1
  Ca  Ca2  1  0.65602313  0.31204526  0.06113867  1
  Ca  Ca3  1  0.34397687  0.68795474  0.93886133  1
  Ca  Ca4  1  0.87899146  0.75798392  0.25000000  1
  Ca  Ca5  1  0.12100854  0.24201608  0.75000000  1
  C  C6  1  0.73272711  0.46545521  0.63535609  1
  C  C7  1  0.26727289  0.53454479  0.36464391  1
  C  C8  1  0.26727289  0.53454479  0.13535609  1
  C  C9  1  0.73272711  0.46545521  0.86464391  1
  C  C10  1  0.25732189  0.51464278  0.25000000  1
  C  C11  1  0.74267811  0.48535722  0.75000000  1
  Cl  Cl12  1  0.47069358  0.94138716  0.75000000  1
  Cl  Cl13  1  0.52930642  0.05861284  0.25000000  1
  Cl  Cl14  1  -0.00000000  -0.00000000  -0.00000000  1
  Cl  Cl15  1  -0.00000000  -0.00000000  0.50000000  1
