# generated using pymatgen
data_In2SiSn2S5O24
_symmetry_space_group_name_H-M   'P 1'
_cell_length_a   8.85346182
_cell_length_b   8.89485210
_cell_length_c   23.03141583
_cell_angle_alpha   89.71616499
_cell_angle_beta   89.77550087
_cell_angle_gamma   120.02147481
_symmetry_Int_Tables_number   1
_chemical_formula_structural   In2SiSn2S5O24
_chemical_formula_sum   'In6 Si3 Sn6 S15 O72'
_cell_volume   1570.33357677
_cell_formula_units_Z   3
loop_
 _symmetry_equiv_pos_site_id
 _symmetry_equiv_pos_as_xyz
  1  'x, y, z'
loop_
 _atom_site_type_symbol
 _atom_site_label
 _atom_site_symmetry_multiplicity
 _atom_site_fract_x
 _atom_site_fract_y
 _atom_site_fract_z
 _atom_site_occupancy
  In  In0  1  0.99136242  0.00070790  0.35700083  1
  In  In1  1  0.00349620  0.00228162  0.85460345  1
  In  In2  1  0.67574237  0.33547736  0.68451505  1
  In  In3  1  0.65967466  0.33350271  0.18399498  1
  In  In4  1  0.65919718  0.33162545  0.98264907  1
  In  In5  1  0.33013559  0.66438290  0.81176681  1
  Si  Si6  1  0.96314981  0.33751661  0.58375366  1
  Si  Si7  1  0.37336543  0.33368692  0.08341782  1
  Si  Si8  1  0.61802932  0.95481329  0.41762191  1
  Sn  Sn9  1  0.99703591  0.00460852  0.64462428  1
  Sn  Sn10  1  0.00644857  0.00590681  0.14666219  1
  Sn  Sn11  1  0.67199221  0.32039195  0.47957711  1
  Sn  Sn12  1  0.33470344  0.66122708  0.02082130  1
  Sn  Sn13  1  0.33446032  0.66592845  0.52044631  1
  Sn  Sn14  1  0.33822318  0.67158847  0.31519276  1
  S  S15  1  0.28729114  0.99498641  0.25198500  1
  S  S16  1  0.71059160  0.71028599  0.24967904  1
  S  S17  1  0.00240633  0.29835420  0.25064342  1
  S  S18  1  0.29369214  0.29050414  0.74962668  1
  S  S19  1  0.99878368  0.71311069  0.74959725  1
  S  S20  1  0.70871251  0.99902056  0.75092797  1
  S  S21  1  0.37237934  0.04030929  0.58419227  1
  S  S22  1  0.66652523  0.62275104  0.58290739  1
  S  S23  1  0.96277804  0.62962664  0.08334021  1
  S  S24  1  0.66710775  0.03739144  0.08347562  1
  S  S25  1  0.62503658  0.66783302  0.91559067  1
  S  S26  1  0.03916226  0.37573199  0.91687977  1
  S  S27  1  0.33467991  0.95387022  0.91694634  1
  S  S28  1  0.33898777  0.37774251  0.41758396  1
  S  S29  1  0.04196513  0.66437732  0.41652487  1
  O  O30  1  0.20629701  0.02339366  0.30308967  1
  O  O31  1  0.81783663  0.79060243  0.30053272  1
  O  O32  1  0.97244997  0.19013232  0.30219573  1
  O  O33  1  0.21693981  0.18343792  0.80251588  1
  O  O34  1  0.97213763  0.79255916  0.80191480  1
  O  O35  1  0.81773828  0.02888339  0.80255760  1
  O  O36  1  0.78838460  0.96604510  0.69810536  1
  O  O37  1  0.18038810  0.20896169  0.69775730  1
  O  O38  1  0.03110880  0.82569114  0.69620564  1
  O  O39  1  0.78825170  0.82289566  0.19587647  1
  O  O40  1  0.03739379  0.22144596  0.19789958  1
  O  O41  1  0.17777377  0.96336249  0.19865126  1
  O  O42  1  0.88768143  0.37609826  0.64153867  1
  O  O43  1  0.47660988  0.11547192  0.63630571  1
  O  O44  1  0.63078193  0.51645665  0.63563672  1
  O  O45  1  0.89298458  0.51966337  0.13558475  1
  O  O46  1  0.63585036  0.11111910  0.13598877  1
  O  O47  1  0.48841100  0.37336787  0.14134774  1
  O  O48  1  0.44790187  0.29304584  0.02536741  1
  O  O49  1  0.85819599  0.55534908  0.03087781  1
  O  O50  1  0.70787139  0.14723818  0.03119288  1
  O  O51  1  0.44507953  0.15371996  0.53174116  1
  O  O52  1  0.69656320  0.54473645  0.53015713  1
  O  O53  1  0.84156064  0.29968517  0.52650484  1
  O  O54  1  0.54541390  0.70076197  0.96827918  1
  O  O55  1  0.15193413  0.45679225  0.96875588  1
  O  O56  1  0.30233818  0.84149343  0.97029652  1
  O  O57  1  0.52919765  0.83185583  0.47480861  1
  O  O58  1  0.30124402  0.45316953  0.46834971  1
  O  O59  1  0.14946898  0.69154830  0.46815998  1
  O  O60  1  0.11424863  0.62420273  0.36329577  1
  O  O61  1  0.49771935  0.87281209  0.35870008  1
  O  O62  1  0.37000185  0.48521571  0.36318158  1
  O  O63  1  0.11607585  0.48327015  0.86409340  1
  O  O64  1  0.36120141  0.87399025  0.86467976  1
  O  O65  1  0.51565050  0.63782196  0.86396158  1
  O  O66  1  0.03290257  0.82295627  0.40815971  1
  O  O67  1  0.80578617  0.97199728  0.41145786  1
  O  O68  1  0.18815932  0.20387787  0.40924301  1
  O  O69  1  0.02512358  0.20385709  0.91051722  1
  O  O70  1  0.17628886  0.96914550  0.91155123  1
  O  O71  1  0.79760611  0.82688247  0.90973602  1
  O  O72  1  0.98214904  0.16303875  0.59091335  1
  O  O73  1  0.19378597  0.01711295  0.59157203  1
  O  O74  1  0.82797296  0.79655696  0.59050925  1
  O  O75  1  0.97507359  0.80156407  0.09248254  1
  O  O76  1  0.81894850  0.01024285  0.09228401  1
  O  O77  1  0.17806159  0.16048481  0.09179312  1
  O  O78  1  0.68826662  0.15131467  0.74363038  1
  O  O79  1  0.46652737  0.30851413  0.74106141  1
  O  O80  1  0.84175274  0.54294329  0.74371406  1
  O  O81  1  0.69541612  0.53970733  0.24271345  1
  O  O82  1  0.84932603  0.31850230  0.24106330  1
  O  O83  1  0.46280751  0.14539926  0.24424620  1
  O  O84  1  0.64551034  0.51526297  0.92291106  1
  O  O85  1  0.86619107  0.35799937  0.92568517  1
  O  O86  1  0.49204215  0.12407793  0.92307736  1
  O  O87  1  0.62706458  0.14252388  0.42260981  1
  O  O88  1  0.50083612  0.36957495  0.42615516  1
  O  O89  1  0.86417928  0.51228454  0.42360973  1
  O  O90  1  0.35026467  0.50526488  0.07508912  1
  O  O91  1  0.14223246  0.65756529  0.07453948  1
  O  O92  1  0.50713473  0.86539799  0.07448532  1
  O  O93  1  0.35538524  0.86860535  0.57564009  1
  O  O94  1  0.51448776  0.64661720  0.57586579  1
  O  O95  1  0.15620328  0.50738583  0.57291248  1
  O  O96  1  0.29753306  0.83178724  0.25679145  1
  O  O97  1  0.53262121  0.69123175  0.25527789  1
  O  O98  1  0.16363543  0.47424843  0.25824611  1
  O  O99  1  0.30759342  0.46246103  0.75603369  1
  O  O100  1  0.15726449  0.69782604  0.75502597  1
  O  O101  1  0.53606365  0.83994908  0.75674053  1
