# generated using pymatgen
data_MgFe6O7F5
_symmetry_space_group_name_H-M   'P 1'
_cell_length_a   5.18421728
_cell_length_b   7.86871880
_cell_length_c   5.98456289
_cell_angle_alpha   102.05926098
_cell_angle_beta   97.17648758
_cell_angle_gamma   85.08647744
_symmetry_Int_Tables_number   1
_chemical_formula_structural   MgFe6O7F5
_chemical_formula_sum   'Mg1 Fe6 O7 F5'
_cell_volume   236.42485405
_cell_formula_units_Z   1
loop_
 _symmetry_equiv_pos_site_id
 _symmetry_equiv_pos_as_xyz
  1  'x, y, z'
loop_
 _atom_site_type_symbol
 _atom_site_label
 _atom_site_symmetry_multiplicity
 _atom_site_fract_x
 _atom_site_fract_y
 _atom_site_fract_z
 _atom_site_occupancy
  Mg  Mg0  1  0.00849865  0.34657218  0.83862117  1
  Fe  Fe1  1  0.55963603  0.66603540  0.09940421  1
  Fe  Fe2  1  0.56202560  0.04607169  0.46802087  1
  Fe  Fe3  1  0.50849369  0.29875816  0.91185687  1
  Fe  Fe4  1  0.91427622  0.69685701  0.62519278  1
  Fe  Fe5  1  0.01950910  0.32406135  0.35136023  1
  Fe  Fe6  1  0.94550491  0.98354842  0.01242282  1
  O  O7  1  0.76017556  0.77648765  0.91609017  1
  O  O8  1  0.77209353  0.12256505  0.26128820  1
  O  O9  1  0.77597048  0.12790208  0.77742690  1
  O  O10  1  0.67882523  0.79460293  0.41334767  1
  O  O11  1  0.77647323  0.44461783  0.09224421  1
  O  O12  1  0.29273934  0.51920971  0.93829645  1
  O  O13  1  0.29697654  0.21836325  0.60088796  1
  F  F14  1  0.78612000  0.45922674  0.61443414  1
  F  F15  1  0.27418502  0.91001445  0.20269099  1
  F  F16  1  0.23059565  0.20593209  0.06026955  1
  F  F17  1  0.17569500  0.56141557  0.44657970  1
  F  F18  1  0.16220723  0.87275444  0.75051811  1
