# generated using pymatgen
data_MgSbOF3
_symmetry_space_group_name_H-M   'P 1'
_cell_length_a   3.86014792
_cell_length_b   6.57611183
_cell_length_c   4.61548002
_cell_angle_alpha   60.77893701
_cell_angle_beta   90.00251581
_cell_angle_gamma   107.06391977
_symmetry_Int_Tables_number   1
_chemical_formula_structural   MgSbOF3
_chemical_formula_sum   'Mg1 Sb1 O1 F3'
_cell_volume   96.30091585
_cell_formula_units_Z   1
loop_
 _symmetry_equiv_pos_site_id
 _symmetry_equiv_pos_as_xyz
  1  'x, y, z'
loop_
 _atom_site_type_symbol
 _atom_site_label
 _atom_site_symmetry_multiplicity
 _atom_site_fract_x
 _atom_site_fract_y
 _atom_site_fract_z
 _atom_site_occupancy
  Mg  Mg0  1  0.74727099  0.49501049  0.82836356  1
  Sb  Sb1  1  0.00895817  0.01782742  0.95713734  1
  O  O2  1  0.56226514  0.12456577  0.01922414  1
  F  F3  1  0.79710312  0.59509423  0.17027784  1
  F  F4  1  0.92532269  0.85068819  0.47186691  1
  F  F5  1  0.22693690  0.45431389  0.78750522  1
