# generated using pymatgen
data_Na12Ca5Ta(PO4)9
_symmetry_space_group_name_H-M   'P 1'
_cell_length_a   9.41975083
_cell_length_b   9.41975048
_cell_length_c   23.00261599
_cell_angle_alpha   90.00000000
_cell_angle_beta   90.00000000
_cell_angle_gamma   120.00000121
_symmetry_Int_Tables_number   1
_chemical_formula_structural   Na12Ca5Ta(PO4)9
_chemical_formula_sum   'Na24 Ca10 Ta2 P18 O72'
_cell_volume   1767.61089381
_cell_formula_units_Z   2
loop_
 _symmetry_equiv_pos_site_id
 _symmetry_equiv_pos_as_xyz
  1  'x, y, z'
loop_
 _atom_site_type_symbol
 _atom_site_label
 _atom_site_symmetry_multiplicity
 _atom_site_fract_x
 _atom_site_fract_y
 _atom_site_fract_z
 _atom_site_occupancy
  Na  Na0  1  0.63501160  0.00022901  0.25035141  1
  Na  Na1  1  0.36521741  0.36498840  0.25035141  1
  Na  Na2  1  0.99977099  0.63478259  0.25035141  1
  Na  Na3  1  0.63501160  0.63478259  0.75035141  1
  Na  Na4  1  0.99977099  0.36498840  0.75035141  1
  Na  Na5  1  0.36521741  0.00022901  0.75035141  1
  Na  Na6  1  0.29497780  0.33642859  0.58697415  1
  Na  Na7  1  0.04145179  0.70502220  0.58697415  1
  Na  Na8  1  0.66357141  0.95854821  0.58697415  1
  Na  Na9  1  0.29497780  0.95854821  0.08697415  1
  Na  Na10  1  0.66357141  0.70502220  0.08697415  1
  Na  Na11  1  0.04145179  0.33642859  0.08697415  1
  Na  Na12  1  0.98424689  0.68063249  0.90669476  1
  Na  Na13  1  0.69638460  0.01575311  0.90669476  1
  Na  Na14  1  0.31936751  0.30361540  0.90669476  1
  Na  Na15  1  0.98424689  0.30361540  0.40669476  1
  Na  Na16  1  0.31936751  0.01575311  0.40669476  1
  Na  Na17  1  0.69638460  0.68063249  0.40669476  1
  Na  Na18  1  0.00000000  -0.00000000  0.49940897  1
  Na  Na19  1  0.00000000  -0.00000000  0.99940897  1
  Na  Na20  1  0.66666700  0.33333300  0.82039595  1
  Na  Na21  1  0.66666700  0.33333300  0.32039595  1
  Na  Na22  1  0.33333300  0.66666700  0.17602957  1
  Na  Na23  1  0.33333300  0.66666700  0.67602957  1
  Ca  Ca24  1  0.00000000  -0.00000000  0.34601212  1
  Ca  Ca25  1  0.00000000  -0.00000000  0.84601212  1
  Ca  Ca26  1  0.00000000  -0.00000000  0.65035613  1
  Ca  Ca27  1  0.00000000  -0.00000000  0.15035613  1
  Ca  Ca28  1  0.66666700  0.33333300  0.68233004  1
  Ca  Ca29  1  0.66666700  0.33333300  0.18233004  1
  Ca  Ca30  1  0.33333300  0.66666700  0.01336297  1
  Ca  Ca31  1  0.33333300  0.66666700  0.51336297  1
  Ca  Ca32  1  0.33333300  0.66666700  0.32285960  1
  Ca  Ca33  1  0.33333300  0.66666700  0.82285960  1
  Ta  Ta34  1  0.66666700  0.33333300  0.98451817  1
  Ta  Ta35  1  0.66666700  0.33333300  0.48451817  1
  P  P36  1  0.30584341  0.99677939  0.25000237  1
  P  P37  1  0.69093598  0.69415659  0.25000237  1
  P  P38  1  0.00322061  0.30906402  0.25000237  1
  P  P39  1  0.30584341  0.30906402  0.75000237  1
  P  P40  1  0.00322061  0.69415659  0.75000237  1
  P  P41  1  0.69093598  0.99677939  0.75000237  1
  P  P42  1  0.95943344  0.33296943  0.58154204  1
  P  P43  1  0.37353699  0.04056656  0.58154204  1
  P  P44  1  0.66703057  0.62646301  0.58154204  1
  P  P45  1  0.95943344  0.62646301  0.08154204  1
  P  P46  1  0.66703057  0.04056656  0.08154204  1
  P  P47  1  0.37353699  0.33296943  0.08154204  1
  P  P48  1  0.64095500  0.65699317  0.92106469  1
  P  P49  1  0.01603717  0.35904500  0.92106469  1
  P  P50  1  0.34300683  0.98396283  0.92106469  1
  P  P51  1  0.64095500  0.98396283  0.42106469  1
  P  P52  1  0.34300683  0.35904500  0.42106469  1
  P  P53  1  0.01603717  0.65699317  0.42106469  1
  O  O54  1  0.22059486  0.01117857  0.30554362  1
  O  O55  1  0.79058371  0.77940514  0.30554362  1
  O  O56  1  0.98882143  0.20941629  0.30554362  1
  O  O57  1  0.22059486  0.20941629  0.80554362  1
  O  O58  1  0.98882143  0.77940514  0.80554362  1
  O  O59  1  0.79058371  0.01117857  0.80554362  1
  O  O60  1  0.77660966  0.98170530  0.69469187  1
  O  O61  1  0.20509564  0.22339034  0.69469187  1
  O  O62  1  0.01829470  0.79490436  0.69469187  1
  O  O63  1  0.77660966  0.79490436  0.19469187  1
  O  O64  1  0.01829470  0.22339034  0.19469187  1
  O  O65  1  0.20509564  0.98170530  0.19469187  1
  O  O66  1  0.88486155  0.35054526  0.63751228  1
  O  O67  1  0.46568471  0.11513845  0.63751228  1
  O  O68  1  0.64945474  0.53431529  0.63751228  1
  O  O69  1  0.88486155  0.53431529  0.13751228  1
  O  O70  1  0.64945474  0.11513845  0.13751228  1
  O  O71  1  0.46568471  0.35054526  0.13751228  1
  O  O72  1  0.48773724  0.33045689  0.02914212  1
  O  O73  1  0.84272065  0.51226276  0.02914212  1
  O  O74  1  0.66954311  0.15727935  0.02914212  1
  O  O75  1  0.48773724  0.15727935  0.52914212  1
  O  O76  1  0.66954311  0.51226276  0.52914212  1
  O  O77  1  0.84272065  0.33045689  0.52914212  1
  O  O78  1  0.56128478  0.68412119  0.97410175  1
  O  O79  1  0.12283541  0.43871522  0.97410175  1
  O  O80  1  0.31587881  0.87716459  0.97410175  1
  O  O81  1  0.56128478  0.87716459  0.47410175  1
  O  O82  1  0.31587881  0.43871522  0.47410175  1
  O  O83  1  0.12283541  0.68412119  0.47410175  1
  O  O84  1  0.08307548  0.61542724  0.36659682  1
  O  O85  1  0.53235076  0.91692452  0.36659682  1
  O  O86  1  0.38457276  0.46764924  0.36659682  1
  O  O87  1  0.08307548  0.46764924  0.86659682  1
  O  O88  1  0.38457276  0.91692452  0.86659682  1
  O  O89  1  0.53235076  0.61542724  0.86659682  1
  O  O90  1  0.98609803  0.80334886  0.41475293  1
  O  O91  1  0.81725083  0.01390197  0.41475293  1
  O  O92  1  0.19665114  0.18274917  0.41475293  1
  O  O93  1  0.98609803  0.18274917  0.91475293  1
  O  O94  1  0.19665114  0.01390197  0.91475293  1
  O  O95  1  0.81725083  0.80334886  0.91475293  1
  O  O96  1  0.96024071  0.16970754  0.57594943  1
  O  O97  1  0.20946683  0.03975929  0.57594943  1
  O  O98  1  0.83029246  0.79053317  0.57594943  1
  O  O99  1  0.96024071  0.79053317  0.07594943  1
  O  O100  1  0.83029246  0.03975929  0.07594943  1
  O  O101  1  0.20946683  0.16970754  0.07594943  1
  O  O102  1  0.67300899  0.15246826  0.74890168  1
  O  O103  1  0.47946027  0.32699101  0.74890168  1
  O  O104  1  0.84753174  0.52053973  0.74890168  1
  O  O105  1  0.67300899  0.52053973  0.24890168  1
  O  O106  1  0.84753174  0.32699101  0.24890168  1
  O  O107  1  0.47946027  0.15246826  0.24890168  1
  O  O108  1  0.66027738  0.49753981  0.93031888  1
  O  O109  1  0.83726343  0.33972262  0.93031888  1
  O  O110  1  0.50246019  0.16273657  0.93031888  1
  O  O111  1  0.66027738  0.16273657  0.43031888  1
  O  O112  1  0.50246019  0.33972262  0.43031888  1
  O  O113  1  0.83726343  0.49753981  0.43031888  1
  O  O114  1  0.35245805  0.48361076  0.07470709  1
  O  O115  1  0.13115172  0.64754195  0.07470709  1
  O  O116  1  0.51638924  0.86884828  0.07470709  1
  O  O117  1  0.35245805  0.86884828  0.57470709  1
  O  O118  1  0.51638924  0.64754195  0.57470709  1
  O  O119  1  0.13115172  0.48361076  0.57470709  1
  O  O120  1  0.32320826  0.84078720  0.25272759  1
  O  O121  1  0.51757794  0.67679174  0.25272759  1
  O  O122  1  0.15921280  0.48242206  0.25272759  1
  O  O123  1  0.32320826  0.48242206  0.75272759  1
  O  O124  1  0.15921280  0.67679174  0.75272759  1
  O  O125  1  0.51757794  0.84078720  0.75272759  1
