# generated using pymatgen
data_Fe4As2O11
_symmetry_space_group_name_H-M   'P 1'
_cell_length_a   5.04942285
_cell_length_b   6.41801766
_cell_length_c   6.69332071
_cell_angle_alpha   109.68566572
_cell_angle_beta   105.95359918
_cell_angle_gamma   97.49299034
_symmetry_Int_Tables_number   1
_chemical_formula_structural   Fe4As2O11
_chemical_formula_sum   'Fe4 As2 O11'
_cell_volume   190.31814411
_cell_formula_units_Z   1
loop_
 _symmetry_equiv_pos_site_id
 _symmetry_equiv_pos_as_xyz
  1  'x, y, z'
loop_
 _atom_site_type_symbol
 _atom_site_label
 _atom_site_symmetry_multiplicity
 _atom_site_fract_x
 _atom_site_fract_y
 _atom_site_fract_z
 _atom_site_occupancy
  Fe  Fe0  1  0.11458100  0.74778000  0.03528100  1
  Fe  Fe1  1  0.89092900  0.23902500  0.96658800  1
  Fe  Fe2  1  0.66068400  0.63192200  0.24365400  1
  Fe  Fe3  1  0.34093900  0.37349200  0.75579700  1
  As  As4  1  0.33533000  0.80872100  0.59991600  1
  As  As5  1  0.66344700  0.19275500  0.40007400  1
  O  O6  1  0.73556800  0.52721000  0.95944000  1
  O  O7  1  0.26520100  0.47706600  0.04393300  1
  O  O8  1  0.99975200  0.99591900  0.99987700  1
  O  O9  1  0.93263200  0.21093600  0.63634700  1
  O  O10  1  0.06584500  0.79215000  0.36649500  1
  O  O11  1  0.38399500  0.28211300  0.46796200  1
  O  O12  1  0.21858300  0.64914200  0.73577100  1
  O  O13  1  0.78013800  0.34780500  0.25952300  1
  O  O14  1  0.46079800  0.09480600  0.78929000  1
  O  O15  1  0.53623500  0.90786900  0.20870900  1
  O  O16  1  0.61534200  0.72129100  0.53134300  1
