# generated using pymatgen
data_Na2Ta2(SiO4)3
_symmetry_space_group_name_H-M   'P 1'
_cell_length_a   8.98677060
_cell_length_b   8.98677030
_cell_length_c   22.77855240
_cell_angle_alpha   90.30584020
_cell_angle_beta   89.69415981
_cell_angle_gamma   120.42894394
_symmetry_Int_Tables_number   1
_chemical_formula_structural   Na2Ta2(SiO4)3
_chemical_formula_sum   'Na12 Ta12 Si18 O72'
_cell_volume   1586.21626931
_cell_formula_units_Z   6
loop_
 _symmetry_equiv_pos_site_id
 _symmetry_equiv_pos_as_xyz
  1  'x, y, z'
loop_
 _atom_site_type_symbol
 _atom_site_label
 _atom_site_symmetry_multiplicity
 _atom_site_fract_x
 _atom_site_fract_y
 _atom_site_fract_z
 _atom_site_occupancy
  Na  Na0  1  0.36466497  0.36466497  0.25000000  1
  Na  Na1  1  0.63533503  0.63533503  0.75000000  1
  Na  Na2  1  0.03133197  0.69799797  0.58333300  1
  Na  Na3  1  0.30200203  0.96866803  0.08333300  1
  Na  Na4  1  0.69799797  0.03133197  0.91666700  1
  Na  Na5  1  0.96866803  0.30200203  0.41666700  1
  Na  Na6  1  -0.00000000  0.00000000  0.50000000  1
  Na  Na7  1  -0.00000000  -0.00000000  0.00000000  1
  Na  Na8  1  0.66666700  0.33333300  0.83333300  1
  Na  Na9  1  0.66666700  0.33333300  0.33333300  1
  Na  Na10  1  0.33333300  0.66666700  0.16666700  1
  Na  Na11  1  0.33333300  0.66666700  0.66666700  1
  Ta  Ta12  1  -0.00009598  0.99563566  0.35437967  1
  Ta  Ta13  1  0.00436434  0.00009598  0.85437967  1
  Ta  Ta14  1  0.00009598  0.00436434  0.64562033  1
  Ta  Ta15  1  0.99563566  -0.00009598  0.14562033  1
  Ta  Ta16  1  0.66657102  0.32896866  0.68771267  1
  Ta  Ta17  1  0.67103134  0.33342898  0.18771267  1
  Ta  Ta18  1  0.66676298  0.33769734  0.97895333  1
  Ta  Ta19  1  0.66230266  0.33323702  0.47895333  1
  Ta  Ta20  1  0.33323702  0.66230266  0.02104667  1
  Ta  Ta21  1  0.33769734  0.66676298  0.52104667  1
  Ta  Ta22  1  0.33342898  0.67103134  0.31228733  1
  Ta  Ta23  1  0.32896866  0.66657102  0.81228733  1
  Si  Si24  1  0.28660979  0.99623032  0.24901024  1
  Si  Si25  1  0.71139617  0.71139617  0.25000000  1
  Si  Si26  1  0.99623032  0.28660979  0.25098976  1
  Si  Si27  1  0.28860383  0.28860383  0.75000000  1
  Si  Si28  1  0.00376968  0.71339021  0.74901024  1
  Si  Si29  1  0.71339021  0.00376968  0.75098976  1
  Si  Si30  1  0.95327679  0.32956332  0.58234324  1
  Si  Si31  1  0.37806317  0.04472917  0.58333300  1
  Si  Si32  1  0.66289732  0.61994279  0.58432276  1
  Si  Si33  1  0.95527083  0.62193683  0.08333300  1
  Si  Si34  1  0.67043668  0.04672321  0.08234324  1
  Si  Si35  1  0.38005721  0.33710268  0.08432276  1
  Si  Si36  1  0.61994279  0.66289732  0.91567724  1
  Si  Si37  1  0.04472917  0.37806317  0.91666700  1
  Si  Si38  1  0.32956332  0.95327679  0.91765676  1
  Si  Si39  1  0.62193683  0.95527083  0.41666700  1
  Si  Si40  1  0.33710268  0.38005721  0.41567724  1
  Si  Si41  1  0.04672321  0.67043668  0.41765676  1
  O  O42  1  0.19660041  0.03473045  0.30578243  1
  O  O43  1  0.83412293  0.80456907  0.30702595  1
  O  O44  1  0.97061893  0.16987745  0.30930815  1
  O  O45  1  0.19543093  0.16587707  0.80702595  1
  O  O46  1  0.96526955  0.80339959  0.80578243  1
  O  O47  1  0.83012255  0.02938107  0.80930815  1
  O  O48  1  0.80339959  0.96526955  0.69421757  1
  O  O49  1  0.16587707  0.19543093  0.69297405  1
  O  O50  1  0.02938107  0.83012255  0.69069185  1
  O  O51  1  0.80456907  0.83412293  0.19297405  1
  O  O52  1  0.03473045  0.19660041  0.19421757  1
  O  O53  1  0.16987745  0.97061893  0.19069185  1
  O  O54  1  0.86326741  0.36806345  0.63911543  1
  O  O55  1  0.50078993  0.13790207  0.64035895  1
  O  O56  1  0.63728593  0.50321045  0.64264115  1
  O  O57  1  0.86209793  0.49921007  0.14035895  1
  O  O58  1  0.63193655  0.13673259  0.13911543  1
  O  O59  1  0.49678955  0.36271407  0.14264115  1
  O  O60  1  0.47006659  0.29860255  0.02755057  1
  O  O61  1  0.83254407  0.52876393  0.02630705  1
  O  O62  1  0.69604807  0.16345555  0.02402485  1
  O  O63  1  0.47123607  0.16745593  0.52630705  1
  O  O64  1  0.70139745  0.52993341  0.52755057  1
  O  O65  1  0.83654445  0.30395193  0.52402485  1
  O  O66  1  0.52993341  0.70139745  0.97244943  1
  O  O67  1  0.16745593  0.47123607  0.97369295  1
  O  O68  1  0.30395193  0.83654445  0.97597515  1
  O  O69  1  0.52876393  0.83254407  0.47369295  1
  O  O70  1  0.29860255  0.47006659  0.47244943  1
  O  O71  1  0.16345555  0.69604807  0.47597515  1
  O  O72  1  0.13673259  0.63193655  0.36088457  1
  O  O73  1  0.49921007  0.86209793  0.35964105  1
  O  O74  1  0.36271407  0.49678955  0.35735885  1
  O  O75  1  0.13790207  0.50078993  0.85964105  1
  O  O76  1  0.36806345  0.86326741  0.86088457  1
  O  O77  1  0.50321045  0.63728593  0.85735885  1
  O  O78  1  0.02563044  0.83882930  0.40927853  1
  O  O79  1  0.81598528  0.98281670  0.40958553  1
  O  O80  1  0.15922044  0.19159883  0.40938998  1
  O  O81  1  0.01718330  0.18401472  0.90958553  1
  O  O82  1  0.16117070  0.97436956  0.90927853  1
  O  O83  1  0.80840117  0.84077956  0.90938998  1
  O  O84  1  0.97436956  0.16117070  0.59072147  1
  O  O85  1  0.18401472  0.01718330  0.59041447  1
  O  O86  1  0.84077956  0.80840117  0.59061002  1
  O  O87  1  0.98281670  0.81598528  0.09041447  1
  O  O88  1  0.83882930  0.02563044  0.09072147  1
  O  O89  1  0.19159883  0.15922044  0.09061002  1
  O  O90  1  0.69229744  0.17216230  0.74261153  1
  O  O91  1  0.48265228  0.31614970  0.74291853  1
  O  O92  1  0.82588744  0.52493183  0.74272298  1
  O  O93  1  0.68385030  0.51734772  0.24291853  1
  O  O94  1  0.82783770  0.30770256  0.24261153  1
  O  O95  1  0.47506817  0.17411256  0.24272298  1
  O  O96  1  0.64103656  0.49450370  0.92405447  1
  O  O97  1  0.85068172  0.35051630  0.92374747  1
  O  O98  1  0.50744656  0.14173417  0.92394302  1
  O  O99  1  0.64948370  0.14931828  0.42374747  1
  O  O100  1  0.50549630  0.35896344  0.42405447  1
  O  O101  1  0.85826583  0.49255344  0.42394302  1
  O  O102  1  0.35896344  0.50549630  0.07594553  1
  O  O103  1  0.14931828  0.64948370  0.07625253  1
  O  O104  1  0.49255344  0.85826583  0.07605698  1
  O  O105  1  0.35051630  0.85068172  0.57625253  1
  O  O106  1  0.49450370  0.64103656  0.57594553  1
  O  O107  1  0.14173417  0.50744656  0.57605698  1
  O  O108  1  0.30770256  0.82783770  0.25738847  1
  O  O109  1  0.51734772  0.68385030  0.25708147  1
  O  O110  1  0.17411256  0.47506817  0.25727702  1
  O  O111  1  0.31614970  0.48265228  0.75708147  1
  O  O112  1  0.17216230  0.69229744  0.75738847  1
  O  O113  1  0.52493183  0.82588744  0.75727702  1
