# generated using pymatgen
data_Na14Nb5Ga3(SiO4)12
_symmetry_space_group_name_H-M   'P 1'
_cell_length_a   18.09959697
_cell_length_b   9.04847598
_cell_length_c   22.36082899
_cell_angle_alpha   90.03707836
_cell_angle_beta   89.89408263
_cell_angle_gamma   120.05420444
_symmetry_Int_Tables_number   1
_chemical_formula_structural   Na14Nb5Ga3(SiO4)12
_chemical_formula_sum   'Na42 Nb15 Ga9 Si36 O144'
_cell_volume   3169.74728665
_cell_formula_units_Z   3
loop_
 _symmetry_equiv_pos_site_id
 _symmetry_equiv_pos_as_xyz
  1  'x, y, z'
loop_
 _atom_site_type_symbol
 _atom_site_label
 _atom_site_symmetry_multiplicity
 _atom_site_fract_x
 _atom_site_fract_y
 _atom_site_fract_z
 _atom_site_occupancy
  Na  Na0  1  0.31935190  0.01027504  0.24760174  1
  Na  Na1  1  0.81598813  0.00872921  0.24633818  1
  Na  Na2  1  0.18875059  0.36858988  0.24609179  1
  Na  Na3  1  0.68578630  0.36132539  0.24782898  1
  Na  Na4  1  0.99558343  0.62424972  0.24677598  1
  Na  Na5  1  0.49444434  0.62682885  0.24742108  1
  Na  Na6  1  0.31715405  0.62567266  0.74711462  1
  Na  Na7  1  0.81698899  0.62540920  0.74732103  1
  Na  Na8  1  0.99537885  0.36594474  0.74742968  1
  Na  Na9  1  0.49527523  0.36566058  0.74729369  1
  Na  Na10  1  0.18787860  0.00888087  0.74714096  1
  Na  Na11  1  0.68756953  0.00868871  0.74710550  1
  Na  Na12  1  0.15230095  0.34515048  0.58033029  1
  Na  Na13  1  0.65178926  0.34351053  0.58039550  1
  Na  Na14  1  0.02028550  0.69596026  0.58020359  1
  Na  Na15  1  0.51965046  0.69577841  0.58039928  1
  Na  Na16  1  0.32794067  0.95927187  0.58026610  1
  Na  Na17  1  0.82789680  0.95982852  0.58092967  1
  Na  Na18  1  0.15288646  0.96065847  0.08045699  1
  Na  Na19  1  0.65191329  0.96013421  0.08083539  1
  Na  Na20  1  0.32843189  0.69701264  0.08132501  1
  Na  Na21  1  0.82765555  0.69537415  0.08087229  1
  Na  Na22  1  0.01979562  0.34429324  0.08018199  1
  Na  Na23  1  0.51953002  0.34328157  0.08074398  1
  Na  Na24  1  0.34879751  0.03089632  0.91912862  1
  Na  Na25  1  0.84871029  0.03089024  0.91904834  1
  Na  Na26  1  0.48429166  0.29272472  0.41493037  1
  Na  Na27  1  0.66118377  0.03161824  0.41475167  1
  Na  Na28  1  0.35387325  0.67757448  0.41516392  1
  Na  Na29  1  0.84814822  0.66624195  0.41762991  1
  Na  Na30  1  0.00350078  0.00672883  0.49748880  1
  Na  Na31  1  0.49957041  0.99990153  0.49410855  1
  Na  Na32  1  0.00329580  0.99977985  0.99801928  1
  Na  Na33  1  0.50319921  0.99984175  0.99882162  1
  Na  Na34  1  0.33316006  0.33856112  0.83247324  1
  Na  Na35  1  0.83312543  0.33853269  0.83242932  1
  Na  Na36  1  0.33142200  0.32953391  0.32969804  1
  Na  Na37  1  0.83502417  0.33145359  0.32977914  1
  Na  Na38  1  0.16734643  0.66711267  0.16133895  1
  Na  Na39  1  0.66622667  0.66659760  0.16110235  1
  Na  Na40  1  0.16699425  0.66694667  0.66159231  1
  Na  Na41  1  0.66657711  0.66672238  0.66178874  1
  Nb  Nb42  1  0.00289724  0.00457351  0.35494865  1
  Nb  Nb43  1  0.00208815  0.00009803  0.85574958  1
  Nb  Nb44  1  0.50203850  -0.00000114  0.85573147  1
  Nb  Nb45  1  0.99986648  0.99953328  0.64566888  1
  Nb  Nb46  1  0.49987194  0.99971066  0.64507513  1
  Nb  Nb47  1  0.99981238  0.00022481  0.14511592  1
  Nb  Nb48  1  0.49982744  0.00007195  0.14658431  1
  Nb  Nb49  1  0.33340374  0.33773719  0.97867221  1
  Nb  Nb50  1  0.83322439  0.33782166  0.97856985  1
  Nb  Nb51  1  0.33033893  0.32835322  0.47871659  1
  Nb  Nb52  1  0.83628780  0.33381968  0.47905271  1
  Nb  Nb53  1  0.16772022  0.66853685  0.31457419  1
  Nb  Nb54  1  0.66542121  0.66529164  0.31356701  1
  Nb  Nb55  1  0.16649613  0.66597172  0.81519702  1
  Nb  Nb56  1  0.66627084  0.66569222  0.81519192  1
  Ga  Ga57  1  0.49944965  0.99988099  0.35106237  1
  Ga  Ga58  1  0.33345933  0.33335894  0.68366573  1
  Ga  Ga59  1  0.83319277  0.33294419  0.68373348  1
  Ga  Ga60  1  0.33425140  0.33488692  0.18351139  1
  Ga  Ga61  1  0.83214282  0.33173510  0.18338664  1
  Ga  Ga62  1  0.16633946  0.66629166  0.01839759  1
  Ga  Ga63  1  0.66601479  0.66579021  0.01840515  1
  Ga  Ga64  1  0.16646239  0.66709638  0.51767327  1
  Ga  Ga65  1  0.66617181  0.66591710  0.51789731  1
  Si  Si66  1  0.14803990  0.00373505  0.24885373  1
  Si  Si67  1  0.64612612  0.00521042  0.25199506  1
  Si  Si68  1  0.35601450  0.70708560  0.25212492  1
  Si  Si69  1  0.85459346  0.70465657  0.25016775  1
  Si  Si70  1  0.99811891  0.29144552  0.24963039  1
  Si  Si71  1  0.49720870  0.28739403  0.25201374  1
  Si  Si72  1  0.14778102  0.29178957  0.74931564  1
  Si  Si73  1  0.64764797  0.29150831  0.74923004  1
  Si  Si74  1  0.99800672  0.70449579  0.74970759  1
  Si  Si75  1  0.49800675  0.70481866  0.74958625  1
  Si  Si76  1  0.35446498  0.00416122  0.75019009  1
  Si  Si77  1  0.85432409  0.00408490  0.75030816  1
  Si  Si78  1  0.47891656  0.33879371  0.58471631  1
  Si  Si79  1  0.98004437  0.33908191  0.58579814  1
  Si  Si80  1  0.18961537  0.04036743  0.58582360  1
  Si  Si81  1  0.69043862  0.04215311  0.58466643  1
  Si  Si82  1  0.33048200  0.61897104  0.58475742  1
  Si  Si83  1  0.83055871  0.61953415  0.58506019  1
  Si  Si84  1  0.47960575  0.62069705  0.08517100  1
  Si  Si85  1  0.97919939  0.61924708  0.08550456  1
  Si  Si86  1  0.33079442  0.04235358  0.08468527  1
  Si  Si87  1  0.83054401  0.04229915  0.08431218  1
  Si  Si88  1  0.19042820  0.33877217  0.08513225  1
  Si  Si89  1  0.68986952  0.33829573  0.08515600  1
  Si  Si90  1  0.30996723  0.66412435  0.91939863  1
  Si  Si91  1  0.80990015  0.66431664  0.91937498  1
  Si  Si92  1  0.02330210  0.38016101  0.92018427  1
  Si  Si93  1  0.52324892  0.37991924  0.92017266  1
  Si  Si94  1  0.16572617  0.95326931  0.92018461  1
  Si  Si95  1  0.66566313  0.95312717  0.92017728  1
  Si  Si96  1  0.31249144  0.95496095  0.41920749  1
  Si  Si97  1  0.81088433  0.95433824  0.41893750  1
  Si  Si98  1  0.16535735  0.37930015  0.41996747  1
  Si  Si99  1  0.66410169  0.37302288  0.41889878  1
  Si  Si100  1  0.02461962  0.66828502  0.41955314  1
  Si  Si101  1  0.52209050  0.67150060  0.41928216  1
  O  O102  1  0.09741526  0.02984182  0.30543360  1
  O  O103  1  0.60299086  0.03674363  0.30987020  1
  O  O104  1  0.41502835  0.79353007  0.30985821  1
  O  O105  1  0.91571409  0.80023708  0.30803340  1
  O  O106  1  0.48185870  0.17001132  0.30987525  1
  O  O107  1  0.98459538  0.16312140  0.30581778  1
  O  O108  1  0.09720905  0.16389008  0.80534271  1
  O  O109  1  0.59734945  0.16405041  0.80536698  1
  O  O110  1  0.48431541  0.80535069  0.80563247  1
  O  O111  1  0.98424237  0.80539383  0.80558605  1
  O  O112  1  0.41568528  0.03148205  0.80775186  1
  O  O113  1  0.91570948  0.03150563  0.80768809  1
  O  O114  1  0.39967580  0.96579147  0.69206422  1
  O  O115  1  0.89957033  0.96579837  0.69206106  1
  O  O116  1  0.08359658  0.20180443  0.69119394  1
  O  O117  1  0.58372161  0.20198261  0.69112581  1
  O  O118  1  0.01731654  0.83293060  0.69139716  1
  O  O119  1  0.51746229  0.83312488  0.69137886  1
  O  O120  1  0.39945076  0.83370644  0.19259428  1
  O  O121  1  0.89970273  0.83342237  0.19221286  1
  O  O122  1  0.01727827  0.20138531  0.19158033  1
  O  O123  1  0.51740713  0.20107601  0.19249816  1
  O  O124  1  0.08340409  0.96521181  0.19124279  1
  O  O125  1  0.58318057  0.96551276  0.19250535  1
  O  O126  1  0.43697726  0.37059836  0.64358610  1
  O  O127  1  0.93709135  0.37046230  0.64414302  1
  O  O128  1  0.24794199  0.12529894  0.64431617  1
  O  O129  1  0.74845788  0.12611946  0.64336662  1
  O  O130  1  0.31487311  0.50311443  0.64355340  1
  O  O131  1  0.81495766  0.50349465  0.64364649  1
  O  O132  1  0.43753069  0.50481948  0.14388808  1
  O  O133  1  0.93692659  0.50355795  0.14445085  1
  O  O134  1  0.31462636  0.12629377  0.14355520  1
  O  O135  1  0.81553395  0.12652542  0.14342251  1
  O  O136  1  0.24775914  0.36971941  0.14404891  1
  O  O137  1  0.74809329  0.37177936  0.14401428  1
  O  O138  1  0.23457080  0.29712571  0.02729897  1
  O  O139  1  0.73499595  0.29780253  0.02753288  1
  O  O140  1  0.41448621  0.53012859  0.02749301  1
  O  O141  1  0.91436387  0.53026362  0.02768540  1
  O  O142  1  0.35102834  0.16682760  0.02532515  1
  O  O143  1  0.85155294  0.16699012  0.02512860  1
  O  O144  1  0.23427362  0.17077188  0.52791236  1
  O  O145  1  0.73325743  0.16843711  0.52553211  1
  O  O146  1  0.35114299  0.53426955  0.52560939  1
  O  O147  1  0.85095074  0.53484859  0.52569592  1
  O  O148  1  0.41602101  0.29823162  0.52579414  1
  O  O149  1  0.91472583  0.29863566  0.52778997  1
  O  O150  1  0.27080712  0.70753303  0.97645377  1
  O  O151  1  0.77087225  0.70766114  0.97652058  1
  O  O152  1  0.08029720  0.46063521  0.97799176  1
  O  O153  1  0.58036055  0.46053845  0.97788596  1
  O  O154  1  0.15044914  0.84006839  0.97819090  1
  O  O155  1  0.65072141  0.84019470  0.97817698  1
  O  O156  1  0.26970094  0.83498839  0.47664505  1
  O  O157  1  0.77098385  0.83577666  0.47684774  1
  O  O158  1  0.15043105  0.46014477  0.47865215  1
  O  O159  1  0.64867809  0.46093250  0.47654494  1
  O  O160  1  0.07936447  0.69884316  0.47831728  1
  O  O161  1  0.58254657  0.70470914  0.47646181  1
  O  O162  1  0.06711668  0.63771719  0.35835251  1
  O  O163  1  0.56682775  0.63362827  0.35962518  1
  O  O164  1  0.25147702  0.86534740  0.35892139  1
  O  O165  1  0.75054315  0.86754509  0.35872372  1
  O  O166  1  0.18237342  0.49853458  0.35913669  1
  O  O167  1  0.68379579  0.50080307  0.35936981  1
  O  O168  1  0.06746051  0.49607808  0.85867361  1
  O  O169  1  0.56748317  0.49615101  0.85867813  1
  O  O170  1  0.18198099  0.86560666  0.85913276  1
  O  O171  1  0.68214501  0.86578566  0.85909557  1
  O  O172  1  0.25191590  0.63842222  0.85821648  1
  O  O173  1  0.75195974  0.63848047  0.85818995  1
  O  O174  1  0.00801199  0.83093867  0.40974122  1
  O  O175  1  0.51089903  0.83736527  0.41141350  1
  O  O176  1  0.40715745  0.97768342  0.41127816  1
  O  O177  1  0.90480091  0.97067228  0.40954431  1
  O  O178  1  0.08262836  0.18701582  0.40976309  1
  O  O179  1  0.58115352  0.18490063  0.41136889  1
  O  O180  1  0.00848710  0.18536478  0.90955554  1
  O  O181  1  0.50849014  0.18534167  0.90949861  1
  O  O182  1  0.08232087  0.97704441  0.90954192  1
  O  O183  1  0.58236708  0.97705253  0.90954798  1
  O  O184  1  0.40398492  0.83796594  0.90880092  1
  O  O185  1  0.90401924  0.83802996  0.90883619  1
  O  O186  1  0.48612094  0.16150922  0.58923474  1
  O  O187  1  0.98599986  0.16064813  0.58902188  1
  O  O188  1  0.09433129  0.02782884  0.58920448  1
  O  O189  1  0.59478964  0.02797804  0.58922616  1
  O  O190  1  0.41943994  0.81094239  0.58936847  1
  O  O191  1  0.91949656  0.81138937  0.58915236  1
  O  O192  1  0.48627254  0.81165185  0.08880988  1
  O  O193  1  0.98597974  0.81070232  0.08917353  1
  O  O194  1  0.41950692  0.02750613  0.08926699  1
  O  O195  1  0.91942845  0.02725159  0.08926219  1
  O  O196  1  0.09447747  0.16112169  0.08917442  1
  O  O197  1  0.59441921  0.16091407  0.08905010  1
  O  O198  1  0.34522159  0.17174528  0.74508969  1
  O  O199  1  0.84524293  0.17175735  0.74505019  1
  O  O200  1  0.24051561  0.30936928  0.74513671  1
  O  O201  1  0.74055142  0.30933452  0.74510438  1
  O  O202  1  0.41398368  0.51908001  0.74519239  1
  O  O203  1  0.91389575  0.51905686  0.74514411  1
  O  O204  1  0.34376173  0.51791626  0.24456293  1
  O  O205  1  0.84545492  0.51871063  0.24557976  1
  O  O206  1  0.41485675  0.31179423  0.24467167  1
  O  O207  1  0.91406601  0.30855265  0.24564401  1
  O  O208  1  0.24065603  0.17166571  0.24551706  1
  O  O209  1  0.74095124  0.17039455  0.24449186  1
  O  O210  1  0.32069451  0.49522161  0.92193601  1
  O  O211  1  0.82078117  0.49548790  0.92194415  1
  O  O212  1  0.42559399  0.35113758  0.92204247  1
  O  O213  1  0.92560166  0.35126082  0.92209606  1
  O  O214  1  0.25389310  0.14136328  0.92201545  1
  O  O215  1  0.75388475  0.14141729  0.92212360  1
  O  O216  1  0.32278373  0.14790242  0.42249661  1
  O  O217  1  0.81706505  0.14221508  0.42227270  1
  O  O218  1  0.25374140  0.36685883  0.42257085  1
  O  O219  1  0.75276730  0.36059593  0.42230952  1
  O  O220  1  0.42756281  0.49438117  0.42231955  1
  O  O221  1  0.92619997  0.49980224  0.42246913  1
  O  O222  1  0.17770019  0.50313794  0.07794871  1
  O  O223  1  0.67784018  0.50349746  0.07785402  1
  O  O224  1  0.07417673  0.64530913  0.07865878  1
  O  O225  1  0.57443906  0.64550863  0.07837084  1
  O  O226  1  0.24855464  0.85133677  0.07841837  1
  O  O227  1  0.74867945  0.85132763  0.07842130  1
  O  O228  1  0.17731238  0.85133053  0.57833423  1
  O  O229  1  0.67761657  0.85197648  0.57778417  1
  O  O230  1  0.24872777  0.64584991  0.57847398  1
  O  O231  1  0.74839320  0.64532678  0.57822768  1
  O  O232  1  0.07449559  0.50326283  0.57861142  1
  O  O233  1  0.57425720  0.50340219  0.57804740  1
  O  O234  1  0.15284038  0.82710760  0.25521864  1
  O  O235  1  0.65319593  0.82806543  0.25590569  1
  O  O236  1  0.26046706  0.69350235  0.25566662  1
  O  O237  1  0.76099652  0.69412107  0.25559915  1
  O  O238  1  0.08623163  0.47809840  0.25574612  1
  O  O239  1  0.58626593  0.47839710  0.25584586  1
  O  O240  1  0.15305188  0.47876192  0.75508470  1
  O  O241  1  0.65323266  0.47884379  0.75512176  1
  O  O242  1  0.08616170  0.69385698  0.75549340  1
  O  O243  1  0.58615299  0.69374783  0.75555792  1
  O  O244  1  0.26030266  0.82756581  0.75515577  1
  O  O245  1  0.76032837  0.82749466  0.75503887  1
