# generated using pymatgen
data_Na4HfMgSi(PO6)2
_symmetry_space_group_name_H-M   'P 1'
_cell_length_a   9.09486128
_cell_length_b   9.11306636
_cell_length_c   22.24634907
_cell_angle_alpha   89.85555097
_cell_angle_beta   90.00000000
_cell_angle_gamma   119.93393894
_symmetry_Int_Tables_number   1
_chemical_formula_structural   Na4HfMgSi(PO6)2
_chemical_formula_sum   'Na24 Hf6 Mg6 Si6 P12 O72'
_cell_volume   1597.85316653
_cell_formula_units_Z   6
loop_
 _symmetry_equiv_pos_site_id
 _symmetry_equiv_pos_as_xyz
  1  'x, y, z'
loop_
 _atom_site_type_symbol
 _atom_site_label
 _atom_site_symmetry_multiplicity
 _atom_site_fract_x
 _atom_site_fract_y
 _atom_site_fract_z
 _atom_site_occupancy
  Na  Na0  1  0.63638226  0.01369424  0.24872704  1
  Na  Na1  1  0.36997613  0.35396538  0.24936417  1
  Na  Na2  1  0.99109619  0.62969896  0.24383428  1
  Na  Na3  1  0.63860277  0.62969896  0.74383428  1
  Na  Na4  1  0.98398924  0.35396538  0.74936417  1
  Na  Na5  1  0.37731199  0.01369424  0.74872704  1
  Na  Na6  1  0.31242983  0.34949318  0.58281919  1
  Na  Na7  1  0.03268312  0.69256512  0.58021595  1
  Na  Na8  1  0.65100826  0.95228799  0.57890089  1
  Na  Na9  1  0.30128073  0.95228799  0.07890089  1
  Na  Na10  1  0.65988300  0.69256512  0.08021595  1
  Na  Na11  1  0.03706434  0.34949318  0.08281919  1
  Na  Na12  1  0.98014189  0.68413937  0.91743587  1
  Na  Na13  1  0.70176135  0.02747525  0.91090749  1
  Na  Na14  1  0.32024859  0.28854760  0.91367397  1
  Na  Na15  1  0.96829802  0.28854760  0.41367397  1
  Na  Na16  1  0.32571289  0.02747525  0.41090749  1
  Na  Na17  1  0.70399648  0.68413937  0.41743587  1
  Na  Na18  1  0.99178466  0.99565814  0.49441075  1
  Na  Na19  1  0.00387348  0.99565814  0.99441075  1
  Na  Na20  1  0.66378841  0.32466026  0.82788622  1
  Na  Na21  1  0.66087285  0.32466026  0.32788622  1
  Na  Na22  1  0.32579971  0.66789619  0.16134808  1
  Na  Na23  1  0.34209548  0.66789619  0.66134808  1
  Hf  Hf24  1  0.99342899  0.99581863  0.64898805  1
  Hf  Hf25  1  0.00238964  0.99581863  0.14898805  1
  Hf  Hf26  1  0.66717697  0.33383918  0.98241465  1
  Hf  Hf27  1  0.66666321  0.33383918  0.48241465  1
  Hf  Hf28  1  0.33567458  0.67342858  0.31571086  1
  Hf  Hf29  1  0.33775301  0.67342858  0.81571086  1
  Mg  Mg30  1  0.00086194  0.00114886  0.34974225  1
  Mg  Mg31  1  0.00028691  0.00114886  0.84974225  1
  Mg  Mg32  1  0.66499870  0.33183784  0.68322607  1
  Mg  Mg33  1  0.66684014  0.33183784  0.18322607  1
  Mg  Mg34  1  0.32734444  0.66889685  0.01655512  1
  Mg  Mg35  1  0.34155142  0.66889685  0.51655512  1
  Si  Si36  1  0.29920319  0.00418027  0.25299783  1
  Si  Si37  1  0.70497708  0.00418027  0.75299783  1
  Si  Si38  1  0.66326591  0.62653885  0.58602112  1
  Si  Si39  1  0.96327394  0.62653885  0.08602112  1
  Si  Si40  1  0.32998437  0.96457095  0.91909870  1
  Si  Si41  1  0.63458558  0.96457095  0.41909870  1
  P  P42  1  0.70613934  0.70460257  0.25219937  1
  P  P43  1  0.99918656  0.29277374  0.25162126  1
  P  P44  1  0.29358718  0.29277374  0.75162126  1
  P  P45  1  0.99846322  0.70460257  0.75219937  1
  P  P46  1  0.96226732  0.33589235  0.58525870  1
  P  P47  1  0.37212317  0.03854679  0.58537947  1
  P  P48  1  0.66642463  0.03854679  0.08537947  1
  P  P49  1  0.37362604  0.33589235  0.08525870  1
  P  P50  1  0.62647636  0.66683137  0.91907721  1
  P  P51  1  0.04122314  0.37215895  0.91853778  1
  P  P52  1  0.33093480  0.37215895  0.41853778  1
  P  P53  1  0.04035401  0.66683137  0.41907721  1
  O  O54  1  0.21064175  0.03133853  0.31094254  1
  O  O55  1  0.81460713  0.78902500  0.30712982  1
  O  O56  1  0.97297098  0.18350747  0.30682584  1
  O  O57  1  0.21053648  0.18350747  0.80682584  1
  O  O58  1  0.97441787  0.78902500  0.80712982  1
  O  O59  1  0.82069677  0.03133853  0.81094254  1
  O  O60  1  0.79329884  0.96814773  0.69294114  1
  O  O61  1  0.18066940  0.20894161  0.69443228  1
  O  O62  1  0.03416681  0.82135153  0.69505098  1
  O  O63  1  0.78718471  0.82135153  0.19505098  1
  O  O64  1  0.02827220  0.20894161  0.19443228  1
  O  O65  1  0.17484889  0.96814773  0.19294114  1
  O  O66  1  0.87890293  0.35976824  0.64056630  1
  O  O67  1  0.48232966  0.11940119  0.64021307  1
  O  O68  1  0.63876296  0.51167895  0.64401178  1
  O  O69  1  0.87291699  0.51167895  0.14401178  1
  O  O70  1  0.63707252  0.11940119  0.14021307  1
  O  O71  1  0.48086631  0.35976824  0.14056630  1
  O  O72  1  0.45508509  0.30075279  0.02838120  1
  O  O73  1  0.84090448  0.54089768  0.02565107  1
  O  O74  1  0.69559813  0.15340503  0.02834576  1
  O  O75  1  0.45780790  0.15340503  0.52834576  1
  O  O76  1  0.69999420  0.54089768  0.52565107  1
  O  O77  1  0.84566871  0.30075279  0.52838120  1
  O  O78  1  0.54109647  0.68927623  0.97445653  1
  O  O79  1  0.15104814  0.45474690  0.97366638  1
  O  O80  1  0.30229119  0.84802534  0.97690145  1
  O  O81  1  0.54573315  0.84802534  0.47690145  1
  O  O82  1  0.30369776  0.45474690  0.47366638  1
  O  O83  1  0.14817876  0.68927623  0.47445653  1
  O  O84  1  0.12336639  0.63418552  0.36210689  1
  O  O85  1  0.50935563  0.87549030  0.35909621  1
  O  O86  1  0.36253794  0.48597661  0.36135394  1
  O  O87  1  0.12343767  0.48597661  0.86135394  1
  O  O88  1  0.36613367  0.87549030  0.85909621  1
  O  O89  1  0.51081813  0.63418552  0.86210689  1
  O  O90  1  0.01731441  0.82140621  0.41159124  1
  O  O91  1  0.82263456  0.98781797  0.41125432  1
  O  O92  1  0.17797871  0.19333231  0.41205326  1
  O  O93  1  0.01535360  0.19333231  0.91205326  1
  O  O94  1  0.16518341  0.98781797  0.91125432  1
  O  O95  1  0.80409180  0.82140621  0.91159124  1
  O  O96  1  0.98139511  0.17341288  0.58902486  1
  O  O97  1  0.19533379  0.02988546  0.58888293  1
  O  O98  1  0.84230229  0.81705933  0.58770320  1
  O  O99  1  0.97475704  0.81705933  0.08770320  1
  O  O100  1  0.83455167  0.02988546  0.08888293  1
  O  O101  1  0.19201777  0.17341288  0.08902486  1
  O  O102  1  0.67867511  0.16681592  0.74500843  1
  O  O103  1  0.47247790  0.31720478  0.74522590  1
  O  O104  1  0.84348402  0.52735893  0.74462374  1
  O  O105  1  0.68387590  0.52735893  0.24462374  1
  O  O106  1  0.84472787  0.31720478  0.24522590  1
  O  O107  1  0.48814181  0.16681592  0.24500843  1
  O  O108  1  0.64063523  0.50160956  0.92196654  1
  O  O109  1  0.86222334  0.36002245  0.92274091  1
  O  O110  1  0.50718137  0.15407987  0.92112992  1
  O  O111  1  0.64689950  0.15407987  0.42112992  1
  O  O112  1  0.49780010  0.36002245  0.42274091  1
  O  O113  1  0.86097532  0.50160956  0.42196654  1
  O  O114  1  0.35386671  0.49269587  0.07658024  1
  O  O115  1  0.15220842  0.65024632  0.08027507  1
  O  O116  1  0.51554521  0.85812124  0.07782134  1
  O  O117  1  0.34257503  0.85812124  0.57782134  1
  O  O118  1  0.49803690  0.65024632  0.58027507  1
  O  O119  1  0.13882816  0.49269587  0.57658024  1
  O  O120  1  0.30824860  0.82433753  0.25426407  1
  O  O121  1  0.52478331  0.68681691  0.25579071  1
  O  O122  1  0.16580404  0.47071235  0.25563785  1
  O  O123  1  0.30490731  0.47071235  0.75563785  1
  O  O124  1  0.16203260  0.68681691  0.75579071  1
  O  O125  1  0.51608792  0.82433753  0.75426407  1
