# generated using pymatgen
data_MgAl2(CoO3)2
_symmetry_space_group_name_H-M   'P 1'
_cell_length_a   5.10519409
_cell_length_b   5.61275427
_cell_length_c   5.09477054
_cell_angle_alpha   90.11070675
_cell_angle_beta   60.01096554
_cell_angle_gamma   117.08907961
_symmetry_Int_Tables_number   1
_chemical_formula_structural   MgAl2(CoO3)2
_chemical_formula_sum   'Mg1 Al2 Co2 O6'
_cell_volume   107.64220548
_cell_formula_units_Z   1
loop_
 _symmetry_equiv_pos_site_id
 _symmetry_equiv_pos_as_xyz
  1  'x, y, z'
loop_
 _atom_site_type_symbol
 _atom_site_label
 _atom_site_symmetry_multiplicity
 _atom_site_fract_x
 _atom_site_fract_y
 _atom_site_fract_z
 _atom_site_occupancy
  Mg  Mg0  1  0.41591003  0.62317189  0.79115247  1
  Al  Al1  1  0.03297420  0.04706967  0.98273701  1
  Al  Al2  1  0.67269088  0.50913557  0.16175437  1
  Co  Co3  1  0.32368514  0.97795935  0.33558630  1
  Co  Co4  1  0.94951564  0.42505240  0.52444733  1
  O  O5  1  0.86014970  0.76794914  0.78027828  1
  O  O6  1  0.86262659  0.28398646  0.94451700  1
  O  O7  1  0.55087398  0.76815761  0.35722150  1
  O  O8  1  0.47532163  0.28221320  0.57651110  1
  O  O9  1  0.12631422  0.76869102  0.09209431  1
  O  O10  1  0.22994000  0.28411170  0.19119934  1
