# generated using pymatgen
data_Na8NbIn3Si5SO24
_symmetry_space_group_name_H-M   'P 1'
_cell_length_a   9.29737874
_cell_length_b   9.28463230
_cell_length_c   22.68739905
_cell_angle_alpha   89.82334693
_cell_angle_beta   90.16243933
_cell_angle_gamma   120.02246249
_symmetry_Int_Tables_number   1
_chemical_formula_structural   Na8NbIn3Si5SO24
_chemical_formula_sum   'Na24 Nb3 In9 Si15 S3 O72'
_cell_volume   1695.66353012
_cell_formula_units_Z   3
loop_
 _symmetry_equiv_pos_site_id
 _symmetry_equiv_pos_as_xyz
  1  'x, y, z'
loop_
 _atom_site_type_symbol
 _atom_site_label
 _atom_site_symmetry_multiplicity
 _atom_site_fract_x
 _atom_site_fract_y
 _atom_site_fract_z
 _atom_site_occupancy
  Na  Na0  1  0.61734073  0.99847067  0.25153847  1
  Na  Na1  1  0.36729589  0.35740128  0.25448906  1
  Na  Na2  1  0.01215129  0.64299707  0.24900667  1
  Na  Na3  1  0.63820462  0.62172732  0.74641002  1
  Na  Na4  1  0.99929487  0.36641309  0.73939518  1
  Na  Na5  1  0.35717104  0.00676341  0.74324783  1
  Na  Na6  1  0.29717055  0.34050683  0.58143886  1
  Na  Na7  1  0.04228308  0.70401396  0.58173232  1
  Na  Na8  1  0.66269778  0.95918153  0.57812687  1
  Na  Na9  1  0.29712990  0.95559194  0.08256973  1
  Na  Na10  1  0.65899299  0.70147228  0.07896018  1
  Na  Na11  1  0.04224451  0.33947141  0.07924164  1
  Na  Na12  1  0.96930130  0.67710544  0.91529271  1
  Na  Na13  1  0.70266835  0.02540962  0.91916615  1
  Na  Na14  1  0.32318066  0.29333015  0.91445291  1
  Na  Na15  1  0.97594519  0.30311545  0.42165208  1
  Na  Na16  1  0.32900059  0.02809841  0.41823309  1
  Na  Na17  1  0.69789388  0.67358743  0.42175347  1
  Na  Na18  1  0.00098471  0.00090345  0.50149883  1
  Na  Na19  1  0.00051549  0.99833371  0.99929758  1
  Na  Na20  1  0.66498590  0.34292994  0.83074808  1
  Na  Na21  1  0.65548615  0.32330183  0.33864857  1
  Na  Na22  1  0.33209566  0.67624788  0.16062072  1
  Na  Na23  1  0.32797874  0.66189824  0.65615907  1
  Nb  Nb24  1  0.66552163  0.33221724  0.98142020  1
  Nb  Nb25  1  0.66748992  0.33474067  0.48312787  1
  Nb  Nb26  1  0.32144844  0.65634275  0.81807779  1
  In  In27  1  0.01129229  0.00270922  0.35416721  1
  In  In28  1  0.00787592  0.99692590  0.85040768  1
  In  In29  1  0.01466565  0.00444938  0.64500074  1
  In  In30  1  0.00891393  0.99671636  0.14270468  1
  In  In31  1  0.66591145  0.34185933  0.67976224  1
  In  In32  1  0.65482062  0.32360880  0.17794525  1
  In  In33  1  0.33279918  0.66563962  0.01666509  1
  In  In34  1  0.33470642  0.66914391  0.51555258  1
  In  In35  1  0.33078257  0.67726899  0.32647025  1
  Si  Si36  1  0.29912824  0.99876213  0.24934550  1
  Si  Si37  1  0.29726420  0.29853057  0.75099269  1
  Si  Si38  1  -0.00009300  0.70163007  0.75082094  1
  Si  Si39  1  0.96061264  0.33275083  0.58542903  1
  Si  Si40  1  0.37661020  0.03926514  0.58485066  1
  Si  Si41  1  0.66594933  0.63175350  0.58418595  1
  Si  Si42  1  0.95725099  0.62178668  0.08525042  1
  Si  Si43  1  0.66770198  0.03710488  0.08430997  1
  Si  Si44  1  0.37315910  0.33739109  0.08342423  1
  Si  Si45  1  0.62754064  0.66687009  0.91764105  1
  Si  Si46  1  0.03305284  0.36721885  0.91916046  1
  Si  Si47  1  0.33664296  0.96083488  0.91812921  1
  Si  Si48  1  0.63536178  0.96958614  0.41623376  1
  Si  Si49  1  0.33739395  0.37483951  0.41604511  1
  Si  Si50  1  0.03090608  0.66151496  0.41692942  1
  S  S51  1  0.70380399  0.70484933  0.24921011  1
  S  S52  1  0.00009260  0.29567654  0.24910949  1
  S  S53  1  0.70013748  0.99468924  0.75124924  1
  O  O54  1  0.21601581  0.03563279  0.30665689  1
  O  O55  1  0.80503134  0.78643322  0.30266011  1
  O  O56  1  0.97312390  0.19083127  0.30228101  1
  O  O57  1  0.21754570  0.18963506  0.81068791  1
  O  O58  1  0.95962718  0.77622351  0.80950100  1
  O  O59  1  0.80258322  0.02089756  0.80517296  1
  O  O60  1  0.77578106  0.96762745  0.69852890  1
  O  O61  1  0.17449085  0.22672940  0.69374582  1
  O  O62  1  0.04581470  0.82299982  0.69334000  1
  O  O63  1  0.78170303  0.80901983  0.19558816  1
  O  O64  1  0.01884982  0.21407512  0.19531419  1
  O  O65  1  0.18091385  0.96228973  0.19055075  1
  O  O66  1  0.88296345  0.36301749  0.64531139  1
  O  O67  1  0.48490731  0.11435715  0.64513358  1
  O  O68  1  0.62872621  0.52467721  0.64482422  1
  O  O69  1  0.87911974  0.51268912  0.14522394  1
  O  O70  1  0.63332679  0.10933505  0.14449541  1
  O  O71  1  0.48160036  0.37553987  0.14364501  1
  O  O72  1  0.47792270  0.31181419  0.02680321  1
  O  O73  1  0.83205097  0.51774410  0.02733204  1
  O  O74  1  0.69151184  0.16495738  0.02666417  1
  O  O75  1  0.48047561  0.16468530  0.52782154  1
  O  O76  1  0.68860686  0.52644412  0.52776221  1
  O  O77  1  0.83591514  0.31336685  0.52809719  1
  O  O78  1  0.55335931  0.70360994  0.97600564  1
  O  O79  1  0.15014641  0.44309637  0.97585488  1
  O  O80  1  0.29859187  0.84765100  0.97612994  1
  O  O81  1  0.55697944  0.84883719  0.47280075  1
  O  O82  1  0.29963831  0.45438528  0.47297479  1
  O  O83  1  0.15382095  0.70449407  0.47274371  1
  O  O84  1  0.09514349  0.61303672  0.35644155  1
  O  O85  1  0.52266731  0.90337983  0.35583547  1
  O  O86  1  0.37811979  0.48888609  0.35536751  1
  O  O87  1  0.13316628  0.49737555  0.86162738  1
  O  O88  1  0.36497648  0.86263934  0.86066714  1
  O  O89  1  0.49851411  0.63693432  0.86070936  1
  O  O90  1  0.00135246  0.82075687  0.41195065  1
  O  O91  1  0.82203596  0.99506918  0.40839698  1
  O  O92  1  0.17376130  0.18818134  0.41264536  1
  O  O93  1  0.00307610  0.18142900  0.90872917  1
  O  O94  1  0.17690919  0.98778880  0.91279140  1
  O  O95  1  0.81165267  0.82916069  0.90954624  1
  O  O96  1  0.96329565  0.15736381  0.58467400  1
  O  O97  1  0.19917613  0.03641932  0.58188511  1
  O  O98  1  0.83970986  0.81091379  0.58489439  1
  O  O99  1  0.95908784  0.79938138  0.08252227  1
  O  O100  1  0.84220414  0.03229068  0.08547951  1
  O  O101  1  0.19414940  0.16386761  0.08204029  1
  O  O102  1  0.67959593  0.14385157  0.74752271  1
  O  O103  1  0.48262513  0.31720941  0.74757529  1
  O  O104  1  0.84215298  0.51027179  0.74759134  1
  O  O105  1  0.69361619  0.53880106  0.24614811  1
  O  O106  1  0.85158747  0.31781748  0.24614997  1
  O  O107  1  0.48693211  0.17009398  0.24713296  1
  O  O108  1  0.63772064  0.49210400  0.92205580  1
  O  O109  1  0.85336156  0.36411810  0.92203586  1
  O  O110  1  0.51108976  0.14527826  0.92210907  1
  O  O111  1  0.65074636  0.15546912  0.42530865  1
  O  O112  1  0.50597128  0.35513350  0.42394471  1
  O  O113  1  0.84500763  0.49248437  0.42546528  1
  O  O114  1  0.35292504  0.50026181  0.07817660  1
  O  O115  1  0.14071098  0.64238581  0.07970926  1
  O  O116  1  0.50344465  0.85476976  0.07839772  1
  O  O117  1  0.35636188  0.85556507  0.57904985  1
  O  O118  1  0.50108652  0.64902710  0.57791573  1
  O  O119  1  0.14325064  0.49796226  0.57914752  1
  O  O120  1  0.31508174  0.82760563  0.25379675  1
  O  O121  1  0.53394128  0.68313800  0.25278194  1
  O  O122  1  0.15534361  0.46124388  0.25304841  1
  O  O123  1  0.31940309  0.49120696  0.76012850  1
  O  O124  1  0.17603399  0.68987709  0.76045377  1
  O  O125  1  0.53110975  0.84140429  0.75720018  1
