# generated using pymatgen
data_Na2TaAlSi(PO6)2
_symmetry_space_group_name_H-M   'P 1'
_cell_length_a   8.72158873
_cell_length_b   8.72158845
_cell_length_c   22.19213122
_cell_angle_alpha   89.69691774
_cell_angle_beta   90.30308227
_cell_angle_gamma   119.78994389
_symmetry_Int_Tables_number   1
_chemical_formula_structural   Na2TaAlSi(PO6)2
_chemical_formula_sum   'Na12 Ta6 Al6 Si6 P12 O72'
_cell_volume   1464.96782768
_cell_formula_units_Z   6
loop_
 _symmetry_equiv_pos_site_id
 _symmetry_equiv_pos_as_xyz
  1  'x, y, z'
loop_
 _atom_site_type_symbol
 _atom_site_label
 _atom_site_symmetry_multiplicity
 _atom_site_fract_x
 _atom_site_fract_y
 _atom_site_fract_z
 _atom_site_occupancy
  Na  Na0  1  0.99320573  0.62910998  0.24713565  1
  Na  Na1  1  0.37089002  0.00679427  0.74713565  1
  Na  Na2  1  0.65997870  0.96575057  0.58316777  1
  Na  Na3  1  0.03424943  0.34002130  0.08316777  1
  Na  Na4  1  0.97411141  0.67337478  0.91660837  1
  Na  Na5  1  0.32662522  0.02588859  0.41660837  1
  Na  Na6  1  0.00103716  0.99703353  0.49500984  1
  Na  Na7  1  0.00296647  0.99896284  0.99500984  1
  Na  Na8  1  0.66800435  0.32979845  0.82833327  1
  Na  Na9  1  0.67020155  0.33199565  0.32833327  1
  Na  Na10  1  0.34616243  0.67442544  0.16154117  1
  Na  Na11  1  0.32557456  0.65383757  0.66154117  1
  Ta  Ta12  1  0.00239046  0.99980762  0.64569098  1
  Ta  Ta13  1  0.00019238  0.99760954  0.14569098  1
  Ta  Ta14  1  0.66177843  0.33029502  0.97880714  1
  Ta  Ta15  1  0.66970498  0.33822157  0.47880714  1
  Ta  Ta16  1  0.32895333  0.66012634  0.31195378  1
  Ta  Ta17  1  0.33987366  0.67104667  0.81195378  1
  Al  Al18  1  0.99179068  0.99768381  0.35349569  1
  Al  Al19  1  0.00231619  0.00820932  0.85349569  1
  Al  Al20  1  0.66953961  0.32954415  0.68601229  1
  Al  Al21  1  0.67045585  0.33046039  0.18601229  1
  Al  Al22  1  0.33085602  0.67458397  0.01967935  1
  Al  Al23  1  0.32541603  0.66914398  0.51967935  1
  Si  Si24  1  0.98733935  0.27772907  0.25216314  1
  Si  Si25  1  0.72227093  0.01266065  0.75216314  1
  Si  Si26  1  0.37874823  0.03919052  0.58466938  1
  Si  Si27  1  0.96080948  0.62125177  0.08466938  1
  Si  Si28  1  0.32527362  0.95513244  0.91772990  1
  Si  Si29  1  0.04486756  0.67472638  0.41772990  1
  P  P30  1  0.29742178  0.01363991  0.25248703  1
  P  P31  1  0.71357231  0.70990262  0.25179795  1
  P  P32  1  0.29009738  0.28642769  0.75179795  1
  P  P33  1  0.98636009  0.70257822  0.75248703  1
  P  P34  1  0.96144052  0.34525755  0.58549407  1
  P  P35  1  0.65800247  0.61305007  0.58606166  1
  P  P36  1  0.65474245  0.03855948  0.08549407  1
  P  P37  1  0.38694993  0.34199753  0.08606166  1
  P  P38  1  0.62160041  0.67500209  0.91994939  1
  P  P39  1  0.05117794  0.37290840  0.91895093  1
  P  P40  1  0.62709160  0.94882206  0.41895093  1
  P  P41  1  0.32499791  0.37839959  0.41994939  1
  O  O42  1  0.20925427  0.03137243  0.30901357  1
  O  O43  1  0.83453479  0.79524298  0.30582495  1
  O  O44  1  0.97072819  0.15886217  0.30892654  1
  O  O45  1  0.20475702  0.16546521  0.80582495  1
  O  O46  1  0.96862757  0.79074573  0.80901357  1
  O  O47  1  0.84113783  0.02927181  0.80892654  1
  O  O48  1  0.79938934  0.97163331  0.68971800  1
  O  O49  1  0.17173312  0.19985833  0.69436890  1
  O  O50  1  0.03286725  0.83091787  0.69649640  1
  O  O51  1  0.80014167  0.82826688  0.19436890  1
  O  O52  1  0.02836669  0.20061066  0.18971800  1
  O  O53  1  0.16908213  0.96713275  0.19649640  1
  O  O54  1  0.87169131  0.36756727  0.64038212  1
  O  O55  1  0.50267954  0.13377217  0.64271586  1
  O  O56  1  0.63898598  0.50126636  0.64066202  1
  O  O57  1  0.86622783  0.49732046  0.14271586  1
  O  O58  1  0.63243273  0.12830869  0.14038212  1
  O  O59  1  0.49873364  0.36101402  0.14066202  1
  O  O60  1  0.46560691  0.30320457  0.02829153  1
  O  O61  1  0.83759838  0.53312154  0.02352780  1
  O  O62  1  0.69643211  0.16207076  0.02869080  1
  O  O63  1  0.46687846  0.16240162  0.52352780  1
  O  O64  1  0.69679543  0.53439309  0.52829153  1
  O  O65  1  0.83792924  0.30356789  0.52869080  1
  O  O66  1  0.52775313  0.69287992  0.97425165  1
  O  O67  1  0.15835771  0.45828756  0.97608031  1
  O  O68  1  0.29193473  0.82428727  0.97335717  1
  O  O69  1  0.54171244  0.84164229  0.47608031  1
  O  O70  1  0.30712008  0.47224687  0.47425165  1
  O  O71  1  0.17571273  0.70806527  0.47335717  1
  O  O72  1  0.13274710  0.63840942  0.35634098  1
  O  O73  1  0.50280868  0.86630656  0.36303816  1
  O  O74  1  0.36295409  0.49499378  0.36171098  1
  O  O75  1  0.13369344  0.49719132  0.86303816  1
  O  O76  1  0.36159058  0.86725290  0.85634098  1
  O  O77  1  0.50500622  0.63704591  0.86171098  1
  O  O78  1  0.02825462  0.84954935  0.40677634  1
  O  O79  1  0.81028956  0.97364116  0.40971300  1
  O  O80  1  0.16866414  0.19221578  0.41108268  1
  O  O81  1  0.02635884  0.18971044  0.90971300  1
  O  O82  1  0.15045065  0.97174538  0.90677634  1
  O  O83  1  0.80778422  0.83133586  0.91108268  1
  O  O84  1  0.96975676  0.16831467  0.58979563  1
  O  O85  1  0.18190420  0.02112658  0.58939530  1
  O  O86  1  0.82665563  0.80406184  0.59032963  1
  O  O87  1  0.97887342  0.81809580  0.08939530  1
  O  O88  1  0.83168533  0.03024324  0.08979563  1
  O  O89  1  0.19593816  0.17334437  0.09032963  1
  O  O90  1  0.68528840  0.17617368  0.74354637  1
  O  O91  1  0.47372000  0.30870578  0.74199649  1
  O  O92  1  0.82672890  0.52283435  0.74093762  1
  O  O93  1  0.69129422  0.52628000  0.24199649  1
  O  O94  1  0.82382632  0.31471160  0.24354637  1
  O  O95  1  0.47716565  0.17327110  0.24093762  1
  O  O96  1  0.64283517  0.50502342  0.92339344  1
  O  O97  1  0.86430513  0.36233331  0.92347757  1
  O  O98  1  0.50492855  0.14976185  0.92263833  1
  O  O99  1  0.63766669  0.13569487  0.42347757  1
  O  O100  1  0.49497658  0.35716483  0.42339344  1
  O  O101  1  0.85023815  0.49507145  0.42263833  1
  O  O102  1  0.35954030  0.50055241  0.07595667  1
  O  O103  1  0.15250162  0.63584778  0.07610487  1
  O  O104  1  0.49942304  0.85467892  0.07518032  1
  O  O105  1  0.36415222  0.84749838  0.57610487  1
  O  O106  1  0.49944759  0.64045970  0.57595667  1
  O  O107  1  0.14532108  0.50057696  0.57518032  1
  O  O108  1  0.31114407  0.83950886  0.25643274  1
  O  O109  1  0.53076014  0.69837145  0.25683072  1
  O  O110  1  0.16952350  0.48126356  0.25627579  1
  O  O111  1  0.30162855  0.46923986  0.75683072  1
  O  O112  1  0.16049114  0.68885593  0.75643274  1
  O  O113  1  0.51873644  0.83047650  0.75627579  1
