# generated using pymatgen
data_Na3LaTiSi(PO6)2
_symmetry_space_group_name_H-M   'P 1'
_cell_length_a   16.23148091
_cell_length_b   9.40687888
_cell_length_c   9.44371915
_cell_angle_alpha   90.00000000
_cell_angle_beta   126.79415518
_cell_angle_gamma   90.00000000
_symmetry_Int_Tables_number   1
_chemical_formula_structural   Na3LaTiSi(PO6)2
_chemical_formula_sum   'Na12 La4 Ti4 Si4 P8 O48'
_cell_volume   1154.69355902
_cell_formula_units_Z   4
loop_
 _symmetry_equiv_pos_site_id
 _symmetry_equiv_pos_as_xyz
  1  'x, y, z'
loop_
 _atom_site_type_symbol
 _atom_site_label
 _atom_site_symmetry_multiplicity
 _atom_site_fract_x
 _atom_site_fract_y
 _atom_site_fract_z
 _atom_site_occupancy
  Na  Na0  1  0.25617243  0.72663115  0.01362481  1
  Na  Na1  1  0.75617243  0.77336885  0.51362481  1
  Na  Na2  1  0.75617243  0.22663115  0.01362481  1
  Na  Na3  1  0.25617243  0.27336885  0.51362481  1
  Na  Na4  1  0.50164644  0.08881704  0.73961816  1
  Na  Na5  1  0.50164644  0.91118296  0.23961816  1
  Na  Na6  1  0.00164644  0.58881704  0.73961816  1
  Na  Na7  1  0.00164644  0.41118296  0.23961816  1
  Na  Na8  1  0.19391300  0.92618070  0.31260661  1
  Na  Na9  1  0.19391300  0.07381930  0.81260661  1
  Na  Na10  1  0.69391300  0.42618070  0.31260661  1
  Na  Na11  1  0.69391300  0.57381930  0.81260661  1
  La  La12  1  0.10862036  0.74260627  0.57028042  1
  La  La13  1  0.10862036  0.25739373  0.07028042  1
  La  La14  1  0.60862036  0.24260627  0.57028042  1
  La  La15  1  0.60862036  0.75739373  0.07028042  1
  Ti  Ti16  1  0.90012202  0.76907091  0.92855450  1
  Ti  Ti17  1  0.90012202  0.23092909  0.42855450  1
  Ti  Ti18  1  0.40012202  0.26907091  0.92855450  1
  Ti  Ti19  1  0.40012202  0.73092909  0.42855450  1
  Si  Si20  1  0.65001805  0.87410880  0.74217284  1
  Si  Si21  1  0.65001805  0.12589120  0.24217284  1
  Si  Si22  1  0.15001805  0.37410880  0.74217284  1
  Si  Si23  1  0.15001805  0.62589120  0.24217284  1
  P  P24  1  0.98759605  0.96210205  0.75082029  1
  P  P25  1  0.98759605  0.03789795  0.25082029  1
  P  P26  1  0.48759605  0.46210205  0.75082029  1
  P  P27  1  0.48759605  0.53789795  0.25082029  1
  P  P28  1  0.35554931  0.92813160  0.74977557  1
  P  P29  1  0.35554931  0.07186840  0.24977557  1
  P  P30  1  0.85554931  0.42813160  0.74977557  1
  P  P31  1  0.85554931  0.57186840  0.24977557  1
  O  O32  1  0.15573430  0.54620681  0.75634081  1
  O  O33  1  0.85596391  0.59726158  0.74434897  1
  O  O34  1  0.85596391  0.40273842  0.24434897  1
  O  O35  1  0.15573430  0.45379319  0.25634081  1
  O  O36  1  0.65573430  0.04620681  0.75634081  1
  O  O37  1  0.35596391  0.09726158  0.74434897  1
  O  O38  1  0.35596391  0.90273842  0.24434897  1
  O  O39  1  0.65573430  0.95379319  0.25634081  1
  O  O40  1  0.43090563  0.56877341  0.58855704  1
  O  O41  1  0.55548860  0.53946324  0.92531359  1
  O  O42  1  0.55548860  0.46053676  0.42531359  1
  O  O43  1  0.43090563  0.43122659  0.08855704  1
  O  O44  1  0.93090563  0.06877341  0.58855704  1
  O  O45  1  0.05548860  0.03946324  0.92531359  1
  O  O46  1  0.05548860  0.96053676  0.42531359  1
  O  O47  1  0.93090563  0.93122659  0.08855704  1
  O  O48  1  0.26299672  0.88208866  0.74790536  1
  O  O49  1  0.74930584  0.80046654  0.75989495  1
  O  O50  1  0.74930584  0.19953346  0.25989495  1
  O  O51  1  0.26299672  0.11791134  0.24790536  1
  O  O52  1  0.76299672  0.38208866  0.74790536  1
  O  O53  1  0.24930584  0.30046654  0.75989495  1
  O  O54  1  0.24930584  0.69953346  0.25989495  1
  O  O55  1  0.76299672  0.61791134  0.24790536  1
  O  O56  1  0.35414288  0.87432687  0.59196276  1
  O  O57  1  0.65310344  0.80858259  0.90143775  1
  O  O58  1  0.65310344  0.19141741  0.40143775  1
  O  O59  1  0.35414288  0.12567313  0.09196276  1
  O  O60  1  0.85414288  0.37432687  0.59196276  1
  O  O61  1  0.15310344  0.30858259  0.90143775  1
  O  O62  1  0.15310344  0.69141741  0.40143775  1
  O  O63  1  0.85414288  0.62567313  0.09196276  1
  O  O64  1  0.45408440  0.88213679  0.92859784  1
  O  O65  1  0.53518798  0.80945462  0.55825285  1
  O  O66  1  0.53518798  0.19054538  0.05825285  1
  O  O67  1  0.45408440  0.11786321  0.42859784  1
  O  O68  1  0.95408440  0.38213679  0.92859784  1
  O  O69  1  0.03518798  0.30945462  0.55825285  1
  O  O70  1  0.03518798  0.69054538  0.05825285  1
  O  O71  1  0.95408440  0.61786321  0.42859784  1
  O  O72  1  0.05446048  0.85445144  0.73636546  1
  O  O73  1  0.90498816  0.87526848  0.75356941  1
  O  O74  1  0.90498816  0.12473152  0.25356941  1
  O  O75  1  0.05446048  0.14554856  0.23636546  1
  O  O76  1  0.55446048  0.35445144  0.73636546  1
  O  O77  1  0.40498816  0.37526848  0.75356941  1
  O  O78  1  0.40498816  0.62473152  0.25356941  1
  O  O79  1  0.55446048  0.64554856  0.23636546  1
