# generated using pymatgen
data_Na5NiO4
_symmetry_space_group_name_H-M   'P 1'
_cell_length_a   5.88487316
_cell_length_b   10.15181451
_cell_length_c   17.78573241
_cell_angle_alpha   90.00000000
_cell_angle_beta   90.00000000
_cell_angle_gamma   90.00000000
_symmetry_Int_Tables_number   1
_chemical_formula_structural   Na5NiO4
_chemical_formula_sum   'Na40 Ni8 O32'
_cell_volume   1062.55772872
_cell_formula_units_Z   8
loop_
 _symmetry_equiv_pos_site_id
 _symmetry_equiv_pos_as_xyz
  1  'x, y, z'
loop_
 _atom_site_type_symbol
 _atom_site_label
 _atom_site_symmetry_multiplicity
 _atom_site_fract_x
 _atom_site_fract_y
 _atom_site_fract_z
 _atom_site_occupancy
  Na  Na0  1  0.10525297  0.41803596  0.75128936  1
  Na  Na1  1  0.42680693  0.29623437  0.63846365  1
  Na  Na2  1  0.57319307  0.20376563  0.13846365  1
  Na  Na3  1  0.07319307  0.79623437  0.36153635  1
  Na  Na4  1  0.07319307  0.29623437  0.13846365  1
  Na  Na5  1  0.57319307  0.70376563  0.36153635  1
  Na  Na6  1  0.42680693  0.79623437  0.86153635  1
  Na  Na7  1  0.92680693  0.20376563  0.63846365  1
  Na  Na8  1  0.89715422  0.82934080  0.17093714  1
  Na  Na9  1  0.39715422  0.17065920  0.32906286  1
  Na  Na10  1  0.60284578  0.32934080  0.82906286  1
  Na  Na11  1  0.10284578  0.67065920  0.67093714  1
  Na  Na12  1  0.10284578  0.17065920  0.82906286  1
  Na  Na13  1  0.60284578  0.82934080  0.67093714  1
  Na  Na14  1  0.39715422  0.67065920  0.17093714  1
  Na  Na15  1  0.89715422  0.32934080  0.32906286  1
  Na  Na16  1  0.91619654  0.15820857  0.00109926  1
  Na  Na17  1  0.41619654  0.84179143  0.49890074  1
  Na  Na18  1  0.58380346  0.65820857  0.99890074  1
  Na  Na19  1  0.08380346  0.34179143  0.50109926  1
  Na  Na20  1  0.08380346  0.84179143  0.99890074  1
  Na  Na21  1  0.58380346  0.15820857  0.50109926  1
  Na  Na22  1  0.41619654  0.34179143  0.00109926  1
  Na  Na23  1  0.91619654  0.65820857  0.49890074  1
  Na  Na24  1  0.92305715  0.94014806  0.56557432  1
  Na  Na25  1  0.39474703  0.91803596  0.24871064  1
  Na  Na26  1  0.60525297  0.58196404  0.74871064  1
  Na  Na27  1  0.92680693  0.70376563  0.86153635  1
  Na  Na28  1  0.10525297  0.91803596  0.74871064  1
  Na  Na29  1  0.60525297  0.08196404  0.75128936  1
  Na  Na30  1  0.39474703  0.41803596  0.25128936  1
  Na  Na31  1  0.89474703  0.58196404  0.24871064  1
  Na  Na32  1  0.92305715  0.44014806  0.93442568  1
  Na  Na33  1  0.42305715  0.55985194  0.56557432  1
  Na  Na34  1  0.57694285  0.94014806  0.06557432  1
  Na  Na35  1  0.07694285  0.05985194  0.43442568  1
  Na  Na36  1  0.07694285  0.55985194  0.06557432  1
  Na  Na37  1  0.57694285  0.44014806  0.43442568  1
  Na  Na38  1  0.42305715  0.05985194  0.93442568  1
  Na  Na39  1  0.89474703  0.08196404  0.25128936  1
  Ni  Ni40  1  0.82413633  0.46031661  0.62422533  1
  Ni  Ni41  1  0.32413633  0.53968339  0.87577467  1
  Ni  Ni42  1  0.67586367  0.96031661  0.37577467  1
  Ni  Ni43  1  0.17586367  0.03968339  0.12422533  1
  Ni  Ni44  1  0.17586367  0.53968339  0.37577467  1
  Ni  Ni45  1  0.67586367  0.46031661  0.12422533  1
  Ni  Ni46  1  0.32413633  0.03968339  0.62422533  1
  Ni  Ni47  1  0.82413633  0.96031661  0.87577467  1
  O  O48  1  0.86125417  0.04914564  0.12052573  1
  O  O49  1  0.36125417  0.95085436  0.37947427  1
  O  O50  1  0.63874583  0.54914564  0.87947427  1
  O  O51  1  0.13874583  0.45085436  0.62052573  1
  O  O52  1  0.13874583  0.95085436  0.87947427  1
  O  O53  1  0.63874583  0.04914564  0.62052573  1
  O  O54  1  0.36125417  0.45085436  0.12052573  1
  O  O55  1  0.86125417  0.54914564  0.37947427  1
  O  O56  1  0.80563955  0.36763528  0.04533084  1
  O  O57  1  0.30563955  0.63236472  0.45466916  1
  O  O58  1  0.69436045  0.86763528  0.95466916  1
  O  O59  1  0.19436045  0.13236472  0.54533084  1
  O  O60  1  0.19436045  0.63236472  0.95466916  1
  O  O61  1  0.69436045  0.36763528  0.54533084  1
  O  O62  1  0.30563955  0.13236472  0.04533084  1
  O  O63  1  0.80563955  0.86763528  0.45466916  1
  O  O64  1  0.73346316  0.37220137  0.71235398  1
  O  O65  1  0.23346316  0.62779863  0.78764602  1
  O  O66  1  0.76653684  0.87220137  0.28764602  1
  O  O67  1  0.26653684  0.12779863  0.21235398  1
  O  O68  1  0.26653684  0.62779863  0.28764602  1
  O  O69  1  0.76653684  0.37220137  0.21235398  1
  O  O70  1  0.23346316  0.12779863  0.71235398  1
  O  O71  1  0.73346316  0.87220137  0.78764602  1
  O  O72  1  0.73834123  0.13798348  0.87468894  1
  O  O73  1  0.23834123  0.86201652  0.62531106  1
  O  O74  1  0.76165877  0.63798348  0.12531106  1
  O  O75  1  0.26165877  0.36201652  0.37468894  1
  O  O76  1  0.26165877  0.86201652  0.12531106  1
  O  O77  1  0.76165877  0.13798348  0.37468894  1
  O  O78  1  0.23834123  0.36201652  0.87468894  1
  O  O79  1  0.73834123  0.63798348  0.62531106  1
