# generated using pymatgen
data_Na6Hf2Zn6SiS11O48
_symmetry_space_group_name_H-M   'P 1'
_cell_length_a   17.68789211
_cell_length_b   8.84959104
_cell_length_c   22.81052119
_cell_angle_alpha   90.22548003
_cell_angle_beta   89.78917051
_cell_angle_gamma   120.10156491
_symmetry_Int_Tables_number   1
_chemical_formula_structural   Na6Hf2Zn6SiS11O48
_chemical_formula_sum   'Na18 Hf6 Zn18 Si3 S33 O144'
_cell_volume   3088.98309866
_cell_formula_units_Z   3
loop_
 _symmetry_equiv_pos_site_id
 _symmetry_equiv_pos_as_xyz
  1  'x, y, z'
loop_
 _atom_site_type_symbol
 _atom_site_label
 _atom_site_symmetry_multiplicity
 _atom_site_fract_x
 _atom_site_fract_y
 _atom_site_fract_z
 _atom_site_occupancy
  Na  Na0  1  0.68647235  0.36417145  0.24566357  1
  Na  Na1  1  0.99657470  0.63299017  0.25279293  1
  Na  Na2  1  0.33453144  0.96504788  0.58759697  1
  Na  Na3  1  0.83524178  0.96569160  0.58759749  1
  Na  Na4  1  0.33409627  0.70035351  0.08262610  1
  Na  Na5  1  0.34707573  0.66519335  0.41545976  1
  Na  Na6  1  0.00423861  0.99853684  0.49766009  1
  Na  Na7  1  0.50667788  0.00884520  0.50053980  1
  Na  Na8  1  0.99986805  0.99930524  0.99898415  1
  Na  Na9  1  0.50604335  0.00930118  0.00256249  1
  Na  Na10  1  0.33364769  0.32763522  0.83768109  1
  Na  Na11  1  0.83319871  0.32763430  0.83778343  1
  Na  Na12  1  0.33045190  0.32533087  0.33125494  1
  Na  Na13  1  0.83636896  0.33678251  0.33421225  1
  Na  Na14  1  0.16793782  0.66892909  0.16628759  1
  Na  Na15  1  0.66786876  0.67162544  0.16007874  1
  Na  Na16  1  0.16771371  0.66766849  0.67214823  1
  Na  Na17  1  0.66847621  0.66827369  0.67253608  1
  Hf  Hf18  1  0.99578070  0.00295607  0.85230864  1
  Hf  Hf19  1  0.49658784  0.00373393  0.85264053  1
  Hf  Hf20  1  0.99489439  0.99501476  0.14819391  1
  Hf  Hf21  1  0.33407257  0.32828495  0.68916557  1
  Hf  Hf22  1  0.83414335  0.32868174  0.68875991  1
  Hf  Hf23  1  0.66995524  0.67295074  0.31455428  1
  Zn  Zn24  1  0.99842433  0.99069015  0.34999963  1
  Zn  Zn25  1  0.49880826  0.00246298  0.34801428  1
  Zn  Zn26  1  0.99739889  0.99718065  0.65462416  1
  Zn  Zn27  1  0.49785326  0.99748594  0.65521337  1
  Zn  Zn28  1  0.50233703  0.00401219  0.14814073  1
  Zn  Zn29  1  0.33403369  0.33472100  0.18161231  1
  Zn  Zn30  1  0.83300246  0.33797206  0.18085529  1
  Zn  Zn31  1  0.33494216  0.32988381  0.98294705  1
  Zn  Zn32  1  0.83062430  0.33052105  0.98329302  1
  Zn  Zn33  1  0.33003483  0.32520587  0.48337464  1
  Zn  Zn34  1  0.83684551  0.34157275  0.48136305  1
  Zn  Zn35  1  0.16318320  0.66971524  0.01374057  1
  Zn  Zn36  1  0.66643420  0.66493742  0.01569448  1
  Zn  Zn37  1  0.16019465  0.65789239  0.51377418  1
  Zn  Zn38  1  0.66448595  0.66045624  0.51661564  1
  Zn  Zn39  1  0.16868470  0.66503930  0.31849147  1
  Zn  Zn40  1  0.17326272  0.68004581  0.81543052  1
  Zn  Zn41  1  0.67396784  0.68073091  0.81592504  1
  Si  Si42  1  0.85473749  0.70413218  0.25199844  1
  Si  Si43  1  0.35011570  0.98822980  0.74721983  1
  Si  Si44  1  0.84983179  0.98871671  0.74708426  1
  S  S45  1  0.14847137  0.00444101  0.25081196  1
  S  S46  1  0.64394918  -0.00047967  0.25014874  1
  S  S47  1  0.35282266  0.70552608  0.25000488  1
  S  S48  1  0.00060438  0.29258279  0.25153464  1
  S  S49  1  0.49674596  0.28782478  0.25055603  1
  S  S50  1  0.14412734  0.29262091  0.74902513  1
  S  S51  1  0.64432956  0.29293493  0.74897125  1
  S  S52  1  0.00213988  0.71151208  0.74903399  1
  S  S53  1  0.50216541  0.71150994  0.74907883  1
  S  S54  1  0.48096957  0.33668741  0.58135847  1
  S  S55  1  0.98090715  0.33586884  0.58148749  1
  S  S56  1  0.18476683  0.04031880  0.58238210  1
  S  S57  1  0.68547096  0.04194239  0.58159303  1
  S  S58  1  0.33343527  0.62592807  0.58109815  1
  S  S59  1  0.83337756  0.62493935  0.58156406  1
  S  S60  1  0.48007186  0.62412000  0.08350320  1
  S  S61  1  0.98083461  0.62342685  0.08281941  1
  S  S62  1  0.33301115  0.04143406  0.08349373  1
  S  S63  1  0.83135445  0.04323689  0.08302351  1
  S  S64  1  0.18845028  0.33492627  0.08273675  1
  S  S65  1  0.68585288  0.33355704  0.08334076  1
  S  S66  1  0.31126409  0.66078499  0.91770315  1
  S  S67  1  0.81075295  0.66074667  0.91742950  1
  S  S68  1  0.02160352  0.38136154  0.91649738  1
  S  S69  1  0.52195641  0.38179293  0.91644087  1
  S  S70  1  0.16814671  0.96066718  0.91708016  1
  S  S71  1  0.66806926  0.95910723  0.91753756  1
  S  S72  1  0.31323791  0.96159165  0.41720269  1
  S  S73  1  0.81445809  0.96296734  0.41952911  1
  S  S74  1  0.16523703  0.37105491  0.41677389  1
  S  S75  1  0.66579184  0.37097569  0.41758475  1
  S  S76  1  0.02024298  0.66707328  0.41660234  1
  S  S77  1  0.51994731  0.66729938  0.41821276  1
  O  O78  1  0.10996890  0.03317508  0.30321970  1
  O  O79  1  0.60578556  0.03157441  0.30338296  1
  O  O80  1  0.40597402  0.78414047  0.30434768  1
  O  O81  1  0.91627087  0.78918542  0.30718961  1
  O  O82  1  0.48537689  0.18600351  0.30394590  1
  O  O83  1  0.98828690  0.18809467  0.30345226  1
  O  O84  1  0.10609130  0.17915188  0.80217194  1
  O  O85  1  0.60603857  0.17917550  0.80207681  1
  O  O86  1  0.48651431  0.79197970  0.80218948  1
  O  O87  1  0.98676075  0.79229484  0.80225041  1
  O  O88  1  0.41550708  0.02887263  0.80451108  1
  O  O89  1  0.91523548  0.02943843  0.80445542  1
  O  O90  1  0.39196085  0.96852516  0.68674014  1
  O  O91  1  0.89200811  0.96865287  0.68691319  1
  O  O92  1  0.09401949  0.21196783  0.69591310  1
  O  O93  1  0.59405755  0.21226543  0.69582125  1
  O  O94  1  0.01602951  0.81505321  0.69617745  1
  O  O95  1  0.51587682  0.81469051  0.69611906  1
  O  O96  1  0.39341105  0.81388412  0.19688441  1
  O  O97  1  0.89791796  0.82686917  0.19334959  1
  O  O98  1  0.01472435  0.20966675  0.19746853  1
  O  O99  1  0.51808754  0.21756004  0.19838148  1
  O  O100  1  0.09051307  0.97459495  0.19751826  1
  O  O101  1  0.59114878  0.96698517  0.19744709  1
  O  O102  1  0.43714195  0.36041249  0.63502402  1
  O  O103  1  0.93691126  0.36023297  0.63517729  1
  O  O104  1  0.24382913  0.12819520  0.63513789  1
  O  O105  1  0.74349079  0.12773054  0.63496804  1
  O  O106  1  0.32151455  0.51565752  0.63367622  1
  O  O107  1  0.82074006  0.51652022  0.63501794  1
  O  O108  1  0.44046780  0.51877653  0.13696324  1
  O  O109  1  0.94345076  0.52477511  0.13782470  1
  O  O110  1  0.31916191  0.11931436  0.13682232  1
  O  O111  1  0.82034618  0.12201775  0.13720253  1
  O  O112  1  0.24199146  0.36560382  0.13601350  1
  O  O113  1  0.73680507  0.36000194  0.13847013  1
  O  O114  1  0.22614375  0.30370342  0.02999575  1
  O  O115  1  0.72716679  0.30530709  0.03154669  1
  O  O116  1  0.42348495  0.54626154  0.03117559  1
  O  O117  1  0.92599552  0.54787578  0.03118758  1
  O  O118  1  0.34700032  0.14660604  0.03066122  1
  O  O119  1  0.84864852  0.15012258  0.03046693  1
  O  O120  1  0.22570258  0.14762402  0.53002989  1
  O  O121  1  0.72687335  0.14930654  0.52948783  1
  O  O122  1  0.34555569  0.54511313  0.52739575  1
  O  O123  1  0.84471237  0.54148436  0.52929022  1
  O  O124  1  0.42394606  0.30427222  0.52995750  1
  O  O125  1  0.92358752  0.30236113  0.53034081  1
  O  O126  1  0.27655191  0.69652400  0.97227445  1
  O  O127  1  0.77540335  0.69825766  0.97039845  1
  O  O128  1  0.07458253  0.45240380  0.97014225  1
  O  O129  1  0.57415249  0.45284217  0.96991272  1
  O  O130  1  0.15112086  0.85430711  0.97049847  1
  O  O131  1  0.65142089  0.85222030  0.97052313  1
  O  O132  1  0.27559399  0.85288992  0.47122656  1
  O  O133  1  0.77293475  0.85425020  0.47201474  1
  O  O134  1  0.15311897  0.45149121  0.47034859  1
  O  O135  1  0.65205421  0.45399844  0.46910464  1
  O  O136  1  0.07452151  0.69250874  0.46912389  1
  O  O137  1  0.57394154  0.69463593  0.46994495  1
  O  O138  1  0.05880157  0.63883344  0.36187443  1
  O  O139  1  0.56219758  0.64198643  0.36461109  1
  O  O140  1  0.25955587  0.88005777  0.36467707  1
  O  O141  1  0.75649777  0.87131220  0.36618624  1
  O  O142  1  0.18371325  0.48500185  0.36447130  1
  O  O143  1  0.67765389  0.48179524  0.36298268  1
  O  O144  1  0.06195791  0.48307890  0.86344106  1
  O  O145  1  0.56174465  0.48285273  0.86312847  1
  O  O146  1  0.18022804  0.88103401  0.86429197  1
  O  O147  1  0.68009771  0.88089499  0.86415569  1
  O  O148  1  0.25881411  0.63672867  0.86566538  1
  O  O149  1  0.75965752  0.63568467  0.86432478  1
  O  O150  1  0.01278104  0.82613660  0.41282670  1
  O  O151  1  0.50907825  0.82304353  0.41088441  1
  O  O152  1  0.40114306  0.97307888  0.41098353  1
  O  O153  1  0.90034650  0.97935181  0.41155208  1
  O  O154  1  0.08768463  0.19654364  0.40991747  1
  O  O155  1  0.58676807  0.19726539  0.40961801  1
  O  O156  1  0.01349730  0.19975088  0.91037893  1
  O  O157  1  0.51332698  0.19977797  0.91020430  1
  O  O158  1  0.08754132  0.97911253  0.90989718  1
  O  O159  1  0.58755567  0.97851939  0.90989710  1
  O  O160  1  0.40212560  0.82349352  0.91026167  1
  O  O161  1  0.90236166  0.82371167  0.91000748  1
  O  O162  1  0.48838124  0.17780442  0.58767688  1
  O  O163  1  0.98849187  0.17747127  0.58814766  1
  O  O164  1  0.09846133  0.02176054  0.59096279  1
  O  O165  1  0.59850480  0.02206844  0.59038806  1
  O  O166  1  0.41239248  0.80234962  0.58626957  1
  O  O167  1  0.91191867  0.80174644  0.58667839  1
  O  O168  1  0.48599853  0.80024425  0.08963724  1
  O  O169  1  0.99115568  0.80551044  0.09020829  1
  O  O170  1  0.41141237  0.01733708  0.08929581  1
  O  O171  1  0.91405848  0.02737432  0.08969422  1
  O  O172  1  0.09899989  0.17672634  0.09067495  1
  O  O173  1  0.59748602  0.17347045  0.08922696  1
  O  O174  1  0.34477021  0.17287107  0.74250316  1
  O  O175  1  0.84458007  0.17318468  0.74239712  1
  O  O176  1  0.23395279  0.31112078  0.74284546  1
  O  O177  1  0.73385590  0.31089236  0.74283849  1
  O  O178  1  0.41870876  0.53611485  0.74281025  1
  O  O179  1  0.91882355  0.53623695  0.74296326  1
  O  O180  1  0.34436546  0.52984700  0.24410339  1
  O  O181  1  0.84075637  0.50782110  0.24347573  1
  O  O182  1  0.42095033  0.31177672  0.24388233  1
  O  O183  1  0.92254144  0.31192275  0.24316019  1
  O  O184  1  0.23614487  0.15803712  0.24189870  1
  O  O185  1  0.73272998  0.15332224  0.24432764  1
  O  O186  1  0.32369422  0.50829680  0.92374703  1
  O  O187  1  0.82391465  0.50899974  0.92363941  1
  O  O188  1  0.43221337  0.35373750  0.92237698  1
  O  O189  1  0.93240057  0.35411624  0.92299746  1
  O  O190  1  0.24577509  0.13780121  0.92349850  1
  O  O191  1  0.74563010  0.13705638  0.92347589  1
  O  O192  1  0.32385476  0.13790946  0.42329775  1
  O  O193  1  0.81882270  0.13409719  0.42213376  1
  O  O194  1  0.24792433  0.36062713  0.42254858  1
  O  O195  1  0.74561844  0.35853928  0.42109575  1
  O  O196  1  0.43110815  0.50960086  0.42200152  1
  O  O197  1  0.93225439  0.50653300  0.42237652  1
  O  O198  1  0.17967062  0.49389843  0.07704952  1
  O  O199  1  0.67736981  0.49211082  0.07737327  1
  O  O200  1  0.06954474  0.64673792  0.07699164  1
  O  O201  1  0.56811947  0.64544397  0.07700273  1
  O  O202  1  0.25483779  0.85996438  0.07786063  1
  O  O203  1  0.75549292  0.86483992  0.07752720  1
  O  O204  1  0.18174199  0.86889067  0.57811089  1
  O  O205  1  0.68144472  0.86901008  0.57783752  1
  O  O206  1  0.25471618  0.64648248  0.57725375  1
  O  O207  1  0.75436935  0.64611593  0.57767210  1
  O  O208  1  0.06738719  0.49545624  0.57772431  1
  O  O209  1  0.56736475  0.49569510  0.57725024  1
  O  O210  1  0.15184823  0.83866947  0.25430440  1
  O  O211  1  0.65256811  0.83910947  0.25874387  1
  O  O212  1  0.26501884  0.68964607  0.25638969  1
  O  O213  1  0.75477681  0.67942123  0.25723218  1
  O  O214  1  0.07932288  0.47238994  0.25446206  1
  O  O215  1  0.57918187  0.46782409  0.25898615  1
  O  O216  1  0.15364708  0.46446848  0.75752892  1
  O  O217  1  0.65353694  0.46448655  0.75745778  1
  O  O218  1  0.07547714  0.68221709  0.75713031  1
  O  O219  1  0.57534917  0.68196660  0.75713233  1
  O  O220  1  0.25412239  0.82339444  0.75511934  1
  O  O221  1  0.75395670  0.82352205  0.75509646  1
