# generated using pymatgen
data_Na7Sc2Ti2Si3(PO8)3
_symmetry_space_group_name_H-M   'P 1'
_cell_length_a   9.02798837
_cell_length_b   9.01408106
_cell_length_c   22.17719485
_cell_angle_alpha   90.06824206
_cell_angle_beta   89.95362343
_cell_angle_gamma   119.99106057
_symmetry_Int_Tables_number   1
_chemical_formula_structural   Na7Sc2Ti2Si3(PO8)3
_chemical_formula_sum   'Na21 Sc6 Ti6 Si9 P9 O72'
_cell_volume   1563.10620214
_cell_formula_units_Z   3
loop_
 _symmetry_equiv_pos_site_id
 _symmetry_equiv_pos_as_xyz
  1  'x, y, z'
loop_
 _atom_site_type_symbol
 _atom_site_label
 _atom_site_symmetry_multiplicity
 _atom_site_fract_x
 _atom_site_fract_y
 _atom_site_fract_z
 _atom_site_occupancy
  Na  Na0  1  0.62996426  0.00174087  0.25191053  1
  Na  Na1  1  0.36948696  0.37151372  0.24879567  1
  Na  Na2  1  0.00041729  0.62398942  0.25018595  1
  Na  Na3  1  0.63264964  0.63362461  0.74887788  1
  Na  Na4  1  0.99359279  0.36505576  0.74881595  1
  Na  Na5  1  0.37225963  0.00081784  0.74702523  1
  Na  Na6  1  0.03074425  0.69625975  0.58405948  1
  Na  Na7  1  0.66098336  0.96661935  0.58277677  1
  Na  Na8  1  0.66830761  0.69299064  0.08351966  1
  Na  Na9  1  0.02778444  0.33590290  0.08494199  1
  Na  Na10  1  0.96138859  0.66464696  0.91937253  1
  Na  Na11  1  0.70133603  0.03307454  0.91689942  1
  Na  Na12  1  0.33896104  0.30226252  0.91838339  1
  Na  Na13  1  0.96995882  0.30650644  0.41628081  1
  Na  Na14  1  0.33592108  0.03330988  0.41685417  1
  Na  Na15  1  0.00163312  0.99877533  0.49996837  1
  Na  Na16  1  0.00800021  0.99505805  0.00209407  1
  Na  Na17  1  0.66699731  0.33336751  0.83326191  1
  Na  Na18  1  0.67145150  0.34351810  0.33655192  1
  Na  Na19  1  0.32735286  0.67042448  0.16545240  1
  Na  Na20  1  0.33380939  0.65867100  0.66284344  1
  Sc  Sc21  1  0.99350864  0.99816467  0.85281923  1
  Sc  Sc22  1  0.66847777  0.32974102  0.68074383  1
  Sc  Sc23  1  0.67206502  0.33704465  0.18264769  1
  Sc  Sc24  1  0.66369966  0.33880776  0.98565494  1
  Sc  Sc25  1  0.32804591  0.66303458  0.31762285  1
  Sc  Sc26  1  0.33937477  0.66836799  0.81363365  1
  Ti  Ti27  1  0.98619249  0.99422007  0.35605227  1
  Ti  Ti28  1  0.00141846  0.00860249  0.64436880  1
  Ti  Ti29  1  0.01328154  0.00687187  0.14597268  1
  Ti  Ti30  1  0.66843260  0.32932701  0.48305689  1
  Ti  Ti31  1  0.33605553  0.66800834  0.02098155  1
  Ti  Ti32  1  0.33009836  0.67141179  0.51674138  1
  Si  Si33  1  0.99947614  0.28743097  0.25052166  1
  Si  Si34  1  0.70794617  0.00202807  0.74888617  1
  Si  Si35  1  0.96719867  0.33652186  0.58283515  1
  Si  Si36  1  0.36964225  0.03895009  0.58257679  1
  Si  Si37  1  0.96966804  0.63642501  0.08360743  1
  Si  Si38  1  0.36869573  0.33286945  0.08345783  1
  Si  Si39  1  0.62599370  0.66444089  0.91709800  1
  Si  Si40  1  0.62520274  0.95924755  0.41678496  1
  Si  Si41  1  0.03335613  0.66574294  0.41653599  1
  P  P42  1  0.28508272  0.00085744  0.25146204  1
  P  P43  1  0.71531777  0.71600888  0.24946674  1
  P  P44  1  0.28829440  0.28792520  0.74947698  1
  P  P45  1  0.99835822  0.70977707  0.74862287  1
  P  P46  1  0.66291202  0.62422346  0.58327222  1
  P  P47  1  0.66539550  0.03381436  0.08374572  1
  P  P48  1  0.04392258  0.37717859  0.91744309  1
  P  P49  1  0.33542293  0.95639140  0.91721079  1
  P  P50  1  0.33725032  0.37565358  0.41688420  1
  O  O51  1  0.19901096  0.02265696  0.30815276  1
  O  O52  1  0.83073106  0.80757974  0.30549065  1
  O  O53  1  0.97952005  0.16529746  0.30942868  1
  O  O54  1  0.21361894  0.18346299  0.80757726  1
  O  O55  1  0.97674897  0.79267119  0.80654833  1
  O  O56  1  0.82282254  0.03181705  0.80921662  1
  O  O57  1  0.81211286  0.97778579  0.69108053  1
  O  O58  1  0.16938678  0.18860127  0.69523793  1
  O  O59  1  0.02383731  0.82402587  0.69293953  1
  O  O60  1  0.80077444  0.82325206  0.19289068  1
  O  O61  1  0.01892130  0.18587648  0.19196779  1
  O  O62  1  0.17037551  0.97725999  0.19560635  1
  O  O63  1  0.89129313  0.37835102  0.64272019  1
  O  O64  1  0.48797260  0.11412642  0.64221151  1
  O  O65  1  0.63806906  0.52580558  0.64238420  1
  O  O66  1  0.88935114  0.51101523  0.14237141  1
  O  O67  1  0.63782714  0.11576223  0.14033406  1
  O  O68  1  0.49057041  0.37576839  0.14246391  1
  O  O69  1  0.44698088  0.29919850  0.02304535  1
  O  O70  1  0.84668758  0.55439341  0.02488637  1
  O  O71  1  0.70043111  0.14735189  0.02782424  1
  O  O72  1  0.46818867  0.16180661  0.52444967  1
  O  O73  1  0.69393239  0.52897709  0.53098126  1
  O  O74  1  0.83383577  0.30012848  0.52622644  1
  O  O75  1  0.52268196  0.68844236  0.97470533  1
  O  O76  1  0.15750142  0.47059396  0.97286632  1
  O  O77  1  0.30995920  0.83625651  0.97073714  1
  O  O78  1  0.53023883  0.83782934  0.47517926  1
  O  O79  1  0.30502620  0.46933923  0.46918077  1
  O  O80  1  0.16588712  0.69898794  0.47336350  1
  O  O81  1  0.11032918  0.62174156  0.35692685  1
  O  O82  1  0.50973056  0.88305103  0.35655207  1
  O  O83  1  0.36340156  0.47594282  0.35773610  1
  O  O84  1  0.12086255  0.48406123  0.85987551  1
  O  O85  1  0.35787750  0.87707886  0.85843484  1
  O  O86  1  0.51080552  0.63500225  0.85686349  1
  O  O87  1  0.03038805  0.84586879  0.41021677  1
  O  O88  1  0.82061170  0.98685534  0.41161668  1
  O  O89  1  0.17165116  0.19429539  0.41271549  1
  O  O90  1  0.03528361  0.20126202  0.91538620  1
  O  O91  1  0.17523150  0.97659979  0.91508198  1
  O  O92  1  0.81443241  0.83837687  0.91701255  1
  O  O93  1  0.97250191  0.15644020  0.58909702  1
  O  O94  1  0.17489641  0.00815374  0.58942189  1
  O  O95  1  0.83022435  0.80509360  0.58692152  1
  O  O96  1  0.97836326  0.82097981  0.09335113  1
  O  O97  1  0.82555067  0.01223103  0.09018474  1
  O  O98  1  0.17282658  0.16884434  0.09091699  1
  O  O99  1  0.68865896  0.17240458  0.74583942  1
  O  O100  1  0.46926851  0.31401135  0.74320386  1
  O  O101  1  0.83504895  0.53232669  0.74523476  1
  O  O102  1  0.69857475  0.53666927  0.24803898  1
  O  O103  1  0.82579004  0.30084522  0.24931314  1
  O  O104  1  0.46298445  0.16271554  0.24603803  1
  O  O105  1  0.64612894  0.49444401  0.91986119  1
  O  O106  1  0.86200774  0.35022729  0.92309032  1
  O  O107  1  0.49876010  0.13296802  0.92233425  1
  O  O108  1  0.64798682  0.15216009  0.42512136  1
  O  O109  1  0.49127701  0.34821152  0.42489953  1
  O  O110  1  0.84729333  0.49559089  0.42805231  1
  O  O111  1  0.34637947  0.50406685  0.07526904  1
  O  O112  1  0.15677987  0.65184422  0.07371149  1
  O  O113  1  0.50774763  0.85175544  0.07710569  1
  O  O114  1  0.35156515  0.84738467  0.57408483  1
  O  O115  1  0.51015811  0.65325861  0.57488665  1
  O  O116  1  0.15377056  0.50521652  0.57188189  1
  O  O117  1  0.30229741  0.83855871  0.25242159  1
  O  O118  1  0.53726232  0.69934179  0.25425006  1
  O  O119  1  0.17304089  0.47486542  0.25103762  1
  O  O120  1  0.29573642  0.46301707  0.75065544  1
  O  O121  1  0.15814303  0.68880329  0.75170594  1
  O  O122  1  0.51992174  0.82776151  0.74919383  1
