# generated using pymatgen
data_Na4LaTa3Si4(PO12)2
_symmetry_space_group_name_H-M   'P 1'
_cell_length_a   9.09167384
_cell_length_b   9.11170232
_cell_length_c   23.02094170
_cell_angle_alpha   89.97131563
_cell_angle_beta   89.96831096
_cell_angle_gamma   119.98663478
_symmetry_Int_Tables_number   1
_chemical_formula_structural   Na4LaTa3Si4(PO12)2
_chemical_formula_sum   'Na12 La3 Ta9 Si12 P6 O72'
_cell_volume   1651.79185035
_cell_formula_units_Z   3
loop_
 _symmetry_equiv_pos_site_id
 _symmetry_equiv_pos_as_xyz
  1  'x, y, z'
loop_
 _atom_site_type_symbol
 _atom_site_label
 _atom_site_symmetry_multiplicity
 _atom_site_fract_x
 _atom_site_fract_y
 _atom_site_fract_z
 _atom_site_occupancy
  Na  Na0  1  0.63168814  0.62448930  0.74772447  1
  Na  Na1  1  0.99455886  0.36965637  0.74818026  1
  Na  Na2  1  0.31593423  0.97466514  0.08349088  1
  Na  Na3  1  0.02619904  0.34386654  0.08344342  1
  Na  Na4  1  0.96342818  0.29263916  0.41489179  1
  Na  Na5  1  0.70595247  0.67766216  0.41726332  1
  Na  Na6  1  0.00452256  0.99411959  0.50275464  1
  Na  Na7  1  0.99114280  0.99091726  0.99598226  1
  Na  Na8  1  0.65255715  0.31830539  0.83439078  1
  Na  Na9  1  0.65659121  0.32330316  0.32620011  1
  Na  Na10  1  0.34436580  0.66463587  0.16555017  1
  Na  Na11  1  0.33366329  0.67052386  0.66641599  1
  La  La12  1  0.00979667  0.99921298  0.35453590  1
  La  La13  1  0.65562068  0.32322011  0.68256835  1
  La  La14  1  0.66792148  0.33776946  0.17656301  1
  Ta  Ta15  1  0.00377393  0.00579846  0.85857627  1
  Ta  Ta16  1  0.99455851  0.00194769  0.64581300  1
  Ta  Ta17  1  0.99564965  0.99675168  0.14596870  1
  Ta  Ta18  1  0.66719248  0.33440090  0.97776756  1
  Ta  Ta19  1  0.67018184  0.33145239  0.48356714  1
  Ta  Ta20  1  0.33656304  0.66695060  0.01355580  1
  Ta  Ta21  1  0.33512819  0.66928167  0.52122829  1
  Ta  Ta22  1  0.33105141  0.67224271  0.31173745  1
  Ta  Ta23  1  0.33594333  0.66969256  0.81529617  1
  Si  Si24  1  0.28068756  0.28892712  0.75314485  1
  Si  Si25  1  0.71226168  0.99152560  0.75393721  1
  Si  Si26  1  0.96922803  0.33287703  0.58434912  1
  Si  Si27  1  0.66991328  0.63586415  0.58338235  1
  Si  Si28  1  0.96692231  0.63236802  0.07922846  1
  Si  Si29  1  0.66313655  0.03086562  0.07981072  1
  Si  Si30  1  0.36827869  0.33753828  0.08038786  1
  Si  Si31  1  0.62467259  0.66360701  0.91490941  1
  Si  Si32  1  0.04011336  0.37802032  0.91540630  1
  Si  Si33  1  0.33642472  0.95908827  0.91614256  1
  Si  Si34  1  0.60842236  0.95965647  0.41802842  1
  Si  Si35  1  0.04186262  0.65528179  0.41936866  1
  P  P36  1  0.29511765  0.98873013  0.24809800  1
  P  P37  1  0.69519617  0.70829805  0.25162061  1
  P  P38  1  0.01273142  0.30445778  0.25113939  1
  P  P39  1  0.01480172  0.72982144  0.75275386  1
  P  P40  1  0.36201182  0.03160820  0.57990273  1
  P  P41  1  0.34785787  0.39575460  0.41895981  1
  O  O42  1  0.21815415  0.00676226  0.30398227  1
  O  O43  1  0.78473142  0.78138980  0.30932095  1
  O  O44  1  0.99437287  0.21314991  0.30867308  1
  O  O45  1  0.17710104  0.17062185  0.80856895  1
  O  O46  1  0.99610971  0.82012098  0.80628647  1
  O  O47  1  0.83050026  -0.00026455  0.80820779  1
  O  O48  1  0.80650631  0.96689614  0.69422665  1
  O  O49  1  0.16274171  0.18872041  0.69469000  1
  O  O50  1  0.03058166  0.83255004  0.69630043  1
  O  O51  1  0.80469871  0.82970577  0.19888587  1
  O  O52  1  0.02610665  0.19954456  0.19736790  1
  O  O53  1  0.17876090  0.97224632  0.19416233  1
  O  O54  1  0.91310476  0.37646792  0.64462797  1
  O  O55  1  0.46219958  0.08197645  0.63590497  1
  O  O56  1  0.62327098  0.53718475  0.64414319  1
  O  O57  1  0.92398659  0.51856530  0.13622395  1
  O  O58  1  0.59969631  0.08006008  0.13721635  1
  O  O59  1  0.46610984  0.38496723  0.14029865  1
  O  O60  1  0.46675201  0.29497756  0.02800952  1
  O  O61  1  0.83149796  0.52963493  0.02636960  1
  O  O62  1  0.70551167  0.17131626  0.02733476  1
  O  O63  1  0.46653056  0.15875932  0.52932673  1
  O  O64  1  0.68969726  0.52378312  0.52789654  1
  O  O65  1  0.83286040  0.30449116  0.52888172  1
  O  O66  1  0.52595853  0.69036475  0.96912357  1
  O  O67  1  0.15887019  0.47007836  0.97148893  1
  O  O68  1  0.30892721  0.84041389  0.97234362  1
  O  O69  1  0.50947428  0.83482294  0.47137774  1
  O  O70  1  0.33292699  0.48961452  0.47161571  1
  O  O71  1  0.16036662  0.66494167  0.47225155  1
  O  O72  1  0.13670124  0.63144760  0.36009757  1
  O  O73  1  0.49371655  0.85749895  0.35911787  1
  O  O74  1  0.36894045  0.50242397  0.36279484  1
  O  O75  1  0.13684483  0.49770494  0.85802187  1
  O  O76  1  0.36067360  0.85797070  0.86019708  1
  O  O77  1  0.50219570  0.63771674  0.85741011  1
  O  O78  1  0.00270701  0.80795156  0.42349043  1
  O  O79  1  0.79796077  0.98542246  0.41959815  1
  O  O80  1  0.18542262  0.22381789  0.41988623  1
  O  O81  1  0.02063293  0.18868127  0.90907305  1
  O  O82  1  0.16675120  0.97659299  0.90835021  1
  O  O83  1  0.81287629  0.83097632  0.90826974  1
  O  O84  1  0.98021686  0.15753888  0.58963280  1
  O  O85  1  0.18834501  0.02147856  0.58581573  1
  O  O86  1  0.84705457  0.81986300  0.58909511  1
  O  O87  1  0.98471574  0.82197462  0.09239969  1
  O  O88  1  0.84242406  0.02552870  0.09246389  1
  O  O89  1  0.17724564  0.15847917  0.09167016  1
  O  O90  1  0.70909758  0.16595626  0.75446375  1
  O  O91  1  0.47379899  0.32809247  0.75534101  1
  O  O92  1  0.85563603  0.55212983  0.75120371  1
  O  O93  1  0.66761310  0.53114003  0.24641520  1
  O  O94  1  0.86417401  0.33439115  0.24596062  1
  O  O95  1  0.47496230  0.13386680  0.24475840  1
  O  O96  1  0.63826196  0.49284900  0.92520419  1
  O  O97  1  0.85271533  0.35928533  0.92449574  1
  O  O98  1  0.50587061  0.14532760  0.92533528  1
  O  O99  1  0.62521698  0.14788056  0.42534663  1
  O  O100  1  0.51133608  0.38196651  0.42472910  1
  O  O101  1  0.85270535  0.47683198  0.42545972  1
  O  O102  1  0.32277361  0.48687345  0.06667002  1
  O  O103  1  0.16023883  0.67134159  0.06506674  1
  O  O104  1  0.50517996  0.84243298  0.06526544  1
  O  O105  1  0.33411774  0.85276022  0.56640276  1
  O  O106  1  0.51155327  0.66687981  0.56812561  1
  O  O107  1  0.15637727  0.49023754  0.56817602  1
  O  O108  1  0.29467815  0.81413130  0.25369903  1
  O  O109  1  0.52002469  0.70423868  0.25396916  1
  O  O110  1  0.18582531  0.47841671  0.25471349  1
  O  O111  1  0.28514104  0.47483926  0.75721526  1
  O  O112  1  0.17450388  0.70772112  0.75774039  1
  O  O113  1  0.52574043  0.81508287  0.75771433  1
