# generated using pymatgen
data_Na7CaY3Si3(SO8)3
_symmetry_space_group_name_H-M   'P 1'
_cell_length_a   9.46720537
_cell_length_b   9.45998955
_cell_length_c   23.55562358
_cell_angle_alpha   89.92413602
_cell_angle_beta   89.86675679
_cell_angle_gamma   119.74817827
_symmetry_Int_Tables_number   1
_chemical_formula_structural   Na7CaY3Si3(SO8)3
_chemical_formula_sum   'Na21 Ca3 Y9 Si9 S9 O72'
_cell_volume   1831.60237498
_cell_formula_units_Z   3
loop_
 _symmetry_equiv_pos_site_id
 _symmetry_equiv_pos_as_xyz
  1  'x, y, z'
loop_
 _atom_site_type_symbol
 _atom_site_label
 _atom_site_symmetry_multiplicity
 _atom_site_fract_x
 _atom_site_fract_y
 _atom_site_fract_z
 _atom_site_occupancy
  Na  Na0  1  0.63924461  0.98774736  0.23902208  1
  Na  Na1  1  0.39553983  0.38417223  0.23598646  1
  Na  Na2  1  0.97048944  0.63450945  0.25662023  1
  Na  Na3  1  0.61840575  0.62333239  0.73633767  1
  Na  Na4  1  0.99338319  0.33532405  0.74954000  1
  Na  Na5  1  0.39367288  0.02919862  0.75805489  1
  Na  Na6  1  0.00818110  0.69595103  0.57316407  1
  Na  Na7  1  0.66962656  0.95222667  0.58425133  1
  Na  Na8  1  0.32888713  0.99504806  0.07797554  1
  Na  Na9  1  0.64661738  0.69011646  0.09352908  1
  Na  Na10  1  0.68122687  0.03254447  0.91600957  1
  Na  Na11  1  0.33665246  0.28326957  0.91928689  1
  Na  Na12  1  0.95156094  0.29612039  0.41100798  1
  Na  Na13  1  0.32836651  0.00546903  0.41567102  1
  Na  Na14  1  0.73106200  0.69712669  0.41448409  1
  Na  Na15  1  0.97519609  0.97074443  0.49379945  1
  Na  Na16  1  0.01983341  0.01644003  0.00668281  1
  Na  Na17  1  0.64340561  0.30639640  0.82757047  1
  Na  Na18  1  0.68343277  0.35506851  0.33225209  1
  Na  Na19  1  0.35839457  0.65869294  0.15862330  1
  Na  Na20  1  0.36578189  0.64584161  0.66817113  1
  Ca  Ca21  1  0.98846575  0.98654502  0.34985881  1
  Ca  Ca22  1  0.65415965  0.33503442  0.68221329  1
  Ca  Ca23  1  0.66066031  0.32986707  0.17600062  1
  Y  Y24  1  0.00839056  0.00110170  0.84926327  1
  Y  Y25  1  0.99785569  0.00618083  0.65269780  1
  Y  Y26  1  0.98593462  0.00537947  0.14705158  1
  Y  Y27  1  0.65892235  0.32012809  0.98744501  1
  Y  Y28  1  0.67174401  0.34721002  0.48425133  1
  Y  Y29  1  0.32836689  0.66956260  0.01727789  1
  Y  Y30  1  0.34589552  0.66854283  0.51529753  1
  Y  Y31  1  0.34511474  0.68004062  0.32001862  1
  Y  Y32  1  0.34069951  0.67765642  0.81655182  1
  Si  Si33  1  0.69363650  0.69028333  0.25135752  1
  Si  Si34  1  0.29928245  0.30336775  0.75254740  1
  Si  Si35  1  0.69990532  0.00049229  0.75192149  1
  Si  Si36  1  0.67178693  0.64608460  0.58537227  1
  Si  Si37  1  0.66326701  0.02235163  0.08362359  1
  Si  Si38  1  0.35980027  0.33223276  0.08368794  1
  Si  Si39  1  0.33251751  0.97252992  0.91720127  1
  Si  Si40  1  0.63794655  0.97835951  0.41794955  1
  Si  Si41  1  0.03671627  0.66516024  0.41855933  1
  S  S42  1  0.29726460  -0.00095794  0.25067446  1
  S  S43  1  0.00476004  0.30413851  0.25278003  1
  S  S44  1  0.00260744  0.70205996  0.74880016  1
  S  S45  1  0.96511632  0.33454196  0.58386813  1
  S  S46  1  0.36361207  0.02786229  0.58272513  1
  S  S47  1  0.96691296  0.63504547  0.08486940  1
  S  S48  1  0.63078516  0.66579535  0.91691276  1
  S  S49  1  0.03349565  0.36761766  0.91459902  1
  S  S50  1  0.33291556  0.36730825  0.41559851  1
  O  O51  1  0.22178550  0.02059060  0.30264206  1
  O  O52  1  0.79721192  0.77423729  0.30876182  1
  O  O53  1  0.98958738  0.21225520  0.30541969  1
  O  O54  1  0.21374033  0.19367335  0.80971861  1
  O  O55  1  0.97935745  0.78528199  0.79816491  1
  O  O56  1  0.80724375  0.01240348  0.80827775  1
  O  O57  1  0.78496795  0.97350040  0.69470372  1
  O  O58  1  0.18123837  0.20605389  0.69883607  1
  O  O59  1  0.02800871  0.80112000  0.69669199  1
  O  O60  1  0.78662391  0.80767325  0.19571013  1
  O  O61  1  0.02509148  0.21809243  0.20338027  1
  O  O62  1  0.19791908  0.98432206  0.20014956  1
  O  O63  1  0.88685681  0.35315036  0.63517284  1
  O  O64  1  0.46302823  0.10530052  0.63331615  1
  O  O65  1  0.66189113  0.55081471  0.64356466  1
  O  O66  1  0.89704506  0.54367295  0.13807636  1
  O  O67  1  0.64402694  0.10251994  0.14216273  1
  O  O68  1  0.46756985  0.36832063  0.14143566  1
  O  O69  1  0.45406710  0.31109367  0.02749783  1
  O  O70  1  0.86176622  0.54948236  0.03582882  1
  O  O71  1  0.68339683  0.13393617  0.02733641  1
  O  O72  1  0.44427592  0.12549573  0.53096874  1
  O  O73  1  0.68751992  0.55128415  0.52880099  1
  O  O74  1  0.86191960  0.31374108  0.53294513  1
  O  O75  1  0.54636930  0.68395067  0.96714411  1
  O  O76  1  0.13865097  0.45235539  0.96346704  1
  O  O77  1  0.32256106  0.86674007  0.97312340  1
  O  O78  1  0.54665025  0.85797169  0.47232327  1
  O  O79  1  0.31032364  0.44863109  0.46546871  1
  O  O80  1  0.14083811  0.67266288  0.47520022  1
  O  O81  1  0.12133031  0.63734158  0.36148193  1
  O  O82  1  0.52655409  0.88997845  0.36124704  1
  O  O83  1  0.35897909  0.46801298  0.36390740  1
  O  O84  1  0.11129418  0.45816801  0.86154364  1
  O  O85  1  0.35150093  0.88308749  0.85991826  1
  O  O86  1  0.52883004  0.64150401  0.86553875  1
  O  O87  1  0.03015335  0.83554539  0.41746713  1
  O  O88  1  0.82366552  0.00808363  0.41607966  1
  O  O89  1  0.18832823  0.20470229  0.41029867  1
  O  O90  1  0.01495437  0.20042567  0.91296046  1
  O  O91  1  0.17596282  0.00368550  0.91630790  1
  O  O92  1  0.78976699  0.81807468  0.91188382  1
  O  O93  1  0.97914595  0.18474474  0.58653368  1
  O  O94  1  0.19683367  0.00507633  0.58719230  1
  O  O95  1  0.84290444  0.82834392  0.58308493  1
  O  O96  1  0.98240871  0.80007735  0.08818785  1
  O  O97  1  0.81573227  0.98399060  0.08303918  1
  O  O98  1  0.18976047  0.15464889  0.08806229  1
  O  O99  1  0.68874184  0.16797078  0.74894937  1
  O  O100  1  0.48270163  0.32704027  0.75012825  1
  O  O101  1  0.85918313  0.53787822  0.74453037  1
  O  O102  1  0.67753388  0.50805174  0.24853296  1
  O  O103  1  0.85598035  0.31884941  0.24696899  1
  O  O104  1  0.46530227  0.13943399  0.24630070  1
  O  O105  1  0.65000290  0.52052764  0.92202636  1
  O  O106  1  0.86927149  0.34962850  0.91997423  1
  O  O107  1  0.50426393  0.15509575  0.91783410  1
  O  O108  1  0.64080115  0.15364678  0.42322708  1
  O  O109  1  0.48064190  0.35064761  0.42222229  1
  O  O110  1  0.84986359  0.50458613  0.42064141  1
  O  O111  1  0.34282370  0.49530286  0.07515109  1
  O  O112  1  0.13332862  0.65905895  0.07789643  1
  O  O113  1  0.49378335  0.84261872  0.07914644  1
  O  O114  1  0.34645741  0.86170963  0.57816001  1
  O  O115  1  0.51341914  0.67543645  0.58236072  1
  O  O116  1  0.12711545  0.48299219  0.57760199  1
  O  O117  1  0.30513684  0.84380982  0.25416724  1
  O  O118  1  0.50799607  0.67252711  0.25187325  1
  O  O119  1  0.15210090  0.47000253  0.25441821  1
  O  O120  1  0.30867750  0.48299375  0.75474084  1
  O  O121  1  0.15087496  0.68703102  0.75595749  1
  O  O122  1  0.51549357  0.83714465  0.75381698  1
