# generated using pymatgen
data_Na2Mg4Nb4Si3(S3O16)3
_symmetry_space_group_name_H-M   'P 1'
_cell_length_a   17.55349483
_cell_length_b   8.78541611
_cell_length_c   22.87485061
_cell_angle_alpha   89.96888197
_cell_angle_beta   89.95205475
_cell_angle_gamma   120.11055985
_symmetry_Int_Tables_number   1
_chemical_formula_structural   Na2Mg4Nb4Si3(S3O16)3
_chemical_formula_sum   'Na6 Mg12 Nb12 Si9 S27 O144'
_cell_volume   3051.61326250
_cell_formula_units_Z   3
loop_
 _symmetry_equiv_pos_site_id
 _symmetry_equiv_pos_as_xyz
  1  'x, y, z'
loop_
 _atom_site_type_symbol
 _atom_site_label
 _atom_site_symmetry_multiplicity
 _atom_site_fract_x
 _atom_site_fract_y
 _atom_site_fract_z
 _atom_site_occupancy
  Na  Na0  1  0.99804245  0.99721897  0.49947058  1
  Na  Na1  1  0.49883884  0.00160244  0.99565284  1
  Na  Na2  1  0.33520631  0.33447699  0.83831139  1
  Na  Na3  1  0.82973205  0.33382874  0.83636908  1
  Na  Na4  1  0.33725445  0.33890574  0.34068526  1
  Na  Na5  1  0.83337982  0.33109671  0.34144540  1
  Mg  Mg6  1  0.99832471  0.99735881  0.35517871  1
  Mg  Mg7  1  0.50039544  0.00265116  0.85125370  1
  Mg  Mg8  1  0.00063601  0.99901605  0.64912081  1
  Mg  Mg9  1  0.50097626  0.00355824  0.14956969  1
  Mg  Mg10  1  0.33113699  0.33308207  0.97950371  1
  Mg  Mg11  1  0.83701215  0.33518296  0.98045284  1
  Mg  Mg12  1  0.33507112  0.34251042  0.48137939  1
  Mg  Mg13  1  0.83373281  0.33130547  0.48070646  1
  Mg  Mg14  1  0.16305082  0.66155137  0.31303148  1
  Mg  Mg15  1  0.66802315  0.66974494  0.31096919  1
  Mg  Mg16  1  0.17005869  0.66946966  0.81045230  1
  Mg  Mg17  1  0.66242130  0.65715203  0.80802385  1
  Nb  Nb18  1  0.49974657  0.01093513  0.35595309  1
  Nb  Nb19  1  0.99964666  0.98655427  0.85331506  1
  Nb  Nb20  1  0.50626203  0.01390851  0.64143565  1
  Nb  Nb21  1  0.99917010  0.99968676  0.14086274  1
  Nb  Nb22  1  0.33753274  0.34047013  0.68506293  1
  Nb  Nb23  1  0.82797032  0.33165283  0.69259992  1
  Nb  Nb24  1  0.33469597  0.33345091  0.18896518  1
  Nb  Nb25  1  0.83438271  0.33127475  0.18438699  1
  Nb  Nb26  1  0.16503375  0.65796334  0.02355085  1
  Nb  Nb27  1  0.66705584  0.66875316  0.02167785  1
  Nb  Nb28  1  0.16678711  0.66362366  0.52430375  1
  Nb  Nb29  1  0.66655500  0.67296900  0.52579443  1
  Si  Si30  1  0.50626027  0.29876393  0.24634496  1
  Si  Si31  1  0.63692917  0.28657301  0.75681226  1
  Si  Si32  1  0.00776382  0.71093676  0.74427505  1
  Si  Si33  1  0.47219240  0.32896225  0.57632074  1
  Si  Si34  1  0.69626033  0.06082109  0.58013588  1
  Si  Si35  1  0.33497737  0.61953317  0.58162821  1
  Si  Si36  1  0.97367258  0.61673890  0.07797864  1
  Si  Si37  1  0.83054578  0.04790098  0.07996776  1
  Si  Si38  1  0.19505871  0.33257417  0.08095595  1
  S  S39  1  0.14285061  0.99781443  0.25207285  1
  S  S40  1  0.64440720  0.00207105  0.25076031  1
  S  S41  1  0.35467097  0.71126524  0.25076563  1
  S  S42  1  0.85717218  0.71216587  0.25199395  1
  S  S43  1  0.99913618  0.28806586  0.25232561  1
  S  S44  1  0.14497171  0.28783684  0.75039490  1
  S  S45  1  0.49793075  0.71176830  0.75262774  1
  S  S46  1  0.35539632  0.00060051  0.75129212  1
  S  S47  1  0.85632074  0.00113368  0.75093836  1
  S  S48  1  0.97623946  0.32555880  0.58188779  1
  S  S49  1  0.18615359  0.04711288  0.58015836  1
  S  S50  1  0.83855539  0.62729573  0.58012645  1
  S  S51  1  0.47678503  0.62446457  0.08209237  1
  S  S52  1  0.33771518  0.04883803  0.08010526  1
  S  S53  1  0.68631997  0.32544190  0.08008081  1
  S  S54  1  0.31317504  0.66960959  0.91500792  1
  S  S55  1  0.80866865  0.66340867  0.91469574  1
  S  S56  1  0.02258216  0.37971297  0.91400054  1
  S  S57  1  0.51890442  0.37458570  0.91706017  1
  S  S58  1  0.17060576  0.95816369  0.91458006  1
  S  S59  1  0.66598346  0.95563032  0.91526316  1
  S  S60  1  0.30748447  0.95383439  0.41421053  1
  S  S61  1  0.81270345  0.95653314  0.41480130  1
  S  S62  1  0.16618687  0.37650242  0.41534015  1
  S  S63  1  0.67183156  0.38453037  0.41434400  1
  S  S64  1  0.02073422  0.66623663  0.41582603  1
  S  S65  1  0.52288441  0.66515703  0.41427982  1
  O  O66  1  0.10738399  0.03828593  0.30384666  1
  O  O67  1  0.59845173  0.02769291  0.30328533  1
  O  O68  1  0.41257241  0.79218353  0.30381779  1
  O  O69  1  0.91411579  0.78395065  0.30331451  1
  O  O70  1  0.48490669  0.15963545  0.30715727  1
  O  O71  1  0.98224947  0.17757146  0.30391648  1
  O  O72  1  0.09797111  0.16845596  0.80339563  1
  O  O73  1  0.60821186  0.16222228  0.81238315  1
  O  O74  1  0.47564391  0.77743638  0.80471291  1
  O  O75  1  0.98516603  0.80799737  0.80620339  1
  O  O76  1  0.41067716  0.04378318  0.80366783  1
  O  O77  1  0.91533226  0.03099599  0.80427294  1
  O  O78  1  0.39784775  0.98321118  0.69825635  1
  O  O79  1  0.89667251  0.98307609  0.69799878  1
  O  O80  1  0.09367575  0.21254727  0.69762531  1
  O  O81  1  0.58031556  0.17824963  0.69769650  1
  O  O82  1  0.01257904  0.82884613  0.69156547  1
  O  O83  1  0.50437488  0.80813790  0.69904610  1
  O  O84  1  0.39547434  0.80854985  0.19758246  1
  O  O85  1  0.90237654  0.81799348  0.19893080  1
  O  O86  1  0.00768340  0.20266850  0.19882232  1
  O  O87  1  0.50947072  0.19469901  0.19194308  1
  O  O88  1  0.09019745  0.97955216  0.19921694  1
  O  O89  1  0.59358931  0.97584804  0.19780325  1
  O  O90  1  0.42844607  0.36423954  0.63728580  1
  O  O91  1  0.94197663  0.36454709  0.63492424  1
  O  O92  1  0.24116030  0.12001927  0.63397303  1
  O  O93  1  0.75863675  0.14439962  0.63829962  1
  O  O94  1  0.31160377  0.48663375  0.64022168  1
  O  O95  1  0.82301188  0.51856993  0.63380675  1
  O  O96  1  0.43804412  0.51316589  0.13643084  1
  O  O97  1  0.92786603  0.49082064  0.13817556  1
  O  O98  1  0.32396814  0.13298650  0.13430282  1
  O  O99  1  0.81167346  0.13377820  0.14042482  1
  O  O100  1  0.25551348  0.36703174  0.14026871  1
  O  O101  1  0.74230555  0.35992314  0.13456221  1
  O  O102  1  0.23153711  0.29125778  0.02517247  1
  O  O103  1  0.72802654  0.30450562  0.02853193  1
  O  O104  1  0.42337455  0.54256739  0.03078357  1
  O  O105  1  0.91500953  0.54807200  0.02292210  1
  O  O106  1  0.35311897  0.15894128  0.02919723  1
  O  O107  1  0.84912221  0.16061407  0.02413270  1
  O  O108  1  0.22745546  0.14947104  0.52790647  1
  O  O109  1  0.73185843  0.17025491  0.52303020  1
  O  O110  1  0.34732472  0.54078060  0.52404304  1
  O  O111  1  0.85345557  0.54892451  0.52855808  1
  O  O112  1  0.41573128  0.29065826  0.52048911  1
  O  O113  1  0.92504025  0.30270506  0.52925826  1
  O  O114  1  0.26511353  0.68573897  0.96899442  1
  O  O115  1  0.76732616  0.68460070  0.97040455  1
  O  O116  1  0.07570183  0.46578594  0.97000312  1
  O  O117  1  0.57581406  0.47090033  0.97126012  1
  O  O118  1  0.15450529  0.85230187  0.96904239  1
  O  O119  1  0.66201968  0.84165520  0.97022652  1
  O  O120  1  0.26705120  0.84865863  0.46856939  1
  O  O121  1  0.76596617  0.84580224  0.46829517  1
  O  O122  1  0.15874371  0.47287175  0.46924525  1
  O  O123  1  0.65446347  0.45556137  0.46817515  1
  O  O124  1  0.07619193  0.68433506  0.46919934  1
  O  O125  1  0.57493819  0.68918387  0.46931886  1
  O  O126  1  0.06254358  0.64490165  0.36346599  1
  O  O127  1  0.56887770  0.64948611  0.36420129  1
  O  O128  1  0.25579787  0.86476333  0.36268509  1
  O  O129  1  0.76051366  0.87158670  0.36282393  1
  O  O130  1  0.17655789  0.48295837  0.36360869  1
  O  O131  1  0.67986246  0.48715858  0.36275309  1
  O  O132  1  0.06974526  0.48987983  0.86476078  1
  O  O133  1  0.56142104  0.48125404  0.86569714  1
  O  O134  1  0.17956189  0.87122473  0.86363089  1
  O  O135  1  0.67534942  0.86809790  0.86428926  1
  O  O136  1  0.26022531  0.64868943  0.86355353  1
  O  O137  1  0.75621784  0.65057965  0.86432418  1
  O  O138  1  0.01521044  0.82905737  0.41379162  1
  O  O139  1  0.51550044  0.82932390  0.40786610  1
  O  O140  1  0.39690701  0.96297311  0.40919016  1
  O  O141  1  0.89995482  0.96713530  0.41358816  1
  O  O142  1  0.08356399  0.20436669  0.41476668  1
  O  O143  1  0.58881434  0.19847399  0.40718567  1
  O  O144  1  0.01606832  0.20351703  0.91010024  1
  O  O145  1  0.51313717  0.20152722  0.91741681  1
  O  O146  1  0.08841326  0.97694730  0.90785164  1
  O  O147  1  0.58226234  0.95453147  0.91941004  1
  O  O148  1  0.39963330  0.83356686  0.91428847  1
  O  O149  1  0.89792938  0.83136882  0.91084933  1
  O  O150  1  0.48980690  0.17066158  0.59468168  1
  O  O151  1  0.99276248  0.17884671  0.58909233  1
  O  O152  1  0.09795253  0.02154555  0.58783848  1
  O  O153  1  0.59527017  0.00929081  0.59667919  1
  O  O154  1  0.41050521  0.80773748  0.60425134  1
  O  O155  1  0.91026110  0.80865062  0.58749478  1
  O  O156  1  0.49072269  0.80140004  0.09171646  1
  O  O157  1  0.99292541  0.81079650  0.10042474  1
  O  O158  1  0.40996524  0.01337364  0.08868209  1
  O  O159  1  0.90983449  0.01272560  0.10102856  1
  O  O160  1  0.09560603  0.17733084  0.10099192  1
  O  O161  1  0.59861915  0.17296388  0.08886697  1
  O  O162  1  0.34216763  0.16010094  0.74164926  1
  O  O163  1  0.85372202  0.17135543  0.74894624  1
  O  O164  1  0.23114904  0.28829787  0.74777747  1
  O  O165  1  0.73800990  0.30663636  0.73934929  1
  O  O166  1  0.41539585  0.52076759  0.74474044  1
  O  O167  1  0.91332207  0.51902251  0.74016794  1
  O  O168  1  0.34871902  0.53034199  0.24653651  1
  O  O169  1  0.84459464  0.52854316  0.24185645  1
  O  O170  1  0.41033441  0.30257542  0.24102005  1
  O  O171  1  0.91586614  0.30517637  0.24443576  1
  O  O172  1  0.23483128  0.16016907  0.24202210  1
  O  O173  1  0.73174397  0.17509192  0.24724426  1
  O  O174  1  0.32314444  0.51342012  0.92199882  1
  O  O175  1  0.82080940  0.51126173  0.92040741  1
  O  O176  1  0.43193746  0.35889464  0.92538952  1
  O  O177  1  0.93445133  0.35894499  0.91932109  1
  O  O178  1  0.24698492  0.13596257  0.92015201  1
  O  O179  1  0.74336160  0.13137388  0.92261403  1
  O  O180  1  0.32098602  0.13117592  0.41900091  1
  O  O181  1  0.82371631  0.13407277  0.42075638  1
  O  O182  1  0.24374402  0.35475325  0.42130586  1
  O  O183  1  0.74761450  0.35863001  0.41936299  1
  O  O184  1  0.43360460  0.51233517  0.41851586  1
  O  O185  1  0.93269906  0.50860039  0.42295133  1
  O  O186  1  0.18344750  0.50820908  0.07154528  1
  O  O187  1  0.67836709  0.48861436  0.07338854  1
  O  O188  1  0.07284352  0.64224804  0.06985605  1
  O  O189  1  0.56554075  0.63697549  0.07497213  1
  O  O190  1  0.25304541  0.87530802  0.07339708  1
  O  O191  1  0.74465384  0.84691952  0.07195546  1
  O  O192  1  0.17733837  0.86516320  0.57204262  1
  O  O193  1  0.68560491  0.86034944  0.57146918  1
  O  O194  1  0.24572722  0.64218751  0.57106632  1
  O  O195  1  0.75381082  0.63360785  0.57142792  1
  O  O196  1  0.06759509  0.49225269  0.57207401  1
  O  O197  1  0.57216440  0.50456989  0.56921392  1
  O  O198  1  0.15498246  0.84669585  0.25802553  1
  O  O199  1  0.66103753  0.86016942  0.26237656  1
  O  O200  1  0.26754319  0.68539847  0.26127679  1
  O  O201  1  0.77158850  0.69725101  0.25741164  1
  O  O202  1  0.07488610  0.46434796  0.25748029  1
  O  O203  1  0.58099049  0.48576857  0.26408167  1
  O  O204  1  0.16023464  0.46150662  0.76283154  1
  O  O205  1  0.65561412  0.48139622  0.75572954  1
  O  O206  1  0.08404417  0.68175266  0.76413182  1
  O  O207  1  0.57439457  0.69076120  0.75887146  1
  O  O208  1  0.26877905  0.84584366  0.75797379  1
  O  O209  1  0.76969044  0.85488628  0.76253024  1
