# generated using pymatgen
data_Ba2YMgBiO6
_symmetry_space_group_name_H-M   'P 1'
_cell_length_a   6.24150398
_cell_length_b   6.65433351
_cell_length_c   6.65433404
_cell_angle_alpha   57.46236257
_cell_angle_beta   62.03186536
_cell_angle_gamma   62.03186898
_symmetry_Int_Tables_number   1
_chemical_formula_structural   Ba2YMgBiO6
_chemical_formula_sum   'Ba2 Y1 Mg1 Bi1 O6'
_cell_volume   196.87162956
_cell_formula_units_Z   1
loop_
 _symmetry_equiv_pos_site_id
 _symmetry_equiv_pos_as_xyz
  1  'x, y, z'
loop_
 _atom_site_type_symbol
 _atom_site_label
 _atom_site_symmetry_multiplicity
 _atom_site_fract_x
 _atom_site_fract_y
 _atom_site_fract_z
 _atom_site_occupancy
  Ba  Ba0  1  0.69295700  0.80704300  0.80704300  1
  Ba  Ba1  1  0.30704300  0.19295700  0.19295700  1
  Y  Y2  1  0.50000000  0.50000000  0.50000000  1
  Mg  Mg3  1  0.00000000  0.50000000  0.50000000  1
  Bi  Bi4  1  0.00000000  0.00000000  0.00000000  1
  O  O5  1  0.76455000  0.72559600  0.27440400  1
  O  O6  1  0.23545000  0.72559600  0.27440400  1
  O  O7  1  0.76455000  0.27440400  0.72559600  1
  O  O8  1  0.25567300  0.74432700  0.74432700  1
  O  O9  1  0.23545000  0.27440400  0.72559600  1
  O  O10  1  0.74432700  0.25567300  0.25567300  1
