# generated using pymatgen
data_MgMn(CoO3)2
_symmetry_space_group_name_H-M   'P 1'
_cell_length_a   7.24236443
_cell_length_b   2.92486530
_cell_length_c   6.25506329
_cell_angle_alpha   90.15878771
_cell_angle_beta   108.61515766
_cell_angle_gamma   78.22010549
_symmetry_Int_Tables_number   1
_chemical_formula_structural   MgMn(CoO3)2
_chemical_formula_sum   'Mg1 Mn1 Co2 O6'
_cell_volume   122.64579650
_cell_formula_units_Z   1
loop_
 _symmetry_equiv_pos_site_id
 _symmetry_equiv_pos_as_xyz
  1  'x, y, z'
loop_
 _atom_site_type_symbol
 _atom_site_label
 _atom_site_symmetry_multiplicity
 _atom_site_fract_x
 _atom_site_fract_y
 _atom_site_fract_z
 _atom_site_occupancy
  Mg  Mg0  1  0.53313700  0.23036200  0.08710600  1
  Mn  Mn1  1  0.32533500  0.33746200  0.35548500  1
  Co  Co2  1  0.00305800  0.99820600  0.99856700  1
  Co  Co3  1  0.68319400  0.65941800  0.66728800  1
  O  O4  1  0.04450200  0.47842300  0.21125700  1
  O  O5  1  0.34894000  0.82677500  0.55311000  1
  O  O6  1  0.68033000  0.16298300  0.88386000  1
  O  O7  1  0.34123800  0.82798900  0.12655400  1
  O  O8  1  0.61680900  0.19053800  0.43060300  1
  O  O9  1  0.96345800  0.51701200  0.79033600  1
