# generated using pymatgen
data_Na6Zr4Ta4Si9(SO16)3
_symmetry_space_group_name_H-M   'P 1'
_cell_length_a   18.05460367
_cell_length_b   9.00195970
_cell_length_c   22.95003591
_cell_angle_alpha   89.97805199
_cell_angle_beta   89.93252975
_cell_angle_gamma   119.83774629
_symmetry_Int_Tables_number   1
_chemical_formula_structural   Na6Zr4Ta4Si9(SO16)3
_chemical_formula_sum   'Na18 Zr12 Ta12 Si27 S9 O144'
_cell_volume   3235.53568937
_cell_formula_units_Z   3
loop_
 _symmetry_equiv_pos_site_id
 _symmetry_equiv_pos_as_xyz
  1  'x, y, z'
loop_
 _atom_site_type_symbol
 _atom_site_label
 _atom_site_symmetry_multiplicity
 _atom_site_fract_x
 _atom_site_fract_y
 _atom_site_fract_z
 _atom_site_occupancy
  Na  Na0  1  0.00439521  0.64997160  0.24168412  1
  Na  Na1  1  0.49868701  0.61366536  0.24620743  1
  Na  Na2  1  0.99839683  0.38405823  0.74655961  1
  Na  Na3  1  0.50531680  0.36733484  0.74450238  1
  Na  Na4  1  0.33297723  0.97575848  0.58962107  1
  Na  Na5  1  0.83142009  0.68986670  0.07973974  1
  Na  Na6  1  0.99653380  0.01582772  0.50352613  1
  Na  Na7  1  0.50705207  0.00214333  0.50468142  1
  Na  Na8  1  0.00703591  0.01776760  0.99834673  1
  Na  Na9  1  0.49722446  0.98075714  0.99572925  1
  Na  Na10  1  0.32508725  0.34412679  0.82836473  1
  Na  Na11  1  0.82497333  0.34474693  0.83150049  1
  Na  Na12  1  0.32794888  0.31027635  0.33381635  1
  Na  Na13  1  0.81500419  0.30190681  0.33373464  1
  Na  Na14  1  0.17540473  0.68917923  0.15730786  1
  Na  Na15  1  0.66004014  0.64495271  0.16858107  1
  Na  Na16  1  0.16334303  0.67984205  0.67156317  1
  Na  Na17  1  0.66446768  0.66038026  0.66614750  1
  Zr  Zr18  1  0.50812527  0.01423350  0.64778250  1
  Zr  Zr19  1  0.00592782  0.98874697  0.14349547  1
  Zr  Zr20  1  0.33520734  0.32499941  0.69117305  1
  Zr  Zr21  1  0.82642013  0.34473954  0.68675960  1
  Zr  Zr22  1  0.32755563  0.30839377  0.18679371  1
  Zr  Zr23  1  0.83011561  0.34252892  0.18863498  1
  Zr  Zr24  1  0.66192066  0.67199161  0.01873818  1
  Zr  Zr25  1  0.16422037  0.65426328  0.52101387  1
  Zr  Zr26  1  0.17779771  0.67877076  0.31673536  1
  Zr  Zr27  1  0.66639837  0.67692809  0.30951133  1
  Zr  Zr28  1  0.16737387  0.65541606  0.80972790  1
  Zr  Zr29  1  0.67205419  0.67912009  0.81451535  1
  Ta  Ta30  1  0.99891382  0.99764799  0.35590452  1
  Ta  Ta31  1  0.50544486  0.01081794  0.35712525  1
  Ta  Ta32  1  0.00396876  0.99891351  0.85630339  1
  Ta  Ta33  1  0.49825572  0.98390384  0.85174674  1
  Ta  Ta34  1  0.00503635  0.99359854  0.63995459  1
  Ta  Ta35  1  0.50499003  0.01614434  0.13891140  1
  Ta  Ta36  1  0.33617057  0.34830642  0.98617430  1
  Ta  Ta37  1  0.83246561  0.34107626  0.97437233  1
  Ta  Ta38  1  0.33293824  0.32712263  0.47581475  1
  Ta  Ta39  1  0.83528719  0.32245645  0.48678025  1
  Ta  Ta40  1  0.16865761  0.65340321  0.02062498  1
  Ta  Ta41  1  0.66811531  0.68358062  0.52197065  1
  Si  Si42  1  0.14655699  -0.00015307  0.25409263  1
  Si  Si43  1  0.64150566  0.00308485  0.24757178  1
  Si  Si44  1  0.85504441  0.71449264  0.24877861  1
  Si  Si45  1  0.49861636  0.28383810  0.25026809  1
  Si  Si46  1  0.14084254  0.27883869  0.74752430  1
  Si  Si47  1  0.64671402  0.28959480  0.75520640  1
  Si  Si48  1  0.99850074  0.71207057  0.75047403  1
  Si  Si49  1  0.50207688  0.70924120  0.74823313  1
  Si  Si50  1  0.35554392  0.99262764  0.74870444  1
  Si  Si51  1  0.47977531  0.33705690  0.58190902  1
  Si  Si52  1  0.97861118  0.33127627  0.59097151  1
  Si  Si53  1  0.19150071  0.04693609  0.58122943  1
  Si  Si54  1  0.68613589  0.04331487  0.58527536  1
  Si  Si55  1  0.83291848  0.62552244  0.57877323  1
  Si  Si56  1  0.47914486  0.62517660  0.09084977  1
  Si  Si57  1  0.97953164  0.61401201  0.08291803  1
  Si  Si58  1  0.33223392  0.03964169  0.07907014  1
  Si  Si59  1  0.18789671  0.33203769  0.08544406  1
  Si  Si60  1  0.68973549  0.33730693  0.08037121  1
  Si  Si61  1  0.31359167  0.66520353  0.91629272  1
  Si  Si62  1  0.81555267  0.67655925  0.91953429  1
  Si  Si63  1  0.02179151  0.37523772  0.91503161  1
  Si  Si64  1  0.66478955  0.96741734  0.91646801  1
  Si  Si65  1  0.31790831  0.96111620  0.42075195  1
  Si  Si66  1  0.81146946  0.96252210  0.41577406  1
  Si  Si67  1  0.16630604  0.36843820  0.41573534  1
  Si  Si68  1  0.52197689  0.66759873  0.41490628  1
  S  S69  1  0.36082281  0.72285814  0.25059085  1
  S  S70  1  0.00098111  0.28617231  0.25193274  1
  S  S71  1  0.86144791  0.99913079  0.75033015  1
  S  S72  1  0.33344146  0.61912002  0.58187680  1
  S  S73  1  0.83337841  0.04752939  0.08295935  1
  S  S74  1  0.51536998  0.36838945  0.91627900  1
  S  S75  1  0.16956824  0.96159298  0.91764428  1
  S  S76  1  0.67001263  0.37780958  0.41722100  1
  S  S77  1  0.01639194  0.66295560  0.41497080  1
  O  O78  1  0.09139607  0.00772036  0.31013688  1
  O  O79  1  0.59267261  0.01785822  0.30645177  1
  O  O80  1  0.41035570  0.81155525  0.30401190  1
  O  O81  1  0.91777832  0.82589827  0.30385373  1
  O  O82  1  0.49281899  0.16982027  0.30848590  1
  O  O83  1  0.99515614  0.18603856  0.30542278  1
  O  O84  1  0.09017224  0.16724887  0.80645116  1
  O  O85  1  0.59220562  0.17057971  0.81090909  1
  O  O86  1  0.49374161  0.80561838  0.80790613  1
  O  O87  1  0.99250601  0.81481717  0.80872855  1
  O  O88  1  0.41690473  0.01000707  0.80465721  1
  O  O89  1  0.91149250  0.01083382  0.80405190  1
  O  O90  1  0.39621543  0.97593556  0.68709910  1
  O  O91  1  0.90139872  0.98197156  0.69712622  1
  O  O92  1  0.07987224  0.17832812  0.69126392  1
  O  O93  1  0.58914938  0.21073954  0.69598171  1
  O  O94  1  0.00129716  0.82232598  0.69199419  1
  O  O95  1  0.51355723  0.82604187  0.69181033  1
  O  O96  1  0.39982551  0.81944663  0.19709294  1
  O  O97  1  0.89777886  0.81702658  0.18813074  1
  O  O98  1  0.01070877  0.20523900  0.19918735  1
  O  O99  1  0.50124441  0.17919772  0.19187949  1
  O  O100  1  0.08804605  0.97053771  0.19552871  1
  O  O101  1  0.58210902  0.98598403  0.19107384  1
  O  O102  1  0.44452237  0.36790762  0.64372649  1
  O  O103  1  0.93539673  0.35554877  0.64912402  1
  O  O104  1  0.25262087  0.13521780  0.63694797  1
  O  O105  1  0.74188447  0.12920616  0.64263408  1
  O  O106  1  0.32637471  0.52262439  0.63502095  1
  O  O107  1  0.81420899  0.51091743  0.63741695  1
  O  O108  1  0.43559231  0.51365468  0.14914481  1
  O  O109  1  0.94420108  0.51631253  0.14584803  1
  O  O110  1  0.31320184  0.11550143  0.13821291  1
  O  O111  1  0.82671978  0.13152865  0.13647559  1
  O  O112  1  0.24222831  0.35645660  0.14367371  1
  O  O113  1  0.75023521  0.36812996  0.13773886  1
  O  O114  1  0.23973257  0.31315860  0.02865980  1
  O  O115  1  0.73666364  0.30986014  0.02436439  1
  O  O116  1  0.41817000  0.52357803  0.03264013  1
  O  O117  1  0.91127422  0.50470965  0.03165266  1
  O  O118  1  0.34749982  0.16709342  0.02348936  1
  O  O119  1  0.83921471  0.14362496  0.03014205  1
  O  O120  1  0.23570475  0.16519202  0.52338100  1
  O  O121  1  0.74023716  0.16405654  0.52785484  1
  O  O122  1  0.33643580  0.53105471  0.52848337  1
  O  O123  1  0.84781420  0.52784880  0.52251256  1
  O  O124  1  0.41259620  0.32024677  0.52972770  1
  O  O125  1  0.91780211  0.31128706  0.53220313  1
  O  O126  1  0.26358536  0.68593990  0.97308479  1
  O  O127  1  0.77354591  0.70104227  0.97903270  1
  O  O128  1  0.08700589  0.48018875  0.96930844  1
  O  O129  1  0.56922387  0.45580152  0.96806603  1
  O  O130  1  0.15571229  0.85559662  0.96977519  1
  O  O131  1  0.64941329  0.84472311  0.97303400  1
  O  O132  1  0.27247522  0.84389607  0.47720771  1
  O  O133  1  0.76483988  0.84253262  0.47253703  1
  O  O134  1  0.14744967  0.45637501  0.47129330  1
  O  O135  1  0.65650124  0.45528876  0.46899943  1
  O  O136  1  0.06959360  0.68776930  0.46645644  1
  O  O137  1  0.58814340  0.69589802  0.46839520  1
  O  O138  1  0.05695088  0.64553615  0.36106064  1
  O  O139  1  0.55646535  0.62684656  0.35491272  1
  O  O140  1  0.25744240  0.87232129  0.36322644  1
  O  O141  1  0.75260278  0.87676805  0.35876969  1
  O  O142  1  0.17687037  0.48472549  0.35810220  1
  O  O143  1  0.67987743  0.47485215  0.36367727  1
  O  O144  1  0.05601836  0.48501588  0.85547979  1
  O  O145  1  0.55469529  0.47027128  0.86293267  1
  O  O146  1  0.17958006  0.88402288  0.86453506  1
  O  O147  1  0.67771018  0.87535342  0.85954847  1
  O  O148  1  0.25305737  0.63068181  0.86016961  1
  O  O149  1  0.75466987  0.64522004  0.86399644  1
  O  O150  1  0.00589485  0.81857614  0.41085609  1
  O  O151  1  0.51457736  0.84313899  0.40753061  1
  O  O152  1  0.41268617  0.98379091  0.40886674  1
  O  O153  1  0.90781432  0.98314206  0.40732705  1
  O  O154  1  0.08182503  0.17584507  0.40697617  1
  O  O155  1  0.59161028  0.19912309  0.41227594  1
  O  O156  1  0.01426659  0.18495645  0.90916650  1
  O  O157  1  0.50485477  0.19568637  0.91299674  1
  O  O158  1  0.09082182  0.98257400  0.91287256  1
  O  O159  1  0.58164056  0.99388296  0.91115314  1
  O  O160  1  0.40786175  0.83726861  0.91089020  1
  O  O161  1  0.91178339  0.84259121  0.90928026  1
  O  O162  1  0.47950906  0.15494395  0.58184812  1
  O  O163  1  0.98342134  0.15430768  0.59218746  1
  O  O164  1  0.09506064  0.02345854  0.58866938  1
  O  O165  1  0.59307324  0.02516092  0.58277426  1
  O  O166  1  0.40922205  0.79275546  0.58237937  1
  O  O167  1  0.91807939  0.81369060  0.58718847  1
  O  O168  1  0.48397080  0.81199384  0.09319019  1
  O  O169  1  0.98040888  0.79980211  0.08385823  1
  O  O170  1  0.41713863  0.02073924  0.08829153  1
  O  O171  1  0.91062546  0.02716567  0.08582579  1
  O  O172  1  0.09234251  0.16633891  0.08561322  1
  O  O173  1  0.59438516  0.16770507  0.08785227  1
  O  O174  1  0.35562073  0.17565055  0.74916584  1
  O  O175  1  0.85605871  0.15760236  0.75021661  1
  O  O176  1  0.23420372  0.29792397  0.74426138  1
  O  O177  1  0.73845334  0.29854665  0.75245610  1
  O  O178  1  0.41636765  0.52184462  0.74781522  1
  O  O179  1  0.91500310  0.52008354  0.74947445  1
  O  O180  1  0.35444699  0.55301737  0.25046860  1
  O  O181  1  0.85811023  0.53294830  0.24938068  1
  O  O182  1  0.41525705  0.31025641  0.24969379  1
  O  O183  1  0.92208040  0.29894332  0.25069130  1
  O  O184  1  0.23883976  0.17004948  0.25288605  1
  O  O185  1  0.73727104  0.16887678  0.24475986  1
  O  O186  1  0.32752857  0.49739167  0.92710065  1
  O  O187  1  0.82973679  0.50783645  0.92457411  1
  O  O188  1  0.42951378  0.35397782  0.92308130  1
  O  O189  1  0.92645644  0.34386492  0.93153311  1
  O  O190  1  0.24443340  0.13743648  0.92413806  1
  O  O191  1  0.75213181  0.15321612  0.92501201  1
  O  O192  1  0.32963527  0.15425888  0.42438209  1
  O  O193  1  0.82790324  0.16048368  0.42507770  1
  O  O194  1  0.25195871  0.35333671  0.42323778  1
  O  O195  1  0.74509161  0.35126878  0.42272358  1
  O  O196  1  0.42593850  0.51044681  0.43014237  1
  O  O197  1  0.93030549  0.51055161  0.42013180  1
  O  O198  1  0.17897233  0.50414349  0.07562322  1
  O  O199  1  0.68252947  0.50924079  0.07615482  1
  O  O200  1  0.07560935  0.64795143  0.07028548  1
  O  O201  1  0.57315086  0.64732744  0.08040124  1
  O  O202  1  0.24825209  0.85270478  0.06833210  1
  O  O203  1  0.75678352  0.87166480  0.08139882  1
  O  O204  1  0.18247520  0.85812243  0.57473349  1
  O  O205  1  0.67774833  0.85346764  0.57562317  1
  O  O206  1  0.25538387  0.63971326  0.58007744  1
  O  O207  1  0.74912428  0.64442617  0.56683224  1
  O  O208  1  0.07184370  0.49811602  0.57916255  1
  O  O209  1  0.57536243  0.49976059  0.56751894  1
  O  O210  1  0.14875195  0.81881898  0.25748152  1
  O  O211  1  0.64339121  0.82326984  0.25021681  1
  O  O212  1  0.27310818  0.70231364  0.25409144  1
  O  O213  1  0.75988309  0.68241290  0.25601102  1
  O  O214  1  0.07540016  0.46261032  0.25656362  1
  O  O215  1  0.58418375  0.47099853  0.25268226  1
  O  O216  1  0.14233945  0.46213918  0.75060858  1
  O  O217  1  0.65420233  0.47746385  0.76072546  1
  O  O218  1  0.08450499  0.69778170  0.75314604  1
  O  O219  1  0.58437428  0.68020292  0.75443705  1
  O  O220  1  0.26062791  0.83045045  0.75625320  1
  O  O221  1  0.77492175  0.84572562  0.75397608  1
