# generated using pymatgen
data_Na5Mg3SnP3(SO8)3
_symmetry_space_group_name_H-M   'P 1'
_cell_length_a   8.87114604
_cell_length_b   8.85749891
_cell_length_c   22.32341631
_cell_angle_alpha   90.37272837
_cell_angle_beta   89.70801034
_cell_angle_gamma   119.93258735
_symmetry_Int_Tables_number   1
_chemical_formula_structural   Na5Mg3SnP3(SO8)3
_chemical_formula_sum   'Na15 Mg9 Sn3 P9 S9 O72'
_cell_volume   1520.08040450
_cell_formula_units_Z   3
loop_
 _symmetry_equiv_pos_site_id
 _symmetry_equiv_pos_as_xyz
  1  'x, y, z'
loop_
 _atom_site_type_symbol
 _atom_site_label
 _atom_site_symmetry_multiplicity
 _atom_site_fract_x
 _atom_site_fract_y
 _atom_site_fract_z
 _atom_site_occupancy
  Na  Na0  1  0.00152913  0.63590962  0.25635089  1
  Na  Na1  1  0.29917455  0.33955350  0.58928358  1
  Na  Na2  1  0.02687120  0.69212641  0.58167240  1
  Na  Na3  1  0.67314174  0.96402316  0.57996394  1
  Na  Na4  1  0.67090323  0.69987567  0.08207936  1
  Na  Na5  1  0.03385875  0.33909669  0.08558025  1
  Na  Na6  1  0.97582260  0.67637113  0.91179819  1
  Na  Na7  1  0.32632634  0.29711311  0.90625355  1
  Na  Na8  1  0.70198793  0.67872376  0.41679314  1
  Na  Na9  1  0.99680077  0.00367907  0.49448730  1
  Na  Na10  1  0.99991766  0.99360789  0.99449563  1
  Na  Na11  1  0.65751079  0.32139408  0.82300754  1
  Na  Na12  1  0.65791656  0.30616761  0.33384768  1
  Na  Na13  1  0.33545358  0.67853489  0.17223452  1
  Na  Na14  1  0.33114373  0.65188933  0.66725840  1
  Mg  Mg15  1  0.00193544  0.00513964  0.35325222  1
  Mg  Mg16  1  0.99968291  0.00697711  0.84848179  1
  Mg  Mg17  1  0.99937641  0.00677805  0.65340956  1
  Mg  Mg18  1  0.00446551  0.99378844  0.15322565  1
  Mg  Mg19  1  0.66668289  0.34183498  0.68645655  1
  Mg  Mg20  1  0.66613406  0.33069251  0.18719035  1
  Mg  Mg21  1  0.32811174  0.67172901  0.01533813  1
  Mg  Mg22  1  0.33113915  0.66729688  0.51304279  1
  Mg  Mg23  1  0.33584740  0.67399031  0.32069989  1
  Sn  Sn24  1  0.66824187  0.33150667  0.98102077  1
  Sn  Sn25  1  0.68049446  0.33399377  0.48119831  1
  Sn  Sn26  1  0.33597407  0.66403355  0.81506989  1
  P  P27  1  0.29895011  0.29520065  0.75088078  1
  P  P28  1  0.96236649  0.33293130  0.58671608  1
  P  P29  1  0.66505079  0.62659930  0.58396010  1
  P  P30  1  0.96274150  0.62909631  0.08577826  1
  P  P31  1  0.62945528  0.67125471  0.92094005  1
  P  P32  1  0.04048793  0.37039695  0.91957046  1
  P  P33  1  0.33324823  0.95846385  0.91745780  1
  P  P34  1  0.62764397  0.96062239  0.41765611  1
  P  P35  1  0.04002500  0.67060307  0.41598664  1
  S  S36  1  0.29542944  0.00200434  0.25007244  1
  S  S37  1  0.70107653  0.70459258  0.24914306  1
  S  S38  1  0.00229299  0.29408798  0.24851926  1
  S  S39  1  0.00144531  0.70655745  0.75079208  1
  S  S40  1  0.70398124  0.00030931  0.74991969  1
  S  S41  1  0.37467003  0.04124443  0.58474173  1
  S  S42  1  0.66452326  0.03803785  0.08563689  1
  S  S43  1  0.37128060  0.33015594  0.08475862  1
  S  S44  1  0.33260582  0.37127790  0.41734682  1
  O  O45  1  0.21126904  0.02458452  0.30325320  1
  O  O46  1  0.81379251  0.78897990  0.30152173  1
  O  O47  1  0.98244855  0.18577474  0.30009744  1
  O  O48  1  0.21204660  0.19670666  0.80879427  1
  O  O49  1  0.98418425  0.78967847  0.80603138  1
  O  O50  1  0.80528074  0.01489948  0.80343374  1
  O  O51  1  0.77765640  0.97123569  0.69442143  1
  O  O52  1  0.19159271  0.21455349  0.69386507  1
  O  O53  1  0.02295341  0.80922389  0.69651934  1
  O  O54  1  0.78073229  0.80699295  0.19342332  1
  O  O55  1  0.02051368  0.21504221  0.19150208  1
  O  O56  1  0.18748433  0.97287267  0.19572047  1
  O  O57  1  0.87096766  0.36485712  0.63857398  1
  O  O58  1  0.48774469  0.12421357  0.63603694  1
  O  O59  1  0.63054122  0.50191155  0.63490077  1
  O  O60  1  0.87024933  0.50832577  0.13848958  1
  O  O61  1  0.63969059  0.12516049  0.13651213  1
  O  O62  1  0.48704544  0.35476688  0.13423384  1
  O  O63  1  0.44251713  0.29905516  0.02653726  1
  O  O64  1  0.84413056  0.54811695  0.02680744  1
  O  O65  1  0.69960370  0.14695750  0.02908717  1
  O  O66  1  0.44870907  0.15310180  0.52918000  1
  O  O67  1  0.70006954  0.55004777  0.52364009  1
  O  O68  1  0.84377519  0.28598977  0.52837149  1
  O  O69  1  0.54817530  0.69022609  0.97861984  1
  O  O70  1  0.14645453  0.44961038  0.97647545  1
  O  O71  1  0.30527018  0.84811602  0.97208989  1
  O  O72  1  0.55143243  0.85747530  0.47592383  1
  O  O73  1  0.31205794  0.44777089  0.47366097  1
  O  O74  1  0.13678569  0.68463447  0.47402286  1
  O  O75  1  0.11681918  0.63894241  0.35895640  1
  O  O76  1  0.51707611  0.87465870  0.36270221  1
  O  O77  1  0.36457594  0.48448088  0.36527220  1
  O  O78  1  0.12076771  0.49734879  0.86503646  1
  O  O79  1  0.36995354  0.88158354  0.85988773  1
  O  O80  1  0.50642747  0.62701847  0.86579000  1
  O  O81  1  0.01004541  0.82853578  0.41094236  1
  O  O82  1  0.81241389  0.98444912  0.41114398  1
  O  O83  1  0.18122461  0.19596606  0.41016868  1
  O  O84  1  0.02093860  0.19151499  0.91020468  1
  O  O85  1  0.17337996  0.98223226  0.91008785  1
  O  O86  1  0.81387222  0.82230500  0.91128739  1
  O  O87  1  0.98409956  0.17013540  0.59075070  1
  O  O88  1  0.19853975  0.02010697  0.59040871  1
  O  O89  1  0.83292517  0.80749449  0.58973133  1
  O  O90  1  0.97282129  0.80847000  0.08975586  1
  O  O91  1  0.82568960  0.02465860  0.08974798  1
  O  O92  1  0.19352311  0.18011275  0.08980653  1
  O  O93  1  0.68351826  0.15503237  0.74516288  1
  O  O94  1  0.48273546  0.31930922  0.74653156  1
  O  O95  1  0.84963265  0.52959403  0.74680699  1
  O  O96  1  0.69069126  0.53014212  0.24331404  1
  O  O97  1  0.84509325  0.31679903  0.24514249  1
  O  O98  1  0.47080354  0.15701171  0.24324972  1
  O  O99  1  0.64153283  0.49597769  0.92245219  1
  O  O100  1  0.85700281  0.36023366  0.92242861  1
  O  O101  1  0.49708414  0.14902619  0.92221463  1
  O  O102  1  0.63964180  0.14646921  0.42129540  1
  O  O103  1  0.49774262  0.35859286  0.42145933  1
  O  O104  1  0.84523331  0.50383063  0.41846208  1
  O  O105  1  0.36073238  0.49289529  0.07941365  1
  O  O106  1  0.14015865  0.63931594  0.07794742  1
  O  O107  1  0.51327787  0.86194903  0.07856655  1
  O  O108  1  0.35702739  0.86652598  0.57665706  1
  O  O109  1  0.50371687  0.64916281  0.57682610  1
  O  O110  1  0.14312330  0.49815256  0.57764768  1
  O  O111  1  0.30909000  0.83987542  0.25445498  1
  O  O112  1  0.52553834  0.68211643  0.25518340  1
  O  O113  1  0.15775511  0.47284095  0.25294867  1
  O  O114  1  0.31334937  0.48467882  0.75379470  1
  O  O115  1  0.16656583  0.69370031  0.75399608  1
  O  O116  1  0.52360009  0.83797422  0.75391256  1
