# generated using pymatgen
data_Na2Ta6In2Si7S5O48
_symmetry_space_group_name_H-M   'P 1'
_cell_length_a   17.76987858
_cell_length_b   8.89979947
_cell_length_c   23.04916184
_cell_angle_alpha   89.99831763
_cell_angle_beta   89.98427331
_cell_angle_gamma   120.05458904
_symmetry_Int_Tables_number   1
_chemical_formula_structural   Na2Ta6In2Si7S5O48
_chemical_formula_sum   'Na6 Ta18 In6 Si21 S15 O144'
_cell_volume   3155.08648764
_cell_formula_units_Z   3
loop_
 _symmetry_equiv_pos_site_id
 _symmetry_equiv_pos_as_xyz
  1  'x, y, z'
loop_
 _atom_site_type_symbol
 _atom_site_label
 _atom_site_symmetry_multiplicity
 _atom_site_fract_x
 _atom_site_fract_y
 _atom_site_fract_z
 _atom_site_occupancy
  Na  Na0  1  0.99761983  0.00115375  0.49677049  1
  Na  Na1  1  0.49849872  0.00290482  0.99332667  1
  Na  Na2  1  0.33547648  0.32550141  0.83225895  1
  Na  Na3  1  0.82648213  0.33249094  0.83319049  1
  Na  Na4  1  0.32744917  0.32206218  0.33817358  1
  Na  Na5  1  0.83424458  0.34544521  0.33824095  1
  Ta  Ta6  1  0.50063466  0.99419995  0.35867750  1
  Ta  Ta7  1  0.00058910  0.00460052  0.85615559  1
  Ta  Ta8  1  0.49964566  0.00370723  0.64332073  1
  Ta  Ta9  1  0.99871460  0.99561603  0.14387298  1
  Ta  Ta10  1  0.32582140  0.33508264  0.68865038  1
  Ta  Ta11  1  0.83228180  0.31309959  0.68706481  1
  Ta  Ta12  1  0.32900512  0.34216920  0.19015885  1
  Ta  Ta13  1  0.82659732  0.31594934  0.19039856  1
  Ta  Ta14  1  0.32726143  0.32995184  0.97320912  1
  Ta  Ta15  1  0.83180018  0.32184612  0.47539149  1
  Ta  Ta16  1  0.17035904  0.67062148  0.02118331  1
  Ta  Ta17  1  0.67474634  0.67170411  0.02023076  1
  Ta  Ta18  1  0.16877420  0.66958634  0.52407487  1
  Ta  Ta19  1  0.67264365  0.66965923  0.52210457  1
  Ta  Ta20  1  0.16754317  0.68516057  0.31244114  1
  Ta  Ta21  1  0.67885263  0.67718326  0.30999162  1
  Ta  Ta22  1  0.17807074  0.68011593  0.80835757  1
  Ta  Ta23  1  0.66630324  0.64795521  0.81012287  1
  In  In24  1  0.00002251  0.98098131  0.35530447  1
  In  In25  1  0.50015730  0.01937976  0.85362963  1
  In  In26  1  0.99495512  0.01586619  0.64861062  1
  In  In27  1  0.49716019  0.98819657  0.15335705  1
  In  In28  1  0.83352685  0.33247330  0.98031984  1
  In  In29  1  0.33247332  0.33292083  0.48031303  1
  Si  Si30  1  0.14150955  0.00082738  0.25023463  1
  Si  Si31  1  0.64036368  0.99230422  0.25111337  1
  Si  Si32  1  0.35413412  0.71477361  0.25162590  1
  Si  Si33  1  0.85847049  0.71031636  0.24830803  1
  Si  Si34  1  0.14171967  0.28806956  0.75107091  1
  Si  Si35  1  0.64523158  0.28133958  0.74967306  1
  Si  Si36  1  0.35933519  0.00850118  0.74812282  1
  Si  Si37  1  0.85384878  0.99553759  0.75173534  1
  Si  Si38  1  0.97768130  0.33284461  0.58149644  1
  Si  Si39  1  0.68830799  0.04360871  0.58173583  1
  Si  Si40  1  0.33509277  0.62283974  0.58083616  1
  Si  Si41  1  0.83377609  0.04675570  0.08149438  1
  Si  Si42  1  0.18864975  0.33333036  0.08277464  1
  Si  Si43  1  0.31377596  0.67516019  0.91604473  1
  Si  Si44  1  0.81227277  0.66162176  0.91529161  1
  Si  Si45  1  0.52481568  0.38284722  0.91889382  1
  Si  Si46  1  0.16268655  0.94504030  0.91645915  1
  Si  Si47  1  0.31069796  0.96005286  0.41808389  1
  Si  Si48  1  0.81417070  0.95503064  0.41661674  1
  Si  Si49  1  0.66548425  0.38099875  0.41708629  1
  Si  Si50  1  0.02414605  0.66658478  0.41879586  1
  S  S51  1  0.00072964  0.29035099  0.24881440  1
  S  S52  1  0.50026985  0.29221413  0.25108970  1
  S  S53  1  0.00013687  0.71095902  0.75131697  1
  S  S54  1  0.50002459  0.70974213  0.74901505  1
  S  S55  1  0.47882315  0.33513715  0.58394222  1
  S  S56  1  0.18630636  0.04007477  0.58401976  1
  S  S57  1  0.83419294  0.61771141  0.58206495  1
  S  S58  1  0.47703277  0.61825055  0.08127095  1
  S  S59  1  0.97882491  0.62305987  0.08405061  1
  S  S60  1  0.33473428  0.04841746  0.08198507  1
  S  S61  1  0.68531849  0.33110027  0.08389482  1
  S  S62  1  0.02552849  0.38330679  0.91543138  1
  S  S63  1  0.66641996  0.94919285  0.91649958  1
  S  S64  1  0.16637429  0.38446015  0.41642324  1
  S  S65  1  0.52556071  0.66639842  0.41555085  1
  O  O66  1  0.11287423  0.06022395  0.30704014  1
  O  O67  1  0.59688000  0.03351715  0.30682370  1
  O  O68  1  0.42039731  0.80861845  0.30602708  1
  O  O69  1  0.91094146  0.77330912  0.30697390  1
  O  O70  1  0.48214355  0.17612336  0.30152199  1
  O  O71  1  0.97809485  0.18359358  0.30119663  1
  O  O72  1  0.09864977  0.16382257  0.80821668  1
  O  O73  1  0.61381537  0.16794213  0.80771758  1
  O  O74  1  0.47812604  0.77147642  0.80183212  1
  O  O75  1  0.98535119  0.79574178  0.80299008  1
  O  O76  1  0.40882360  0.04731549  0.80821343  1
  O  O77  1  0.91969564  0.03158897  0.80732350  1
  O  O78  1  0.40403446  0.97331894  0.69259174  1
  O  O79  1  0.88470550  0.94478858  0.69409427  1
  O  O80  1  0.09338148  0.21587848  0.69158389  1
  O  O81  1  0.58254638  0.18765186  0.69402273  1
  O  O82  1  0.01800042  0.81338774  0.69826985  1
  O  O83  1  0.51310883  0.81770866  0.69748876  1
  O  O84  1  0.38454249  0.81891622  0.19169588  1
  O  O85  1  0.90385142  0.83429350  0.19199995  1
  O  O86  1  0.01245703  0.20646655  0.19674065  1
  O  O87  1  0.51837243  0.22724349  0.19725750  1
  O  O88  1  0.08251367  0.97628789  0.19329618  1
  O  O89  1  0.59381026  0.96733944  0.19005552  1
  O  O90  1  0.43611617  0.36050402  0.63509894  1
  O  O91  1  0.93121308  0.36366660  0.63969156  1
  O  O92  1  0.24332560  0.12943511  0.63624257  1
  O  O93  1  0.75142369  0.13400748  0.63933815  1
  O  O94  1  0.32011043  0.49526454  0.63819235  1
  O  O95  1  0.81843328  0.51211770  0.63487333  1
  O  O96  1  0.43720133  0.51252776  0.13508357  1
  O  O97  1  0.93644076  0.51163586  0.13492023  1
  O  O98  1  0.32237609  0.12880777  0.13465829  1
  O  O99  1  0.81903329  0.14420592  0.13828323  1
  O  O100  1  0.25407063  0.36757179  0.13911150  1
  O  O101  1  0.74124116  0.35743086  0.13598824  1
  O  O102  1  0.23933204  0.30629952  0.02826871  1
  O  O103  1  0.72278049  0.30244072  0.03137535  1
  O  O104  1  0.42039461  0.52694362  0.03066149  1
  O  O105  1  0.92713772  0.55805900  0.03105121  1
  O  O106  1  0.34525611  0.15425634  0.02969630  1
  O  O107  1  0.85368042  0.16348063  0.02520546  1
  O  O108  1  0.22379551  0.14537703  0.53173527  1
  O  O109  1  0.73475532  0.16883102  0.52660120  1
  O  O110  1  0.35616058  0.54406558  0.52541883  1
  O  O111  1  0.84280872  0.53484585  0.52928374  1
  O  O112  1  0.42715875  0.29664299  0.53105327  1
  O  O113  1  0.91314164  0.31334871  0.52705711  1
  O  O114  1  0.25991414  0.69012160  0.97306148  1
  O  O115  1  0.76604963  0.69232269  0.97388595  1
  O  O116  1  0.07696089  0.46335400  0.96979260  1
  O  O117  1  0.58518320  0.49025653  0.97542409  1
  O  O118  1  0.15076135  0.82854239  0.97478716  1
  O  O119  1  0.65954551  0.84647831  0.97100370  1
  O  O120  1  0.26537725  0.83853497  0.47446751  1
  O  O121  1  0.75992203  0.82971303  0.47285742  1
  O  O122  1  0.15943682  0.47007414  0.47047044  1
  O  O123  1  0.64984473  0.47280256  0.47434566  1
  O  O124  1  0.08673958  0.68327304  0.47346829  1
  O  O125  1  0.57633809  0.69061313  0.46940133  1
  O  O126  1  0.06779750  0.63316498  0.35978842  1
  O  O127  1  0.56751599  0.64535600  0.36382653  1
  O  O128  1  0.24872219  0.86144737  0.36045492  1
  O  O129  1  0.75267731  0.86121601  0.35968627  1
  O  O130  1  0.17630882  0.48951976  0.36401089  1
  O  O131  1  0.67763503  0.50233731  0.36041926  1
  O  O132  1  0.06764835  0.49111871  0.86432384  1
  O  O133  1  0.56676978  0.50312578  0.86091343  1
  O  O134  1  0.17903457  0.85473449  0.86072457  1
  O  O135  1  0.67595861  0.86396808  0.86468139  1
  O  O136  1  0.25194640  0.64171038  0.85986847  1
  O  O137  1  0.74714388  0.63538951  0.86081022  1
  O  O138  1  0.01903753  0.84034286  0.41958259  1
  O  O139  1  0.51873939  0.82794390  0.40980544  1
  O  O140  1  0.40429146  0.97272030  0.40315026  1
  O  O141  1  0.90920200  0.98333259  0.41456882  1
  O  O142  1  0.08770583  0.21441207  0.41404213  1
  O  O143  1  0.58065187  0.19141205  0.40428663  1
  O  O144  1  0.01921625  0.21011124  0.91004734  1
  O  O145  1  0.51807133  0.19756089  0.91978082  1
  O  O146  1  0.08061616  0.97135606  0.90558074  1
  O  O147  1  0.58707494  0.96046671  0.91585800  1
  O  O148  1  0.40965767  0.83505816  0.91483136  1
  O  O149  1  0.90478880  0.83667170  0.90408353  1
  O  O150  1  0.49112179  0.18291437  0.59334021  1
  O  O151  1  0.98532958  0.16028405  0.58124840  1
  O  O152  1  0.09881841  0.01059075  0.59196398  1
  O  O153  1  0.59435974  0.02179914  0.59629883  1
  O  O154  1  0.41760115  0.81134114  0.59777590  1
  O  O155  1  0.91062362  0.79094148  0.58661053  1
  O  O156  1  0.48429004  0.79038483  0.08448028  1
  O  O157  1  0.99136968  0.79986300  0.09333658  1
  O  O158  1  0.41135188  0.02700890  0.08605815  1
  O  O159  1  0.91579663  0.02055390  0.09733035  1
  O  O160  1  0.09512051  0.16674600  0.09586535  1
  O  O161  1  0.59694085  0.18258232  0.09092401  1
  O  O162  1  0.34407224  0.17236311  0.73335059  1
  O  O163  1  0.84767444  0.17609918  0.74452325  1
  O  O164  1  0.24260439  0.31640008  0.74429331  1
  O  O165  1  0.74548810  0.32668205  0.73551070  1
  O  O166  1  0.42301289  0.52761785  0.73816866  1
  O  O167  1  0.92051793  0.53657755  0.74568461  1
  O  O168  1  0.34883647  0.52002571  0.24236503  1
  O  O169  1  0.84354295  0.51609745  0.23230416  1
  O  O170  1  0.42058612  0.30866921  0.24200824  1
  O  O171  1  0.92278262  0.31700340  0.23759006  1
  O  O172  1  0.24315887  0.16326908  0.23488464  1
  O  O173  1  0.74129975  0.16750715  0.24354992  1
  O  O174  1  0.31614326  0.49267307  0.92604848  1
  O  O175  1  0.82124097  0.49125346  0.92059240  1
  O  O176  1  0.42784927  0.36395976  0.92976972  1
  O  O177  1  0.93814447  0.36063296  0.91975208  1
  O  O178  1  0.25085435  0.13730971  0.92629763  1
  O  O179  1  0.74526955  0.12231483  0.92016899  1
  O  O180  1  0.32245261  0.15240854  0.42004412  1
  O  O181  1  0.81426841  0.13836314  0.42323069  1
  O  O182  1  0.24575232  0.36901631  0.41883021  1
  O  O183  1  0.75174840  0.36543887  0.42584279  1
  O  O184  1  0.43775782  0.51557174  0.41883794  1
  O  O185  1  0.92704026  0.49261412  0.42595966  1
  O  O186  1  0.17738025  0.50222158  0.07067615  1
  O  O187  1  0.68091376  0.49439049  0.07747807  1
  O  O188  1  0.06588362  0.64006010  0.07612255  1
  O  O189  1  0.56382957  0.63628998  0.07425667  1
  O  O190  1  0.25400325  0.87257673  0.07472662  1
  O  O191  1  0.74576518  0.85538157  0.07328238  1
  O  O192  1  0.18474354  0.87190528  0.57887624  1
  O  O193  1  0.67604380  0.85048609  0.57012622  1
  O  O194  1  0.24894058  0.63985169  0.57292354  1
  O  O195  1  0.75352267  0.63648949  0.57485050  1
  O  O196  1  0.07237929  0.50641958  0.57124426  1
  O  O197  1  0.56571772  0.49186327  0.57651116  1
  O  O198  1  0.15293794  0.83014226  0.25827655  1
  O  O199  1  0.65237758  0.82736832  0.26517378  1
  O  O200  1  0.25607674  0.66956346  0.26696839  1
  O  O201  1  0.76013873  0.68404664  0.25631027  1
  O  O202  1  0.07719046  0.46223535  0.25535247  1
  O  O203  1  0.57393759  0.46717199  0.26245077  1
  O  O204  1  0.15312125  0.47736254  0.76562028  1
  O  O205  1  0.65212751  0.47368821  0.75855338  1
  O  O206  1  0.07505492  0.68504494  0.76364489  1
  O  O207  1  0.57711216  0.69111594  0.75660774  1
  O  O208  1  0.26049840  0.83639936  0.75647410  1
  O  O209  1  0.75586481  0.84114899  0.76826375  1
