# generated using pymatgen
data_Na4AlZn(PO4)3
_symmetry_space_group_name_H-M   'P 1'
_cell_length_a   8.88871929
_cell_length_b   8.88871899
_cell_length_c   21.52837380
_cell_angle_alpha   90.00000000
_cell_angle_beta   90.00000000
_cell_angle_gamma   120.00000108
_symmetry_Int_Tables_number   1
_chemical_formula_structural   Na4AlZn(PO4)3
_chemical_formula_sum   'Na24 Al6 Zn6 P18 O72'
_cell_volume   1473.05926605
_cell_formula_units_Z   6
loop_
 _symmetry_equiv_pos_site_id
 _symmetry_equiv_pos_as_xyz
  1  'x, y, z'
loop_
 _atom_site_type_symbol
 _atom_site_label
 _atom_site_symmetry_multiplicity
 _atom_site_fract_x
 _atom_site_fract_y
 _atom_site_fract_z
 _atom_site_occupancy
  Na  Na0  1  0.63854894  0.00836293  0.24833235  1
  Na  Na1  1  0.36981399  0.36145106  0.24833235  1
  Na  Na2  1  0.99163707  0.63018601  0.24833235  1
  Na  Na3  1  0.63854894  0.63018601  0.74833235  1
  Na  Na4  1  0.99163707  0.36145106  0.74833235  1
  Na  Na5  1  0.36981399  0.00836293  0.74833235  1
  Na  Na6  1  0.30521594  0.34169593  0.58166535  1
  Na  Na7  1  0.03648099  0.69478406  0.58166535  1
  Na  Na8  1  0.65830407  0.96351901  0.58166535  1
  Na  Na9  1  0.30521594  0.96351901  0.08166535  1
  Na  Na10  1  0.65830407  0.69478406  0.08166535  1
  Na  Na11  1  0.03648099  0.34169593  0.08166535  1
  Na  Na12  1  0.97188194  0.67502993  0.91499935  1
  Na  Na13  1  0.70314699  0.02811806  0.91499935  1
  Na  Na14  1  0.32497007  0.29685301  0.91499935  1
  Na  Na15  1  0.97188194  0.29685301  0.41499935  1
  Na  Na16  1  0.32497007  0.02811806  0.41499935  1
  Na  Na17  1  0.70314699  0.67502993  0.41499935  1
  Na  Na18  1  -0.00000000  0.00000000  0.49737574  1
  Na  Na19  1  -0.00000000  0.00000000  0.99737574  1
  Na  Na20  1  0.66666700  0.33333300  0.83070874  1
  Na  Na21  1  0.66666700  0.33333300  0.33070874  1
  Na  Na22  1  0.33333300  0.66666700  0.16404274  1
  Na  Na23  1  0.33333300  0.66666700  0.66404274  1
  Al  Al24  1  -0.00000000  0.00000000  0.64904260  1
  Al  Al25  1  -0.00000000  -0.00000000  0.14904260  1
  Al  Al26  1  0.66666700  0.33333300  0.98237560  1
  Al  Al27  1  0.66666700  0.33333300  0.48237560  1
  Al  Al28  1  0.33333300  0.66666700  0.31570960  1
  Al  Al29  1  0.33333300  0.66666700  0.81570960  1
  Zn  Zn30  1  -0.00000000  0.00000000  0.34733478  1
  Zn  Zn31  1  -0.00000000  0.00000000  0.84733478  1
  Zn  Zn32  1  0.66666700  0.33333300  0.68066778  1
  Zn  Zn33  1  0.66666700  0.33333300  0.18066778  1
  Zn  Zn34  1  0.33333300  0.66666700  0.01400178  1
  Zn  Zn35  1  0.33333300  0.66666700  0.51400178  1
  P  P36  1  0.29067973  0.99364400  0.25057521  1
  P  P37  1  0.70296427  0.70932027  0.25057521  1
  P  P38  1  0.00635600  0.29703573  0.25057521  1
  P  P39  1  0.29067973  0.29703573  0.75057521  1
  P  P40  1  0.00635600  0.70932027  0.75057521  1
  P  P41  1  0.70296427  0.99364400  0.75057521  1
  P  P42  1  0.95734673  0.32697700  0.58390821  1
  P  P43  1  0.36963127  0.04265327  0.58390821  1
  P  P44  1  0.67302300  0.63036873  0.58390821  1
  P  P45  1  0.95734673  0.63036873  0.08390821  1
  P  P46  1  0.67302300  0.04265327  0.08390821  1
  P  P47  1  0.36963127  0.32697700  0.08390821  1
  P  P48  1  0.62401273  0.66031100  0.91724221  1
  P  P49  1  0.03629727  0.37598727  0.91724221  1
  P  P50  1  0.33968900  0.96370273  0.91724221  1
  P  P51  1  0.62401273  0.96370273  0.41724221  1
  P  P52  1  0.33968900  0.37598727  0.41724221  1
  P  P53  1  0.03629727  0.66031100  0.41724221  1
  O  O54  1  0.21661118  0.02763705  0.30965121  1
  O  O55  1  0.81102587  0.78338882  0.30965121  1
  O  O56  1  0.97236295  0.18897413  0.30965121  1
  O  O57  1  0.21661118  0.18897413  0.80965121  1
  O  O58  1  0.97236295  0.78338882  0.80965121  1
  O  O59  1  0.81102587  0.02763705  0.80965121  1
  O  O60  1  0.79490754  0.96510661  0.69322625  1
  O  O61  1  0.17019907  0.20509246  0.69322625  1
  O  O62  1  0.03489339  0.82980093  0.69322625  1
  O  O63  1  0.79490754  0.82980093  0.19322625  1
  O  O64  1  0.03489339  0.20509246  0.19322625  1
  O  O65  1  0.17019907  0.96510661  0.19322625  1
  O  O66  1  0.88327818  0.36097005  0.64298421  1
  O  O67  1  0.47769287  0.11672182  0.64298421  1
  O  O68  1  0.63902995  0.52230713  0.64298421  1
  O  O69  1  0.88327818  0.52230713  0.14298421  1
  O  O70  1  0.63902995  0.11672182  0.14298421  1
  O  O71  1  0.47769287  0.36097005  0.14298421  1
  O  O72  1  0.46157454  0.29843961  0.02655925  1
  O  O73  1  0.83686607  0.53842546  0.02655925  1
  O  O74  1  0.70156039  0.16313393  0.02655925  1
  O  O75  1  0.46157454  0.16313393  0.52655925  1
  O  O76  1  0.70156039  0.53842546  0.52655925  1
  O  O77  1  0.83686607  0.29843961  0.52655925  1
  O  O78  1  0.54994418  0.69430405  0.97631821  1
  O  O79  1  0.14435887  0.45005582  0.97631821  1
  O  O80  1  0.30569595  0.85564113  0.97631821  1
  O  O81  1  0.54994418  0.85564113  0.47631821  1
  O  O82  1  0.30569595  0.45005582  0.47631821  1
  O  O83  1  0.14435887  0.69430405  0.47631821  1
  O  O84  1  0.12824054  0.63177361  0.35989325  1
  O  O85  1  0.50353207  0.87175946  0.35989325  1
  O  O86  1  0.36822639  0.49646793  0.35989325  1
  O  O87  1  0.12824054  0.49646793  0.85989325  1
  O  O88  1  0.36822639  0.87175946  0.85989325  1
  O  O89  1  0.50353207  0.63177361  0.85989325  1
  O  O90  1  0.01002735  0.81864938  0.41147447  1
  O  O91  1  0.80862203  0.98997265  0.41147447  1
  O  O92  1  0.18135062  0.19137797  0.41147447  1
  O  O93  1  0.01002735  0.19137797  0.91147447  1
  O  O94  1  0.18135062  0.98997265  0.91147447  1
  O  O95  1  0.80862203  0.81864938  0.91147447  1
  O  O96  1  0.96923663  0.15597579  0.58882279  1
  O  O97  1  0.18673916  0.03076337  0.58882279  1
  O  O98  1  0.84402421  0.81326084  0.58882279  1
  O  O99  1  0.96923663  0.81326084  0.08882279  1
  O  O100  1  0.84402421  0.03076337  0.08882279  1
  O  O101  1  0.18673916  0.15597579  0.08882279  1
  O  O102  1  0.67669435  0.15198238  0.74480747  1
  O  O103  1  0.47528903  0.32330565  0.74480747  1
  O  O104  1  0.84801762  0.52471097  0.74480747  1
  O  O105  1  0.67669435  0.52471097  0.24480747  1
  O  O106  1  0.84801762  0.32330565  0.24480747  1
  O  O107  1  0.47528903  0.15198238  0.24480747  1
  O  O108  1  0.63590363  0.48930879  0.92215579  1
  O  O109  1  0.85340616  0.36409637  0.92215579  1
  O  O110  1  0.51069121  0.14659384  0.92215579  1
  O  O111  1  0.63590363  0.14659384  0.42215579  1
  O  O112  1  0.51069121  0.36409637  0.42215579  1
  O  O113  1  0.85340616  0.48930879  0.42215579  1
  O  O114  1  0.34336035  0.48531638  0.07814147  1
  O  O115  1  0.14195503  0.65663965  0.07814147  1
  O  O116  1  0.51468362  0.85804497  0.07814147  1
  O  O117  1  0.34336035  0.85804497  0.57814147  1
  O  O118  1  0.51468362  0.65663965  0.57814147  1
  O  O119  1  0.14195503  0.48531638  0.57814147  1
  O  O120  1  0.30256963  0.82264279  0.25548979  1
  O  O121  1  0.52007216  0.69743037  0.25548979  1
  O  O122  1  0.17735721  0.47992784  0.25548979  1
  O  O123  1  0.30256963  0.47992784  0.75548979  1
  O  O124  1  0.17735721  0.69743037  0.75548979  1
  O  O125  1  0.52007216  0.82264279  0.75548979  1
