# generated using pymatgen
data_Mg(MoO2)4
_symmetry_space_group_name_H-M   'P 1'
_cell_length_a   3.27701093
_cell_length_b   8.19974931
_cell_length_c   8.19931624
_cell_angle_alpha   87.20231246
_cell_angle_beta   77.59655445
_cell_angle_gamma   77.39355547
_symmetry_Int_Tables_number   1
_chemical_formula_structural   Mg(MoO2)4
_chemical_formula_sum   'Mg1 Mo4 O8'
_cell_volume   209.99075962
_cell_formula_units_Z   1
loop_
 _symmetry_equiv_pos_site_id
 _symmetry_equiv_pos_as_xyz
  1  'x, y, z'
loop_
 _atom_site_type_symbol
 _atom_site_label
 _atom_site_symmetry_multiplicity
 _atom_site_fract_x
 _atom_site_fract_y
 _atom_site_fract_z
 _atom_site_occupancy
  Mg  Mg0  1  0.76151800  0.49779800  0.49824700  1
  Mo  Mo1  1  0.62109300  0.16837900  0.52090500  1
  Mo  Mo2  1  0.20515400  0.48202000  0.16827600  1
  Mo  Mo3  1  0.85793600  0.51926300  0.82741300  1
  Mo  Mo4  1  0.31369600  0.82793800  0.48535800  1
  O  O5  1  0.83455000  0.68643500  0.61615000  1
  O  O6  1  0.46200000  0.38791100  0.69215900  1
  O  O7  1  0.54936800  0.60600100  0.31033300  1
  O  O8  1  0.15540300  0.29890400  0.39444900  1
  O  O9  1  0.10772400  0.05675200  0.63099500  1
  O  O10  1  0.83552000  0.37897300  0.03306900  1
  O  O11  1  0.79527700  0.96261800  0.38173900  1
  O  O12  1  0.25076300  0.62701300  0.94091000  1
