# generated using pymatgen
data_Na3Zr2Zn2P3(SO8)3
_symmetry_space_group_name_H-M   'P 1'
_cell_length_a   8.89318934
_cell_length_b   8.87984414
_cell_length_c   22.98883945
_cell_angle_alpha   90.10549782
_cell_angle_beta   89.83381039
_cell_angle_gamma   119.89310798
_symmetry_Int_Tables_number   1
_chemical_formula_structural   Na3Zr2Zn2P3(SO8)3
_chemical_formula_sum   'Na9 Zr6 Zn6 P9 S9 O72'
_cell_volume   1573.89395209
_cell_formula_units_Z   3
loop_
 _symmetry_equiv_pos_site_id
 _symmetry_equiv_pos_as_xyz
  1  'x, y, z'
loop_
 _atom_site_type_symbol
 _atom_site_label
 _atom_site_symmetry_multiplicity
 _atom_site_fract_x
 _atom_site_fract_y
 _atom_site_fract_z
 _atom_site_occupancy
  Na  Na0  1  0.66232087  0.69027761  0.08136359  1
  Na  Na1  1  0.33271687  0.29808086  0.91737109  1
  Na  Na2  1  0.33239232  0.03421209  0.41741123  1
  Na  Na3  1  0.99553256  0.00010001  0.49799838  1
  Na  Na4  1  0.00272620  0.99799284  0.99761415  1
  Na  Na5  1  0.67572129  0.33437505  0.83439560  1
  Na  Na6  1  0.67498822  0.34021168  0.33400961  1
  Na  Na7  1  0.32098509  0.66108369  0.16325507  1
  Na  Na8  1  0.33419931  0.67172756  0.66264948  1
  Zr  Zr9  1  0.00629125  -0.00003643  0.64833546  1
  Zr  Zr10  1  0.01239387  0.00527540  0.14898158  1
  Zr  Zr11  1  0.66017279  0.32468442  0.68706826  1
  Zr  Zr12  1  0.66993635  0.34096596  0.18691130  1
  Zr  Zr13  1  0.33244036  0.66326106  0.31181882  1
  Zr  Zr14  1  0.33275834  0.67000678  0.81148475  1
  Zn  Zn15  1  0.99362159  0.99966350  0.34447564  1
  Zn  Zn16  1  0.99337568  0.99460924  0.84422470  1
  Zn  Zn17  1  0.67221519  0.33925280  0.98713837  1
  Zn  Zn18  1  0.66534357  0.33268058  0.48639150  1
  Zn  Zn19  1  0.31575175  0.65782623  0.01942443  1
  Zn  Zn20  1  0.33464590  0.67427643  0.51906448  1
  P  P21  1  0.29309579  0.00238627  0.25351079  1
  P  P22  1  0.71260395  0.71288109  0.25111901  1
  P  P23  1  0.99718083  0.28761844  0.25202828  1
  P  P24  1  0.28922083  0.28892715  0.75289624  1
  P  P25  1  0.99634775  0.70842654  0.75175546  1
  P  P26  1  0.71380292  0.00071884  0.75147530  1
  P  P27  1  0.37575602  0.03708245  0.57961302  1
  P  P28  1  0.96205597  0.62400704  0.08110401  1
  P  P29  1  0.37555522  0.33581845  0.07975762  1
  S  S30  1  0.96094349  0.33684435  0.58138720  1
  S  S31  1  0.66305039  0.62352177  0.58151919  1
  S  S32  1  0.66396857  0.03989308  0.08183726  1
  S  S33  1  0.62906027  0.67006536  0.91852076  1
  S  S34  1  0.03762744  0.37213161  0.91778305  1
  S  S35  1  0.33380317  0.95995810  0.91879410  1
  S  S36  1  0.62903955  0.95913445  0.41828516  1
  S  S37  1  0.33305725  0.37468641  0.41910169  1
  S  S38  1  0.03755388  0.66435932  0.41849191  1
  O  O39  1  0.21802811  0.03169558  0.30899497  1
  O  O40  1  0.82047546  0.78849104  0.30506058  1
  O  O41  1  0.96820417  0.18231842  0.30646007  1
  O  O42  1  0.21763053  0.18582521  0.80867932  1
  O  O43  1  0.96672639  0.78470318  0.80620277  1
  O  O44  1  0.81910140  0.03356485  0.80609531  1
  O  O45  1  0.79414066  0.97161616  0.69590892  1
  O  O46  1  0.17749919  0.20595086  0.69795441  1
  O  O47  1  0.02830781  0.82103611  0.69644869  1
  O  O48  1  0.78875349  0.81791899  0.19409052  1
  O  O49  1  0.02799490  0.20709053  0.19649282  1
  O  O50  1  0.17957620  0.97122883  0.19849754  1
  O  O51  1  0.87705469  0.35977893  0.63482640  1
  O  O52  1  0.48880209  0.13117873  0.63445203  1
  O  O53  1  0.64330776  0.51840570  0.63490547  1
  O  O54  1  0.87259283  0.51244679  0.13634669  1
  O  O55  1  0.64132912  0.12215190  0.13490098  1
  O  O56  1  0.49098087  0.36066510  0.13422820  1
  O  O57  1  0.44948785  0.30073018  0.02434172  1
  O  O58  1  0.84357497  0.54841735  0.02829381  1
  O  O59  1  0.69548125  0.14671431  0.02973639  1
  O  O60  1  0.45066725  0.14765986  0.52471703  1
  O  O61  1  0.69708553  0.54851992  0.52967615  1
  O  O62  1  0.85320913  0.30605376  0.52965608  1
  O  O63  1  0.54796036  0.69290492  0.97140875  1
  O  O64  1  0.15021819  0.45273333  0.96874939  1
  O  O65  1  0.31003319  0.85299843  0.96966021  1
  O  O66  1  0.54611825  0.85229725  0.46967836  1
  O  O67  1  0.30893529  0.45806451  0.47008274  1
  O  O68  1  0.15000681  0.69513782  0.46931283  1
  O  O69  1  0.12361731  0.64085622  0.36489614  1
  O  O70  1  0.51428078  0.87452567  0.36534627  1
  O  O71  1  0.35636837  0.48251376  0.36540791  1
  O  O72  1  0.12457482  0.48255897  0.86463451  1
  O  O73  1  0.35645554  0.87449674  0.86506955  1
  O  O74  1  0.51297875  0.64185061  0.86625892  1
  O  O75  1  0.02662169  0.82598974  0.41138135  1
  O  O76  1  0.80211673  0.97801347  0.41081892  1
  O  O77  1  0.17891661  0.19722046  0.41231871  1
  O  O78  1  0.02720800  0.19978204  0.91088673  1
  O  O79  1  0.17900728  0.98247014  0.91210181  1
  O  O80  1  0.80176849  0.82425817  0.91099010  1
  O  O81  1  0.97533170  0.17579124  0.58926320  1
  O  O82  1  0.19335889  0.02212690  0.58949384  1
  O  O83  1  0.82171364  0.80056199  0.58924748  1
  O  O84  1  0.97017610  0.80476511  0.09023980  1
  O  O85  1  0.82158483  0.01801931  0.08897458  1
  O  O86  1  0.19254807  0.17374554  0.08896741  1
  O  O87  1  0.68865481  0.16091047  0.74269338  1
  O  O88  1  0.47300645  0.31342626  0.74276451  1
  O  O89  1  0.83834005  0.52544357  0.74136179  1
  O  O90  1  0.68695842  0.52734182  0.24352024  1
  O  O91  1  0.83791182  0.31131472  0.24288338  1
  O  O92  1  0.47458540  0.16063925  0.24265860  1
  O  O93  1  0.63651667  0.50517559  0.92065862  1
  O  O94  1  0.86516454  0.35648745  0.92231363  1
  O  O95  1  0.49189745  0.13670692  0.92135783  1
  O  O96  1  0.63770359  0.13227794  0.42159574  1
  O  O97  1  0.49145134  0.35570487  0.42142035  1
  O  O98  1  0.86487129  0.50727102  0.42306407  1
  O  O99  1  0.36629863  0.50460561  0.07707814  1
  O  O100  1  0.14282280  0.64725517  0.07783464  1
  O  O101  1  0.51237890  0.86354505  0.07729234  1
  O  O102  1  0.35589736  0.85605903  0.57746318  1
  O  O103  1  0.50789103  0.64060306  0.57731489  1
  O  O104  1  0.13456375  0.48968048  0.57718561  1
  O  O105  1  0.31086367  0.83684625  0.25776783  1
  O  O106  1  0.52751968  0.69015316  0.25719446  1
  O  O107  1  0.16142348  0.47209000  0.25708441  1
  O  O108  1  0.31071681  0.47360003  0.75754948  1
  O  O109  1  0.16139750  0.68942958  0.75684749  1
  O  O110  1  0.52833356  0.83856700  0.75723851  1
