# generated using pymatgen
data_Na3LaHfSi2SO12
_symmetry_space_group_name_H-M   'P 1'
_cell_length_a   9.52039406
_cell_length_b   9.52039024
_cell_length_c   22.99001268
_cell_angle_alpha   89.23925315
_cell_angle_beta   90.76167978
_cell_angle_gamma   120.20043652
_symmetry_Int_Tables_number   1
_chemical_formula_structural   Na3LaHfSi2SO12
_chemical_formula_sum   'Na18 La6 Hf6 Si12 S6 O72'
_cell_volume   1800.72671250
_cell_formula_units_Z   6
loop_
 _symmetry_equiv_pos_site_id
 _symmetry_equiv_pos_as_xyz
  1  'x, y, z'
loop_
 _atom_site_type_symbol
 _atom_site_label
 _atom_site_symmetry_multiplicity
 _atom_site_fract_x
 _atom_site_fract_y
 _atom_site_fract_z
 _atom_site_occupancy
  Na  Na0  1  0.63392959  0.99399881  0.24025365  1
  Na  Na1  1  0.99052990  0.64250973  0.24440871  1
  Na  Na2  1  0.00585498  0.36582045  0.74025495  1
  Na  Na3  1  0.35767360  0.00931379  0.74458506  1
  Na  Na4  1  0.30028401  0.32703232  0.57331983  1
  Na  Na5  1  0.65721446  0.97592599  0.57788408  1
  Na  Na6  1  0.67309921  0.69946422  0.07345631  1
  Na  Na7  1  0.02410770  0.34265074  0.07783165  1
  Na  Na8  1  0.96708655  0.66061988  0.90686345  1
  Na  Na9  1  0.32394999  0.30909338  0.91127798  1
  Na  Na10  1  0.33915667  0.03269819  0.40694116  1
  Na  Na11  1  0.69077625  0.67614706  0.41117615  1
  Na  Na12  1  0.00178901  0.03632456  0.49721704  1
  Na  Na13  1  0.96393459  0.99814031  0.99721711  1
  Na  Na14  1  0.66877775  0.36937284  0.83069010  1
  Na  Na15  1  0.63090752  0.33093281  0.33086664  1
  Na  Na16  1  0.33541940  0.70247563  0.16401005  1
  Na  Na17  1  0.29688224  0.66469440  0.66396330  1
  La  La18  1  0.01052690  0.01927060  0.34855368  1
  La  La19  1  0.98074727  0.98946473  0.84855957  1
  La  La20  1  0.67724072  0.35265077  0.68190843  1
  La  La21  1  0.64737528  0.32278502  0.18193128  1
  La  La22  1  0.34389748  0.68594061  0.01525970  1
  La  La23  1  0.31406782  0.65612570  0.51525829  1
  Hf  Hf24  1  0.02386301  0.00435254  0.64783239  1
  Hf  Hf25  1  0.99563293  0.97617381  0.14781734  1
  Hf  Hf26  1  0.69056609  0.33773508  0.98117396  1
  Hf  Hf27  1  0.66226471  0.30949692  0.48118715  1
  Hf  Hf28  1  0.35721483  0.67109504  0.31447728  1
  Hf  Hf29  1  0.32894090  0.64273310  0.81448522  1
  Si  Si30  1  0.29248363  0.97817013  0.25520555  1
  Si  Si31  1  0.70017081  0.70428630  0.25290449  1
  Si  Si32  1  0.29574315  0.29980659  0.75291335  1
  Si  Si33  1  0.02185827  0.70746828  0.75520448  1
  Si  Si34  1  0.95917585  0.31146526  0.58853706  1
  Si  Si35  1  0.36681299  0.03758334  0.58626676  1
  Si  Si36  1  0.96247004  0.63320124  0.08625721  1
  Si  Si37  1  0.68849266  0.04080063  0.08854002  1
  Si  Si38  1  0.62583715  0.64484070  0.92186588  1
  Si  Si39  1  0.03350414  0.37093162  0.91958064  1
  Si  Si40  1  0.62904442  0.96653611  0.41958320  1
  Si  Si41  1  0.35518520  0.37420073  0.42183733  1
  S  S42  1  0.02017628  0.31915731  0.24463690  1
  S  S43  1  0.68086785  0.97984603  0.74465054  1
  S  S44  1  0.68687239  0.65252508  0.57799816  1
  S  S45  1  0.34750506  0.31318456  0.07800627  1
  S  S46  1  0.35348444  0.98582152  0.91134345  1
  S  S47  1  0.01418449  0.64652910  0.41134321  1
  O  O48  1  0.22473363  0.99778099  0.31671465  1
  O  O49  1  0.79632793  0.78777778  0.31216945  1
  O  O50  1  0.99228231  0.22169343  0.29831185  1
  O  O51  1  0.21225644  0.20364432  0.81217869  1
  O  O52  1  0.00219912  0.77522627  0.81670242  1
  O  O53  1  0.77835839  0.00777568  0.79831672  1
  O  O54  1  0.76762284  0.96785679  0.69333839  1
  O  O55  1  0.17103257  0.19729251  0.69631868  1
  O  O56  1  0.02951923  0.83503351  0.70146272  1
  O  O57  1  0.80268761  0.82895121  0.19630008  1
  O  O58  1  0.03215114  0.23239468  0.19332807  1
  O  O59  1  0.16489415  0.97047472  0.20146877  1
  O  O60  1  0.89145216  0.33109543  0.65004239  1
  O  O61  1  0.46309835  0.12105424  0.64550588  1
  O  O62  1  0.65895633  0.55506937  0.63166883  1
  O  O63  1  0.87895300  0.53696925  0.14550297  1
  O  O64  1  0.66892676  0.10859237  0.15004255  1
  O  O65  1  0.44499223  0.34108283  0.13166864  1
  O  O66  1  0.43426998  0.30121674  0.02668740  1
  O  O67  1  0.83781439  0.53072746  0.02963772  1
  O  O68  1  0.69621219  0.16843131  0.03480280  1
  O  O69  1  0.46928810  0.16222172  0.52964431  1
  O  O70  1  0.69879913  0.56568786  0.52669041  1
  O  O71  1  0.83156525  0.30377494  0.53480178  1
  O  O72  1  0.55809892  0.66444418  0.98337459  1
  O  O73  1  0.12970774  0.45436934  0.97884162  1
  O  O74  1  0.32555295  0.88829390  0.96498649  1
  O  O75  1  0.54556347  0.87033603  0.47883757  1
  O  O76  1  0.33556859  0.44196386  0.48333835  1
  O  O77  1  0.11170605  0.67447807  0.46499072  1
  O  O78  1  0.10093624  0.63455548  0.36001404  1
  O  O79  1  0.50445723  0.86404406  0.36295750  1
  O  O80  1  0.36291010  0.50182408  0.36811615  1
  O  O81  1  0.13596726  0.49554028  0.86295961  1
  O  O82  1  0.36546322  0.89909189  0.86000724  1
  O  O83  1  0.49824992  0.63713692  0.86812764  1
  O  O84  1  0.98646200  0.78652387  0.40777711  1
  O  O85  1  0.80731152  0.98457040  0.41551627  1
  O  O86  1  0.21065901  0.18486276  0.41617046  1
  O  O87  1  0.01547172  0.19266694  0.91550865  1
  O  O88  1  0.21346919  0.01351338  0.90778169  1
  O  O89  1  0.81518356  0.78934410  0.91618270  1
  O  O90  1  0.95376587  0.13248174  0.58880299  1
  O  O91  1  0.18890396  0.03502705  0.58826729  1
  O  O92  1  0.83926629  0.81315566  0.58391596  1
  O  O93  1  0.96501401  0.81111853  0.08825677  1
  O  O94  1  0.86747863  0.04620008  0.08880439  1
  O  O95  1  0.18684457  0.16081823  0.08392913  1
  O  O96  1  0.65321739  0.11988401  0.74109064  1
  O  O97  1  0.47399148  0.31782386  0.74884359  1
  O  O98  1  0.87745391  0.51808714  0.74952593  1
  O  O99  1  0.68218163  0.52606005  0.24883049  1
  O  O100  1  0.88014858  0.34681779  0.24109042  1
  O  O101  1  0.48183833  0.12263175  0.24952699  1
  O  O102  1  0.62045498  0.46586009  0.92216731  1
  O  O103  1  0.85556657  0.36836680  0.92158823  1
  O  O104  1  0.50586197  0.14647062  0.91728169  1
  O  O105  1  0.63160485  0.14447761  0.42158129  1
  O  O106  1  0.53415545  0.37957330  0.42216540  1
  O  O107  1  0.85354815  0.49412788  0.41728063  1
  O  O108  1  0.31982664  0.45321040  0.07445182  1
  O  O109  1  0.14070581  0.65118827  0.08218893  1
  O  O110  1  0.54403655  0.85144118  0.08285579  1
  O  O111  1  0.34876641  0.85931403  0.58218920  1
  O  O112  1  0.54688496  0.68025221  0.57441716  1
  O  O113  1  0.14852972  0.45592920  0.58284069  1
  O  O114  1  0.28705709  0.79916573  0.25550254  1
  O  O115  1  0.52223123  0.70173179  0.25490283  1
  O  O116  1  0.17255983  0.47982406  0.25056092  1
  O  O117  1  0.29831010  0.47774508  0.75492067  1
  O  O118  1  0.20088592  0.71295593  0.75550465  1
  O  O119  1  0.52019703  0.82748141  0.75058507  1
