# generated using pymatgen
data_Na6Nb3Ga(SiO4)6
_symmetry_space_group_name_H-M   'P 1'
_cell_length_a   15.70970351
_cell_length_b   9.05302587
_cell_length_c   9.01988603
_cell_angle_alpha   90.66793568
_cell_angle_beta   124.91984653
_cell_angle_gamma   89.74057681
_symmetry_Int_Tables_number   1
_chemical_formula_structural   Na6Nb3Ga(SiO4)6
_chemical_formula_sum   'Na12 Nb6 Ga2 Si12 O48'
_cell_volume   1051.77078175
_cell_formula_units_Z   2
loop_
 _symmetry_equiv_pos_site_id
 _symmetry_equiv_pos_as_xyz
  1  'x, y, z'
loop_
 _atom_site_type_symbol
 _atom_site_label
 _atom_site_symmetry_multiplicity
 _atom_site_fract_x
 _atom_site_fract_y
 _atom_site_fract_z
 _atom_site_occupancy
  Na  Na0  1  0.24971655  0.75031908  0.99830663  1
  Na  Na1  1  0.74353137  0.74852403  0.48058807  1
  Na  Na2  1  0.74971655  0.25031908  0.99830663  1
  Na  Na3  1  0.24353137  0.24852403  0.48058807  1
  Na  Na4  1  0.50341741  0.08927572  0.76243828  1
  Na  Na5  1  0.50095209  0.88925543  0.23573439  1
  Na  Na6  1  0.00341741  0.58927572  0.76243828  1
  Na  Na7  1  0.00095209  0.38925543  0.23573439  1
  Na  Na8  1  0.80476951  0.92806264  0.20571777  1
  Na  Na9  1  0.18520410  0.07575043  0.80609396  1
  Na  Na10  1  0.30476951  0.42806264  0.20571777  1
  Na  Na11  1  0.68520410  0.57575043  0.80609396  1
  Nb  Nb12  1  0.10586143  0.75239603  0.56421858  1
  Nb  Nb13  1  0.89366668  0.75268403  0.92657122  1
  Nb  Nb14  1  0.89270253  0.24858688  0.43295398  1
  Nb  Nb15  1  0.60586143  0.25239603  0.56421858  1
  Nb  Nb16  1  0.39366668  0.25268403  0.92657122  1
  Nb  Nb17  1  0.39270253  0.74858688  0.43295398  1
  Ga  Ga18  1  0.10482200  0.24766802  0.06809096  1
  Ga  Ga19  1  0.60482200  0.74766802  0.06809096  1
  Si  Si20  1  0.99987341  0.96556713  0.75550877  1
  Si  Si21  1  0.00500036  0.04472765  0.25075335  1
  Si  Si22  1  0.49987341  0.46556713  0.75550877  1
  Si  Si23  1  0.50500036  0.54472765  0.25075335  1
  Si  Si24  1  0.35799571  0.88766960  0.76398773  1
  Si  Si25  1  0.64590680  0.89530077  0.75266501  1
  Si  Si26  1  0.64549441  0.10441563  0.24217812  1
  Si  Si27  1  0.35167956  0.10477865  0.24998965  1
  Si  Si28  1  0.85799571  0.38766960  0.76398773  1
  Si  Si29  1  0.14590680  0.39530077  0.75266501  1
  Si  Si30  1  0.14549441  0.60441563  0.24217812  1
  Si  Si31  1  0.85167956  0.60477865  0.24998965  1
  O  O32  1  0.14892519  0.57544855  0.73568839  1
  O  O33  1  0.84880475  0.57126849  0.75813825  1
  O  O34  1  0.85268745  0.42357585  0.25723739  1
  O  O35  1  0.15423259  0.42691980  0.24555490  1
  O  O36  1  0.64892519  0.07544855  0.73568839  1
  O  O37  1  0.34880475  0.07126849  0.75813825  1
  O  O38  1  0.35268745  0.92357585  0.25723739  1
  O  O39  1  0.65423259  0.92691980  0.24555490  1
  O  O40  1  0.42944238  0.56502245  0.56859861  1
  O  O41  1  0.57671253  0.57110826  0.92583843  1
  O  O42  1  0.56757250  0.43738817  0.43042729  1
  O  O43  1  0.43411693  0.42726481  0.07861819  1
  O  O44  1  0.92944238  0.06502245  0.56859861  1
  O  O45  1  0.07671253  0.07110826  0.92583843  1
  O  O46  1  0.06757250  0.93738817  0.43042729  1
  O  O47  1  0.93411693  0.92726481  0.07861819  1
  O  O48  1  0.25392820  0.82704807  0.74429922  1
  O  O49  1  0.74061257  0.81140885  0.75784625  1
  O  O50  1  0.74385841  0.17796600  0.25222582  1
  O  O51  1  0.25998427  0.19034736  0.24379458  1
  O  O52  1  0.75392820  0.32704807  0.74429922  1
  O  O53  1  0.24061257  0.31140885  0.75784625  1
  O  O54  1  0.24385841  0.67796600  0.25222582  1
  O  O55  1  0.75998427  0.69034736  0.24379458  1
  O  O56  1  0.36093745  0.84943515  0.58555964  1
  O  O57  1  0.64761118  0.86774163  0.93123990  1
  O  O58  1  0.64059918  0.15325015  0.41467753  1
  O  O59  1  0.35352370  0.14155284  0.07123583  1
  O  O60  1  0.86093745  0.34943515  0.58555964  1
  O  O61  1  0.14761118  0.36774163  0.93123990  1
  O  O62  1  0.14059918  0.65325015  0.41467753  1
  O  O63  1  0.85352370  0.64155284  0.07123583  1
  O  O64  1  0.46289706  0.83217996  0.94624465  1
  O  O65  1  0.53768264  0.82630171  0.57044861  1
  O  O66  1  0.53639620  0.16825961  0.06057195  1
  O  O67  1  0.46309551  0.16879472  0.42813253  1
  O  O68  1  0.96289706  0.33217996  0.94624465  1
  O  O69  1  0.03768264  0.32630171  0.57044861  1
  O  O70  1  0.03639620  0.66825961  0.06057195  1
  O  O71  1  0.96309551  0.66879472  0.42813253  1
  O  O72  1  0.07810988  0.85497799  0.73731831  1
  O  O73  1  0.91943966  0.85242630  0.75959169  1
  O  O74  1  0.91597672  0.13970011  0.25507288  1
  O  O75  1  0.08225914  0.15563146  0.24584268  1
  O  O76  1  0.57810988  0.35497799  0.73731831  1
  O  O77  1  0.41943966  0.35242630  0.75959169  1
  O  O78  1  0.41597672  0.63970011  0.25507288  1
  O  O79  1  0.58225914  0.65563146  0.24584268  1
