# generated using pymatgen
data_Ge3(BiO3)4
_symmetry_space_group_name_H-M   'P 1'
_cell_length_a   9.09880995
_cell_length_b   9.09878110
_cell_length_c   9.09880977
_cell_angle_alpha   109.47101996
_cell_angle_beta   109.47117102
_cell_angle_gamma   109.47107392
_symmetry_Int_Tables_number   1
_chemical_formula_structural   Ge3(BiO3)4
_chemical_formula_sum   'Ge6 Bi8 O24'
_cell_volume   579.87266067
_cell_formula_units_Z   2
loop_
 _symmetry_equiv_pos_site_id
 _symmetry_equiv_pos_as_xyz
  1  'x, y, z'
loop_
 _atom_site_type_symbol
 _atom_site_label
 _atom_site_symmetry_multiplicity
 _atom_site_fract_x
 _atom_site_fract_y
 _atom_site_fract_z
 _atom_site_occupancy
  Ge  Ge0  1  0.87499670  0.25000007  0.12500132  1
  Ge  Ge1  1  0.12499687  0.87499980  0.24999876  1
  Ge  Ge2  1  0.37499632  0.62499672  0.74999480  1
  Ge  Ge3  1  0.24999610  0.12499763  0.87499675  1
  Ge  Ge4  1  0.75000008  0.37500019  0.62499813  1
  Ge  Ge5  1  0.62500120  0.75000018  0.37499881  1
  Bi  Bi6  1  0.50000072  -0.00000006  0.66970937  1
  Bi  Bi7  1  0.16970917  0.49999991  -0.00000052  1
  Bi  Bi8  1  0.33029063  0.33028984  0.33029066  1
  Bi  Bi9  1  0.00000091  0.16970908  0.50000121  1
  Bi  Bi10  1  0.83029072  0.83029070  0.83029067  1
  Bi  Bi11  1  0.00000043  0.66970837  0.50000005  1
  Bi  Bi12  1  0.66970903  0.50000054  0.00000052  1
  Bi  Bi13  1  0.50000111  0.00000142  0.16970955  1
  O  O14  1  0.69622895  0.33609253  0.78185771  1
  O  O15  1  0.78185618  0.69622898  0.33609224  1
  O  O16  1  0.58562830  0.63986344  0.80377196  1
  O  O17  1  0.44576517  0.16390801  0.86013649  1
  O  O18  1  0.71814343  0.05423476  0.91437084  1
  O  O19  1  0.33609356  0.78185654  0.69622931  1
  O  O20  1  0.36013640  0.66390835  0.94576621  1
  O  O21  1  0.21814617  0.41437388  0.55423743  1
  O  O22  1  0.13986293  0.08562606  0.30377133  1
  O  O23  1  0.55423534  0.21814436  0.41437150  1
  O  O24  1  0.66390764  0.94576266  0.36013630  1
  O  O25  1  0.83609207  0.19622982  0.28185589  1
  O  O26  1  0.19622954  0.28185726  0.83609271  1
  O  O27  1  0.41437106  0.55423516  0.21814363  1
  O  O28  1  0.28185801  0.83609212  0.19622846  1
  O  O29  1  0.91437223  0.71814508  0.05423610  1
  O  O30  1  0.16390840  0.86013667  0.44576421  1
  O  O31  1  0.63986368  0.80377280  0.58562953  1
  O  O32  1  0.86013630  0.44576305  0.16390793  1
  O  O33  1  0.05423686  0.91437377  0.71814562  1
  O  O34  1  0.80377171  0.58562660  0.63986426  1
  O  O35  1  0.94576479  0.36013777  0.66390945  1
  O  O36  1  0.08563050  0.30377379  0.13986469  1
  O  O37  1  0.30377280  0.13986414  0.08562912  1
