# generated using pymatgen
data_Na10La4Sc4Si5S7O48
_symmetry_space_group_name_H-M   'P 1'
_cell_length_a   18.75332624
_cell_length_b   9.36200692
_cell_length_c   23.71929079
_cell_angle_alpha   89.94825220
_cell_angle_beta   89.52118530
_cell_angle_gamma   120.04243043
_symmetry_Int_Tables_number   1
_chemical_formula_structural   Na10La4Sc4Si5S7O48
_chemical_formula_sum   'Na30 La12 Sc12 Si15 S21 O144'
_cell_volume   3604.71628837
_cell_formula_units_Z   3
loop_
 _symmetry_equiv_pos_site_id
 _symmetry_equiv_pos_as_xyz
  1  'x, y, z'
loop_
 _atom_site_type_symbol
 _atom_site_label
 _atom_site_symmetry_multiplicity
 _atom_site_fract_x
 _atom_site_fract_y
 _atom_site_fract_z
 _atom_site_occupancy
  Na  Na0  1  0.33069229  0.00131764  0.24976146  1
  Na  Na1  1  0.82441242  0.99255060  0.25441004  1
  Na  Na2  1  0.18561183  0.38665610  0.24261910  1
  Na  Na3  1  0.67464709  0.37040018  0.24608706  1
  Na  Na4  1  0.99211779  0.62962480  0.26301863  1
  Na  Na5  1  0.49520769  0.62075664  0.25883713  1
  Na  Na6  1  0.83199517  0.65381857  0.74006826  1
  Na  Na7  1  0.98831704  0.35797239  0.75198494  1
  Na  Na8  1  0.49246507  0.34753620  0.75680688  1
  Na  Na9  1  0.17747649  0.99257728  0.73767710  1
  Na  Na10  1  0.02005851  0.71520386  0.58738988  1
  Na  Na11  1  0.32936535  0.97990344  0.59449601  1
  Na  Na12  1  0.02436267  0.32974541  0.08522169  1
  Na  Na13  1  0.51572632  0.32873719  0.08909649  1
  Na  Na14  1  0.15888717  0.30068239  0.92917728  1
  Na  Na15  1  0.66238406  0.30324720  0.93187023  1
  Na  Na16  1  0.16163670  0.01539190  0.42734539  1
  Na  Na17  1  0.66039477  0.02519914  0.42501773  1
  Na  Na18  1  0.99768482  0.99362792  0.50597193  1
  Na  Na19  1  0.51358503  0.98969502  0.49355777  1
  Na  Na20  1  0.00476964  0.01169298  0.00046093  1
  Na  Na21  1  0.50874344  0.00907469  0.00631803  1
  Na  Na22  1  0.34870477  0.33134658  0.83639235  1
  Na  Na23  1  0.85284076  0.32453359  0.82873483  1
  Na  Na24  1  0.35613410  0.36896478  0.33816130  1
  Na  Na25  1  0.85056971  0.36949403  0.33926336  1
  Na  Na26  1  0.17857901  0.65545520  0.17014527  1
  Na  Na27  1  0.67844622  0.65455504  0.16532112  1
  Na  Na28  1  0.17203681  0.68144152  0.67102440  1
  Na  Na29  1  0.68647595  0.72654335  0.65695679  1
  La  La30  1  0.98725487  0.98645143  0.35340330  1
  La  La31  1  0.98741373  0.98986261  0.84634280  1
  La  La32  1  0.49401472  0.01183801  0.84837129  1
  La  La33  1  0.50974381  0.00244704  0.64249554  1
  La  La34  1  0.99940415  0.00278093  0.15780617  1
  La  La35  1  0.82391079  0.33290531  0.17922591  1
  La  La36  1  0.33870555  0.33501532  0.98808549  1
  La  La37  1  0.83494440  0.33325131  0.98505129  1
  La  La38  1  0.17148078  0.65935583  0.01940673  1
  La  La39  1  0.16495601  0.66408940  0.51803450  1
  La  La40  1  0.16240391  0.66590468  0.81371811  1
  La  La41  1  0.66938993  0.68759293  0.81523740  1
  Sc  Sc42  1  0.48780923  0.97842521  0.34810176  1
  Sc  Sc43  1  0.99955579  0.99048139  0.64754605  1
  Sc  Sc44  1  0.50095261  0.01230771  0.15541847  1
  Sc  Sc45  1  0.32974145  0.32286639  0.67884222  1
  Sc  Sc46  1  0.82540731  0.30805964  0.68065916  1
  Sc  Sc47  1  0.33457450  0.34956927  0.18562116  1
  Sc  Sc48  1  0.33643608  0.34355832  0.48071404  1
  Sc  Sc49  1  0.83504537  0.34216872  0.48252880  1
  Sc  Sc50  1  0.65845238  0.64635820  0.01827382  1
  Sc  Sc51  1  0.65687296  0.68233393  0.51690674  1
  Sc  Sc52  1  0.16146174  0.65452618  0.31842621  1
  Sc  Sc53  1  0.65278095  0.63700884  0.31958007  1
  Si  Si54  1  0.35335021  0.70908169  0.24991750  1
  Si  Si55  1  0.83830888  0.69000470  0.25233017  1
  Si  Si56  1  0.00224657  0.31737176  0.24932220  1
  Si  Si57  1  0.49691977  0.28852155  0.25096984  1
  Si  Si58  1  0.99322406  0.68905901  0.74093424  1
  Si  Si59  1  0.34902881  0.01351676  0.73957873  1
  Si  Si60  1  0.85202393  0.00317834  0.74128143  1
  Si  Si61  1  0.18603154  0.04991026  0.58027386  1
  Si  Si62  1  0.69182337  0.04360228  0.57588158  1
  Si  Si63  1  0.18352241  0.33018299  0.08623537  1
  Si  Si64  1  0.66965490  0.32505149  0.08165478  1
  Si  Si65  1  0.01242504  0.35292207  0.91666073  1
  Si  Si66  1  0.51914471  0.37027783  0.91558963  1
  Si  Si67  1  0.01461722  0.65731865  0.41780324  1
  Si  Si68  1  0.51669589  0.66981605  0.41566369  1
  S  S69  1  0.15941968  0.00128438  0.25337265  1
  S  S70  1  0.63937697  0.98707394  0.25403764  1
  S  S71  1  0.15122616  0.29033569  0.74348219  1
  S  S72  1  0.65807049  0.30723160  0.74999154  1
  S  S73  1  0.49242370  0.68031354  0.74752641  1
  S  S74  1  0.47788507  0.34437943  0.58042874  1
  S  S75  1  0.97282246  0.32375453  0.58462915  1
  S  S76  1  0.33401396  0.61646381  0.58304293  1
  S  S77  1  0.83230430  0.62335536  0.58317791  1
  S  S78  1  0.48739082  0.64375814  0.08909838  1
  S  S79  1  0.98937120  0.64629349  0.08549652  1
  S  S80  1  0.33821494  0.03747297  0.09369139  1
  S  S81  1  0.82788122  0.00901327  0.08379851  1
  S  S82  1  0.32069556  0.66204553  0.91436324  1
  S  S83  1  0.81117570  0.66683547  0.92039700  1
  S  S84  1  0.16751333  0.97872280  0.91595331  1
  S  S85  1  0.66265023  0.96451290  0.92235437  1
  S  S86  1  0.31826507  0.97280607  0.41404635  1
  S  S87  1  0.80385051  0.95873320  0.41866571  1
  S  S88  1  0.17546100  0.36983787  0.41383241  1
  S  S89  1  0.66689427  0.37252955  0.41795271  1
  O  O90  1  0.12325598  0.03628245  0.30368963  1
  O  O91  1  0.60141039  0.01383804  0.30504046  1
  O  O92  1  0.41337979  0.78357428  0.30528055  1
  O  O93  1  0.90905187  0.76818171  0.30111655  1
  O  O94  1  0.48153345  0.15616716  0.30154543  1
  O  O95  1  0.98661639  0.18349088  0.29875592  1
  O  O96  1  0.12118379  0.20251689  0.79845209  1
  O  O97  1  0.62473885  0.21445158  0.80353690  1
  O  O98  1  0.48962513  0.76193239  0.80011584  1
  O  O99  1  0.97898972  0.77192889  0.79753641  1
  O  O100  1  0.41020730  0.04948237  0.79411361  1
  O  O101  1  0.90063648  0.04276658  0.80161914  1
  O  O102  1  0.39311421  0.99441289  0.68253570  1
  O  O103  1  0.91074064  0.98697780  0.69285990  1
  O  O104  1  0.09479115  0.19210862  0.69755640  1
  O  O105  1  0.60059050  0.21817539  0.70335946  1
  O  O106  1  0.00973840  0.81486633  0.68671495  1
  O  O107  1  0.50358041  0.78566055  0.69792752  1
  O  O108  1  0.40021330  0.83680321  0.19738560  1
  O  O109  1  0.87665929  0.80766170  0.19631909  1
  O  O110  1  0.02191657  0.25338932  0.18972420  1
  O  O111  1  0.51736327  0.21682111  0.19287197  1
  O  O112  1  0.10361873  0.95937712  0.20463690  1
  O  O113  1  0.59088876  0.97319400  0.20311667  1
  O  O114  1  0.44191039  0.36110713  0.63451984  1
  O  O115  1  0.93247297  0.34234671  0.63599594  1
  O  O116  1  0.24428916  0.14439170  0.63575850  1
  O  O117  1  0.74126535  0.13557047  0.63326797  1
  O  O118  1  0.33563611  0.52939328  0.63389705  1
  O  O119  1  0.82280338  0.53057543  0.63621716  1
  O  O120  1  0.44400457  0.52718321  0.13745933  1
  O  O121  1  0.94847424  0.55410376  0.13853123  1
  O  O122  1  0.33422423  0.13480009  0.14144545  1
  O  O123  1  0.81777613  0.07485771  0.13875421  1
  O  O124  1  0.24173401  0.33339103  0.13959196  1
  O  O125  1  0.72210486  0.35427028  0.13971959  1
  O  O126  1  0.22564962  0.33165857  0.02473036  1
  O  O127  1  0.71541356  0.30777746  0.02521518  1
  O  O128  1  0.43932290  0.57487276  0.03691115  1
  O  O129  1  0.94060620  0.55227373  0.03632852  1
  O  O130  1  0.35044582  0.12995134  0.03965362  1
  O  O131  1  0.83868193  0.12578883  0.03808260  1
  O  O132  1  0.23587816  0.15311548  0.52262005  1
  O  O133  1  0.74144524  0.15584796  0.52031316  1
  O  O134  1  0.33478023  0.52881015  0.53123404  1
  O  O135  1  0.84578071  0.53713607  0.53454218  1
  O  O136  1  0.42401994  0.33156391  0.53291868  1
  O  O137  1  0.92608534  0.31604681  0.53346088  1
  O  O138  1  0.28175068  0.67892733  0.96642678  1
  O  O139  1  0.75927020  0.67109464  0.96754981  1
  O  O140  1  0.06832566  0.45685553  0.97235261  1
  O  O141  1  0.57572440  0.48245232  0.96948696  1
  O  O142  1  0.16883105  0.88496120  0.96558882  1
  O  O143  1  0.66437909  0.86496851  0.97047037  1
  O  O144  1  0.28438111  0.87973439  0.46796503  1
  O  O145  1  0.75860304  0.85259131  0.46754144  1
  O  O146  1  0.16768176  0.45011311  0.46506872  1
  O  O147  1  0.65821695  0.46106399  0.46670385  1
  O  O148  1  0.06864960  0.68101997  0.47515049  1
  O  O149  1  0.58059154  0.70170821  0.46835238  1
  O  O150  1  0.06765694  0.64779704  0.36218408  1
  O  O151  1  0.55822624  0.63942379  0.35822805  1
  O  O152  1  0.26292545  0.88174222  0.36653809  1
  O  O153  1  0.76142791  0.87899056  0.36504241  1
  O  O154  1  0.18011229  0.46599794  0.36272200  1
  O  O155  1  0.67568902  0.46611659  0.36435082  1
  O  O156  1  0.05873862  0.44971912  0.85747493  1
  O  O157  1  0.56219764  0.45737011  0.85486877  1
  O  O158  1  0.17211820  0.90030348  0.86277484  1
  O  O159  1  0.66860537  0.89380149  0.86799515  1
  O  O160  1  0.27495653  0.66312332  0.86431502  1
  O  O161  1  0.77470261  0.66863139  0.86512418  1
  O  O162  1  0.01599843  0.83488438  0.41590190  1
  O  O163  1  0.51500142  0.84525856  0.40927047  1
  O  O164  1  0.40179047  0.99642843  0.40621332  1
  O  O165  1  0.88889569  0.98525870  0.42075821  1
  O  O166  1  0.10345023  0.19938979  0.41222842  1
  O  O167  1  0.59444421  0.20164945  0.41360523  1
  O  O168  1  0.01449920  0.17937771  0.91992966  1
  O  O169  1  0.52063012  0.19428301  0.92050547  1
  O  O170  1  0.09206673  0.99213796  0.91781898  1
  O  O171  1  0.58590171  0.97447153  0.92408319  1
  O  O172  1  0.40660749  0.80192707  0.91394670  1
  O  O173  1  0.89505656  0.80846587  0.92526475  1
  O  O174  1  0.48033208  0.18696906  0.58075115  1
  O  O175  1  0.98427848  0.17888230  0.58741891  1
  O  O176  1  0.09091704  0.01630450  0.58496469  1
  O  O177  1  0.59874700  0.02302320  0.57534185  1
  O  O178  1  0.40694038  0.78760443  0.58018135  1
  O  O179  1  0.91072661  0.78987994  0.58596097  1
  O  O180  1  0.49936809  0.80835362  0.09869785  1
  O  O181  1  0.99849522  0.81046343  0.08417250  1
  O  O182  1  0.41265763  0.01968429  0.09748896  1
  O  O183  1  0.90432990  0.99918705  0.08344099  1
  O  O184  1  0.08892067  0.17079749  0.08629363  1
  O  O185  1  0.57679666  0.16156126  0.08818131  1
  O  O186  1  0.34279814  0.18509995  0.73798509  1
  O  O187  1  0.84106098  0.16526082  0.73441452  1
  O  O188  1  0.23476256  0.31287108  0.73447017  1
  O  O189  1  0.74111712  0.33079505  0.74048038  1
  O  O190  1  0.41657544  0.51658513  0.74329798  1
  O  O191  1  0.91084039  0.50697385  0.73389220  1
  O  O192  1  0.34147499  0.52152183  0.24007945  1
  O  O193  1  0.82002449  0.49923991  0.24738765  1
  O  O194  1  0.41623181  0.31443282  0.24344919  1
  O  O195  1  0.91987443  0.33704598  0.24726375  1
  O  O196  1  0.24143132  0.14966748  0.24194760  1
  O  O197  1  0.72490973  0.13117616  0.24919356  1
  O  O198  1  0.31940886  0.50208856  0.91471053  1
  O  O199  1  0.81143161  0.50861963  0.92172271  1
  O  O200  1  0.42593891  0.34188269  0.91837376  1
  O  O201  1  0.92044583  0.33273506  0.91677886  1
  O  O202  1  0.24021893  0.15020562  0.91578807  1
  O  O203  1  0.73358403  0.13535361  0.92251304  1
  O  O204  1  0.32120824  0.13616062  0.41830982  1
  O  O205  1  0.80814148  0.12287384  0.42120403  1
  O  O206  1  0.25150133  0.35503173  0.41626224  1
  O  O207  1  0.74259742  0.35580897  0.42248417  1
  O  O208  1  0.42519544  0.50539415  0.42735725  1
  O  O209  1  0.92271192  0.49225494  0.42262842  1
  O  O210  1  0.17200323  0.49516095  0.09163628  1
  O  O211  1  0.65791480  0.49106487  0.07552605  1
  O  O212  1  0.07090068  0.65497338  0.08424768  1
  O  O213  1  0.56869929  0.64906415  0.08244515  1
  O  O214  1  0.26253018  0.87492774  0.09209522  1
  O  O215  1  0.75338599  0.84504560  0.07450578  1
  O  O216  1  0.18183811  0.86617604  0.58275751  1
  O  O217  1  0.68080748  0.85535915  0.57351542  1
  O  O218  1  0.25904982  0.63424277  0.58533004  1
  O  O219  1  0.75999404  0.64406101  0.57484116  1
  O  O220  1  0.05607819  0.47954930  0.58309922  1
  O  O221  1  0.56254889  0.48715712  0.57404300  1
  O  O222  1  0.17223009  0.85804345  0.26258900  1
  O  O223  1  0.64565992  0.83451801  0.25826458  1
  O  O224  1  0.26108306  0.68789615  0.26012380  1
  O  O225  1  0.75067108  0.68722583  0.26493402  1
  O  O226  1  0.08634778  0.50040431  0.25985687  1
  O  O227  1  0.57980754  0.47302967  0.26062347  1
  O  O228  1  0.15569358  0.45365878  0.74453823  1
  O  O229  1  0.66511303  0.47250107  0.75251574  1
  O  O230  1  0.07588541  0.66905580  0.74401559  1
  O  O231  1  0.56412390  0.65046604  0.74728819  1
  O  O232  1  0.25510108  0.85836091  0.74660761  1
  O  O233  1  0.76476841  0.82515945  0.74250397  1
