# generated using pymatgen
data_Na14Sc3Ta5(SiO4)12
_symmetry_space_group_name_H-M   'P 1'
_cell_length_a   18.24434469
_cell_length_b   9.12054938
_cell_length_c   22.58358380
_cell_angle_alpha   90.02895396
_cell_angle_beta   89.91768202
_cell_angle_gamma   120.02283284
_symmetry_Int_Tables_number   1
_chemical_formula_structural   Na14Sc3Ta5(SiO4)12
_chemical_formula_sum   'Na42 Sc9 Ta15 Si36 O144'
_cell_volume   3253.66122429
_cell_formula_units_Z   3
loop_
 _symmetry_equiv_pos_site_id
 _symmetry_equiv_pos_as_xyz
  1  'x, y, z'
loop_
 _atom_site_type_symbol
 _atom_site_label
 _atom_site_symmetry_multiplicity
 _atom_site_fract_x
 _atom_site_fract_y
 _atom_site_fract_z
 _atom_site_occupancy
  Na  Na0  1  0.31965982  0.01098545  0.24809915  1
  Na  Na1  1  0.81667988  0.00929709  0.24663694  1
  Na  Na2  1  0.18833587  0.36738307  0.24644991  1
  Na  Na3  1  0.68574065  0.36041529  0.24818852  1
  Na  Na4  1  0.99544864  0.62357822  0.24710569  1
  Na  Na5  1  0.49401435  0.62805027  0.24775342  1
  Na  Na6  1  0.31698508  0.62503162  0.74763016  1
  Na  Na7  1  0.81685844  0.62484146  0.74782993  1
  Na  Na8  1  0.99530077  0.36628933  0.74788471  1
  Na  Na9  1  0.49517562  0.36604428  0.74776024  1
  Na  Na10  1  0.18808396  0.00913271  0.74759953  1
  Na  Na11  1  0.68777613  0.00894488  0.74764202  1
  Na  Na12  1  0.15326412  0.34566862  0.58055776  1
  Na  Na13  1  0.65266540  0.34427687  0.58077877  1
  Na  Na14  1  0.01974379  0.69437347  0.58050971  1
  Na  Na15  1  0.51906212  0.69391104  0.58073678  1
  Na  Na16  1  0.32741920  0.96013015  0.58046197  1
  Na  Na17  1  0.82780960  0.96140171  0.58126183  1
  Na  Na18  1  0.15385617  0.96188680  0.08065131  1
  Na  Na19  1  0.65285089  0.96124184  0.08092981  1
  Na  Na20  1  0.32798606  0.69493325  0.08144488  1
  Na  Na21  1  0.82735723  0.69358069  0.08102097  1
  Na  Na22  1  0.01922831  0.34494068  0.08042910  1
  Na  Na23  1  0.51901813  0.34402064  0.08089316  1
  Na  Na24  1  0.34804778  0.02884662  0.91916205  1
  Na  Na25  1  0.84797307  0.02883698  0.91909122  1
  Na  Na26  1  0.48490649  0.29340781  0.41522355  1
  Na  Na27  1  0.66114162  0.02936217  0.41504159  1
  Na  Na28  1  0.35258596  0.67757887  0.41547113  1
  Na  Na29  1  0.84828790  0.66789267  0.41756286  1
  Na  Na30  1  0.00382482  0.00726527  0.49740407  1
  Na  Na31  1  0.49947489  0.99981582  0.49459847  1
  Na  Na32  1  0.00352040  0.99978706  0.99799706  1
  Na  Na33  1  0.50341741  0.99981895  0.99866051  1
  Na  Na34  1  0.33314615  0.33872590  0.83321774  1
  Na  Na35  1  0.83312019  0.33873625  0.83319718  1
  Na  Na36  1  0.33121356  0.32924243  0.33022996  1
  Na  Na37  1  0.83525972  0.33157798  0.33032872  1
  Na  Na38  1  0.16731710  0.66709824  0.16145551  1
  Na  Na39  1  0.66625911  0.66654902  0.16124146  1
  Na  Na40  1  0.16698428  0.66701997  0.66170615  1
  Na  Na41  1  0.66655797  0.66663818  0.66209639  1
  Sc  Sc42  1  0.49933465  0.99966050  0.35129866  1
  Sc  Sc43  1  0.33339055  0.33334738  0.68524231  1
  Sc  Sc44  1  0.83323311  0.33302752  0.68540040  1
  Sc  Sc45  1  0.33349593  0.33391143  0.18411720  1
  Sc  Sc46  1  0.83305114  0.33287730  0.18443974  1
  Sc  Sc47  1  0.16607967  0.66588951  0.01656778  1
  Sc  Sc48  1  0.66585013  0.66557209  0.01657356  1
  Sc  Sc49  1  0.16506524  0.66506366  0.51654997  1
  Sc  Sc50  1  0.66749273  0.66778317  0.51754895  1
  Ta  Ta51  1  0.00257812  0.00403795  0.35449456  1
  Ta  Ta52  1  0.00178590  0.00006012  0.85520068  1
  Ta  Ta53  1  0.50175790  -0.00000757  0.85518937  1
  Ta  Ta54  1  0.00000611  0.99966244  0.64633946  1
  Ta  Ta55  1  0.49991657  0.99983885  0.64583405  1
  Ta  Ta56  1  0.99993358  0.00028339  0.14573936  1
  Ta  Ta57  1  0.49984953  0.00002833  0.14689036  1
  Ta  Ta58  1  0.33336483  0.33754562  0.97891527  1
  Ta  Ta59  1  0.83327205  0.33762197  0.97885986  1
  Ta  Ta60  1  0.33019704  0.32830230  0.47923890  1
  Ta  Ta61  1  0.83646008  0.33432477  0.47934386  1
  Ta  Ta62  1  0.16720474  0.66808242  0.31503345  1
  Ta  Ta63  1  0.66595182  0.66582873  0.31400866  1
  Ta  Ta64  1  0.16645075  0.66575617  0.81569872  1
  Ta  Ta65  1  0.66630068  0.66556784  0.81569791  1
  Si  Si66  1  0.14453617  0.99749893  0.25020585  1
  Si  Si67  1  0.64605758  -0.00022063  0.25123154  1
  Si  Si68  1  0.35318794  0.70751852  0.25121414  1
  Si  Si69  1  0.85511687  0.71137509  0.25129535  1
  Si  Si70  1  0.00094840  0.29047891  0.25086019  1
  Si  Si71  1  0.50016833  0.29294586  0.25114497  1
  Si  Si72  1  0.14434377  0.29100412  0.75060417  1
  Si  Si73  1  0.64422578  0.29076190  0.75050572  1
  Si  Si74  1  0.00102127  0.71138256  0.75091786  1
  Si  Si75  1  0.50101891  0.71163497  0.75078578  1
  Si  Si76  1  0.35476988  0.99794381  0.75125773  1
  Si  Si77  1  0.85465258  0.99781173  0.75132214  1
  Si  Si78  1  0.47877156  0.33354336  0.58419988  1
  Si  Si79  1  0.97946716  0.33335614  0.58513950  1
  Si  Si80  1  0.18728706  0.04072390  0.58519712  1
  Si  Si81  1  0.68812467  0.04319133  0.58410907  1
  Si  Si82  1  0.33303494  0.62413741  0.58416553  1
  Si  Si83  1  0.83341399  0.62460259  0.58455760  1
  Si  Si84  1  0.47932038  0.62530262  0.08425157  1
  Si  Si85  1  0.97917534  0.62437125  0.08458754  1
  Si  Si86  1  0.33325299  0.04192135  0.08386679  1
  Si  Si87  1  0.83318903  0.04220095  0.08361658  1
  Si  Si88  1  0.18782227  0.33356604  0.08417265  1
  Si  Si89  1  0.68769681  0.33331124  0.08441906  1
  Si  Si90  1  0.31277452  0.66400481  0.91720346  1
  Si  Si91  1  0.81273100  0.66416672  0.91721324  1
  Si  Si92  1  0.02017983  0.37467754  0.91781744  1
  Si  Si93  1  0.52013946  0.37450929  0.91780188  1
  Si  Si94  1  0.16613253  0.95980911  0.91793646  1
  Si  Si95  1  0.66610429  0.95975911  0.91793059  1
  Si  Si96  1  0.31212231  0.95999451  0.41828690  1
  Si  Si97  1  0.81369744  0.96062137  0.41689242  1
  Si  Si98  1  0.16577166  0.37356092  0.41780703  1
  Si  Si99  1  0.66699889  0.37341301  0.41802748  1
  Si  Si100  1  0.02131317  0.66723754  0.41737663  1
  Si  Si101  1  0.51965092  0.66591562  0.41838399  1
  O  O102  1  0.09386759  0.02252144  0.30547498  1
  O  O103  1  0.60453775  0.03180442  0.30902541  1
  O  O104  1  0.41092847  0.79045055  0.30888502  1
  O  O105  1  0.91585396  0.80766437  0.30797242  1
  O  O106  1  0.48447504  0.17823746  0.30892829  1
  O  O107  1  0.98767812  0.16282221  0.30578521  1
  O  O108  1  0.09366980  0.16412612  0.80538730  1
  O  O109  1  0.59374672  0.16418590  0.80542134  1
  O  O110  1  0.48755852  0.81216134  0.80555152  1
  O  O111  1  0.98748812  0.81219002  0.80552577  1
  O  O112  1  0.41585706  0.02429110  0.80759219  1
  O  O113  1  0.91587830  0.02432834  0.80755944  1
  O  O114  1  0.40086454  0.96520044  0.69270380  1
  O  O115  1  0.90073267  0.96512377  0.69266816  1
  O  O116  1  0.08219153  0.19963066  0.69191655  1
  O  O117  1  0.58230876  0.19976666  0.69182154  1
  O  O118  1  0.01763177  0.83570454  0.69207515  1
  O  O119  1  0.51779162  0.83592512  0.69201469  1
  O  O120  1  0.40017284  0.83512163  0.19265528  1
  O  O121  1  0.90087014  0.83637552  0.19287366  1
  O  O122  1  0.01756156  0.19912449  0.19224630  1
  O  O123  1  0.51742251  0.19989167  0.19257944  1
  O  O124  1  0.08203634  0.96459969  0.19199411  1
  O  O125  1  0.58256435  0.96559107  0.19261871  1
  O  O126  1  0.43791966  0.36543556  0.64293946  1
  O  O127  1  0.93812748  0.36510838  0.64350949  1
  O  O128  1  0.24419113  0.12295278  0.64367292  1
  O  O129  1  0.74497343  0.12460888  0.64274817  1
  O  O130  1  0.31744416  0.51029213  0.64278914  1
  O  O131  1  0.81744402  0.51034383  0.64297667  1
  O  O132  1  0.43867552  0.51221642  0.14293650  1
  O  O133  1  0.93899865  0.51214235  0.14365250  1
  O  O134  1  0.31677181  0.12265755  0.14266820  1
  O  O135  1  0.81814658  0.12457827  0.14245773  1
  O  O136  1  0.24351059  0.36473530  0.14314070  1
  O  O137  1  0.74441738  0.36664777  0.14330433  1
  O  O138  1  0.23551945  0.29790261  0.02732596  1
  O  O139  1  0.73591015  0.29843002  0.02756112  1
  O  O140  1  0.41383978  0.52841745  0.02743848  1
  O  O141  1  0.91376327  0.52841124  0.02776542  1
  O  O142  1  0.35072957  0.16792909  0.02544944  1
  O  O143  1  0.85111087  0.16803782  0.02525652  1
  O  O144  1  0.23499912  0.17185505  0.52814789  1
  O  O145  1  0.73423528  0.16973645  0.52565179  1
  O  O146  1  0.35082724  0.53298075  0.52576208  1
  O  O147  1  0.85077979  0.53306830  0.52599998  1
  O  O148  1  0.41527814  0.29853221  0.52605578  1
  O  O149  1  0.91429339  0.29921433  0.52788078  1
  O  O150  1  0.27577528  0.70966087  0.97457741  1
  O  O151  1  0.77589639  0.70984720  0.97467142  1
  O  O152  1  0.07590694  0.45042948  0.97631387  1
  O  O153  1  0.57602028  0.45051067  0.97621961  1
  O  O154  1  0.15030457  0.84899464  0.97650126  1
  O  O155  1  0.65053280  0.84907169  0.97647922  1
  O  O156  1  0.27088808  0.84194269  0.47562894  1
  O  O157  1  0.77622634  0.84479890  0.47512710  1
  O  O158  1  0.14999715  0.45015743  0.47708272  1
  O  O159  1  0.65154050  0.45878837  0.47554649  1
  O  O160  1  0.07480058  0.70029638  0.47685690  1
  O  O161  1  0.57891586  0.69958435  0.47543478  1
  O  O162  1  0.06773676  0.63872431  0.35842288  1
  O  O163  1  0.56773683  0.63373158  0.35968921  1
  O  O164  1  0.25065432  0.86329220  0.35901427  1
  O  O165  1  0.75037302  0.86678121  0.35871233  1
  O  O166  1  0.18211212  0.49934205  0.35922990  1
  O  O167  1  0.68397171  0.50210113  0.35947349  1
  O  O168  1  0.06825442  0.49665407  0.85863727  1
  O  O169  1  0.56826530  0.49670204  0.85864450  1
  O  O170  1  0.18188354  0.86445166  0.85914473  1
  O  O171  1  0.68202241  0.86463496  0.85912178  1
  O  O172  1  0.25168040  0.63936098  0.85817257  1
  O  O173  1  0.75172010  0.63945371  0.85816776  1
  O  O174  1  0.00482274  0.82796904  0.40692990  1
  O  O175  1  0.50791580  0.82946179  0.41205493  1
  O  O176  1  0.40607131  0.98388727  0.41169319  1
  O  O177  1  0.90637140  0.97607154  0.40658990  1
  O  O178  1  0.08401355  0.18437892  0.40689261  1
  O  O179  1  0.58516907  0.18647432  0.41198675  1
  O  O180  1  0.00524640  0.18199970  0.90670908  1
  O  O181  1  0.50527807  0.18202237  0.90666253  1
  O  O182  1  0.08364786  0.98259095  0.90664321  1
  O  O183  1  0.58369216  0.98258133  0.90663927  1
  O  O184  1  0.40558810  0.83574737  0.90586333  1
  O  O185  1  0.90562123  0.83583072  0.90589210  1
  O  O186  1  0.48467645  0.15655149  0.58984018  1
  O  O187  1  0.98457981  0.15585904  0.58967285  1
  O  O188  1  0.09334820  0.03056976  0.58986535  1
  O  O189  1  0.59379695  0.03100279  0.58976750  1
  O  O190  1  0.42173608  0.81296314  0.58998433  1
  O  O191  1  0.92195682  0.81333488  0.58977076  1
  O  O192  1  0.48496060  0.81377090  0.08937610  1
  O  O193  1  0.98463684  0.81287140  0.08973229  1
  O  O194  1  0.42195158  0.03023162  0.08973831  1
  O  O195  1  0.92182350  0.02991069  0.08980566  1
  O  O196  1  0.09336125  0.15620461  0.08967392  1
  O  O197  1  0.59349671  0.15626451  0.08964235  1
  O  O198  1  0.34489651  0.16416874  0.74767524  1
  O  O199  1  0.84485362  0.16409098  0.74763942  1
  O  O200  1  0.23703442  0.31004932  0.74764877  1
  O  O201  1  0.73703026  0.30997405  0.74761885  1
  O  O202  1  0.41785450  0.52596279  0.74764444  1
  O  O203  1  0.91777962  0.52596530  0.74763150  1
  O  O204  1  0.34046486  0.51951878  0.24505776  1
  O  O205  1  0.84524675  0.52553263  0.24821592  1
  O  O206  1  0.41869251  0.31787769  0.24514939  1
  O  O207  1  0.91793734  0.30973258  0.24804761  1
  O  O208  1  0.23711191  0.16344914  0.24800138  1
  O  O209  1  0.74015943  0.16290484  0.24509864  1
  O  O210  1  0.32177000  0.49450565  0.92260169  1
  O  O211  1  0.82183959  0.49470276  0.92264041  1
  O  O212  1  0.42392880  0.34904226  0.92233450  1
  O  O213  1  0.92394070  0.34918598  0.92236490  1
  O  O214  1  0.25461711  0.14469716  0.92219194  1
  O  O215  1  0.75462090  0.14481740  0.92229160  1
  O  O216  1  0.32163002  0.15030612  0.42320962  1
  O  O217  1  0.81798123  0.14539987  0.42268070  1
  O  O218  1  0.25470023  0.36565190  0.42286004  1
  O  O219  1  0.75515526  0.36241438  0.42272998  1
  O  O220  1  0.42629168  0.48969277  0.42277271  1
  O  O221  1  0.92463329  0.49826861  0.42289174  1
  O  O222  1  0.17487681  0.49603380  0.07781155  1
  O  O223  1  0.67519881  0.49636876  0.07787006  1
  O  O224  1  0.07348202  0.65100612  0.07832265  1
  O  O225  1  0.57356336  0.65112318  0.07813144  1
  O  O226  1  0.25212020  0.85254760  0.07809350  1
  O  O227  1  0.75221336  0.85283224  0.07824987  1
  O  O228  1  0.17430788  0.85269841  0.57881076  1
  O  O229  1  0.67512635  0.85466400  0.57821251  1
  O  O230  1  0.25203814  0.65101307  0.57851572  1
  O  O231  1  0.75250916  0.65150500  0.57877879  1
  O  O232  1  0.07336753  0.49561031  0.57897166  1
  O  O233  1  0.57333973  0.49571936  0.57840768  1
  O  O234  1  0.15000068  0.82259731  0.25691036  1
  O  O235  1  0.65211801  0.82325952  0.25629918  1
  O  O236  1  0.25904243  0.69653205  0.25591187  1
  O  O237  1  0.76175001  0.69922502  0.25749014  1
  O  O238  1  0.08800562  0.47668693  0.25753925  1
  O  O239  1  0.58912408  0.48102348  0.25624415  1
  O  O240  1  0.15051844  0.47780094  0.75671658  1
  O  O241  1  0.65065775  0.47790780  0.75672707  1
  O  O242  1  0.08825953  0.69917454  0.75718163  1
  O  O243  1  0.58826306  0.69911324  0.75720055  1
  O  O244  1  0.26086641  0.82336416  0.75678257  1
  O  O245  1  0.76085412  0.82328468  0.75668478  1
