# generated using pymatgen
data_Ag5BiO4
_symmetry_space_group_name_H-M   'P 1'
_cell_length_a   8.89877888
_cell_length_b   5.90509976
_cell_length_c   13.73023396
_cell_angle_alpha   65.76872192
_cell_angle_beta   90.00000000
_cell_angle_gamma   90.00000000
_symmetry_Int_Tables_number   1
_chemical_formula_structural   Ag5BiO4
_chemical_formula_sum   'Ag20 Bi4 O16'
_cell_volume   657.93198299
_cell_formula_units_Z   4
loop_
 _symmetry_equiv_pos_site_id
 _symmetry_equiv_pos_as_xyz
  1  'x, y, z'
loop_
 _atom_site_type_symbol
 _atom_site_label
 _atom_site_symmetry_multiplicity
 _atom_site_fract_x
 _atom_site_fract_y
 _atom_site_fract_z
 _atom_site_occupancy
  Ag  Ag0  1  0.72772320  0.87442848  0.87681672  1
  Ag  Ag1  1  0.77227680  0.87442848  0.37681672  1
  Ag  Ag2  1  0.50000000  0.00000000  -0.00000000  1
  Ag  Ag3  1  0.00000000  0.00000000  0.50000000  1
  Ag  Ag4  1  0.14131966  0.61199711  0.35230695  1
  Ag  Ag5  1  0.64131966  0.38800289  0.14769305  1
  Ag  Ag6  1  0.85868034  0.38800289  0.64769305  1
  Ag  Ag7  1  0.35868034  0.61199711  0.85230695  1
  Ag  Ag8  1  0.99179533  0.71089658  0.75444670  1
  Ag  Ag9  1  0.49179533  0.28910342  0.74555330  1
  Ag  Ag10  1  0.00820467  0.28910342  0.24555330  1
  Ag  Ag11  1  0.50820467  0.71089658  0.25444670  1
  Ag  Ag12  1  0.00000000  0.50000000  -0.00000000  1
  Ag  Ag13  1  0.50000000  0.50000000  0.50000000  1
  Ag  Ag14  1  0.26867542  0.61476758  0.12648575  1
  Ag  Ag15  1  0.76867542  0.38523242  0.37351425  1
  Ag  Ag16  1  0.73132458  0.38523242  0.87351425  1
  Ag  Ag17  1  0.23132458  0.61476758  0.62648575  1
  Ag  Ag18  1  0.27227680  0.12557152  0.12318328  1
  Ag  Ag19  1  0.22772320  0.12557152  0.62318328  1
  Bi  Bi20  1  0.38061698  0.08241006  0.37738346  1
  Bi  Bi21  1  0.88061698  0.91758994  0.12261654  1
  Bi  Bi22  1  0.61938302  0.91758994  0.62261654  1
  Bi  Bi23  1  0.11938302  0.08241006  0.87738346  1
  O  O24  1  0.36289672  0.02952492  0.87104859  1
  O  O25  1  0.86289672  0.97047508  0.62895141  1
  O  O26  1  0.63710328  0.97047508  0.12895141  1
  O  O27  1  0.13710328  0.02952492  0.37104859  1
  O  O28  1  0.90752876  0.69557723  0.30542339  1
  O  O29  1  0.40752876  0.30442277  0.19457661  1
  O  O30  1  0.13648379  0.93088962  0.05984857  1
  O  O31  1  0.63648379  0.06911038  0.44015143  1
  O  O32  1  0.86351621  0.06911038  0.94015143  1
  O  O33  1  0.36351621  0.93088962  0.55984857  1
  O  O34  1  0.13392015  0.44764581  0.87959450  1
  O  O35  1  0.63392015  0.55235419  0.62040550  1
  O  O36  1  0.86607985  0.55235419  0.12040550  1
  O  O37  1  0.36607985  0.44764581  0.37959450  1
  O  O38  1  0.09247124  0.30442277  0.69457661  1
  O  O39  1  0.59247124  0.69557723  0.80542339  1
