# generated using pymatgen
data_MgAlCrO4
_symmetry_space_group_name_H-M   'P 1'
_cell_length_a   5.18786261
_cell_length_b   5.94267839
_cell_length_c   5.17951026
_cell_angle_alpha   77.51839800
_cell_angle_beta   104.33800597
_cell_angle_gamma   150.81022902
_symmetry_Int_Tables_number   1
_chemical_formula_structural   MgAlCrO4
_chemical_formula_sum   'Mg1 Al1 Cr1 O4'
_cell_volume   75.45236011
_cell_formula_units_Z   1
loop_
 _symmetry_equiv_pos_site_id
 _symmetry_equiv_pos_as_xyz
  1  'x, y, z'
loop_
 _atom_site_type_symbol
 _atom_site_label
 _atom_site_symmetry_multiplicity
 _atom_site_fract_x
 _atom_site_fract_y
 _atom_site_fract_z
 _atom_site_occupancy
  Mg  Mg0  1  0.20213468  0.49945943  0.29755585  1
  Al  Al1  1  0.41618152  0.99945374  0.58686354  1
  Cr  Cr2  1  0.53180731  0.49939121  0.97081030  1
  O  O3  1  0.20069040  0.99936276  0.80338214  1
  O  O4  1  0.17992942  0.49934397  0.68335868  1
  O  O5  1  0.85667316  0.99942752  0.14599398  1
  O  O6  1  0.81876350  0.49946337  0.32277451  1
