# generated using pymatgen
data_AlO3
_symmetry_space_group_name_H-M   'P 1'
_cell_length_a   7.79035697
_cell_length_b   7.79035543
_cell_length_c   2.97214000
_cell_angle_alpha   100.82483580
_cell_angle_beta   100.82483611
_cell_angle_gamma   27.60601314
_symmetry_Int_Tables_number   1
_chemical_formula_structural   AlO3
_chemical_formula_sum   'Al2 O6'
_cell_volume   82.00729424
_cell_formula_units_Z   2
loop_
 _symmetry_equiv_pos_site_id
 _symmetry_equiv_pos_as_xyz
  1  'x, y, z'
loop_
 _atom_site_type_symbol
 _atom_site_label
 _atom_site_symmetry_multiplicity
 _atom_site_fract_x
 _atom_site_fract_y
 _atom_site_fract_z
 _atom_site_occupancy
  Al  Al0  1  0.84324800  0.54316100  0.69523900  1
  Al  Al1  1  0.45683900  0.15675200  0.30476100  1
  O  O2  1  0.74171000  0.48177400  0.11039300  1
  O  O3  1  0.89279800  0.03837800  0.08930800  1
  O  O4  1  0.93017700  0.63351600  0.28319300  1
  O  O5  1  0.51822600  0.25829000  0.88960700  1
  O  O6  1  0.96162200  0.10720200  0.91069200  1
  O  O7  1  0.36648400  0.06982300  0.71680700  1
