# generated using pymatgen
data_Na5Sc2SiGe2P5O24
_symmetry_space_group_name_H-M   'P 1'
_cell_length_a   8.81993777
_cell_length_b   8.81509849
_cell_length_c   22.10739259
_cell_angle_alpha   90.09318065
_cell_angle_beta   89.79330251
_cell_angle_gamma   120.21246000
_symmetry_Int_Tables_number   1
_chemical_formula_structural   Na5Sc2SiGe2P5O24
_chemical_formula_sum   'Na15 Sc6 Si3 Ge6 P15 O72'
_cell_volume   1485.33442400
_cell_formula_units_Z   3
loop_
 _symmetry_equiv_pos_site_id
 _symmetry_equiv_pos_as_xyz
  1  'x, y, z'
loop_
 _atom_site_type_symbol
 _atom_site_label
 _atom_site_symmetry_multiplicity
 _atom_site_fract_x
 _atom_site_fract_y
 _atom_site_fract_z
 _atom_site_occupancy
  Na  Na0  1  0.00364004  0.64400396  0.25088593  1
  Na  Na1  1  0.62725332  0.63526274  0.75030733  1
  Na  Na2  1  0.37374412  0.99874177  0.75065090  1
  Na  Na3  1  0.66492216  0.97018650  0.58502898  1
  Na  Na4  1  0.30016184  0.97133421  0.08130928  1
  Na  Na5  1  0.67624871  0.70005023  0.08005481  1
  Na  Na6  1  0.02952273  0.33068499  0.08293464  1
  Na  Na7  1  0.96504158  0.29891798  0.41666452  1
  Na  Na8  1  0.33755499  0.03706202  0.41870090  1
  Na  Na9  1  0.00383066  0.98954562  0.50334029  1
  Na  Na10  1  0.00056082  0.99512149  0.99550513  1
  Na  Na11  1  0.68014976  0.33342734  0.83622678  1
  Na  Na12  1  0.65565992  0.33568133  0.33284241  1
  Na  Na13  1  0.34365442  0.66698370  0.16913570  1
  Na  Na14  1  0.31480775  0.65039930  0.66590885  1
  Sc  Sc15  1  0.99511964  0.99489483  0.35097612  1
  Sc  Sc16  1  0.00056128  0.99936266  0.15015644  1
  Sc  Sc17  1  0.66865836  0.33775102  0.97611927  1
  Sc  Sc18  1  0.66046533  0.33565972  0.48580383  1
  Sc  Sc19  1  0.34022977  0.66693674  0.31287900  1
  Sc  Sc20  1  0.32990990  0.66491058  0.81111285  1
  Si  Si21  1  0.72685692  0.01443998  0.74809476  1
  Si  Si22  1  0.36244409  0.03428123  0.58474223  1
  Si  Si23  1  0.96250614  0.62279976  0.08224677  1
  Ge  Ge24  1  0.99567527  0.00279977  0.85338023  1
  Ge  Ge25  1  0.00400938  0.00012952  0.64791172  1
  Ge  Ge26  1  0.67207933  0.32685712  0.68366078  1
  Ge  Ge27  1  0.66974847  0.33247491  0.18391958  1
  Ge  Ge28  1  0.32555643  0.66551819  0.01291940  1
  Ge  Ge29  1  0.32980249  0.66732968  0.52242800  1
  P  P30  1  0.30995078  0.01305115  0.24838206  1
  P  P31  1  0.70100003  0.69237822  0.24587534  1
  P  P32  1  0.98902277  0.29515839  0.24839380  1
  P  P33  1  0.28397691  0.27847794  0.74846178  1
  P  P34  1  0.99075981  0.71207861  0.74847732  1
  P  P35  1  0.96482309  0.33575526  0.58436100  1
  P  P36  1  0.66629554  0.62590841  0.58731073  1
  P  P37  1  0.65993773  0.04089802  0.08242840  1
  P  P38  1  0.38247619  0.34075854  0.08302015  1
  P  P39  1  0.62798036  0.67747515  0.91500238  1
  P  P40  1  0.04696485  0.36728651  0.91571079  1
  P  P41  1  0.32037931  0.95496734  0.91380742  1
  P  P42  1  0.62251784  0.95185281  0.42100369  1
  P  P43  1  0.33490269  0.38290041  0.42012558  1
  P  P44  1  0.04622958  0.66722024  0.41848517  1
  O  O45  1  0.22534316  0.03738825  0.30652127  1
  O  O46  1  0.82388312  0.78093324  0.30063671  1
  O  O47  1  0.96735846  0.18708787  0.30612883  1
  O  O48  1  0.20599441  0.15803328  0.80545281  1
  O  O49  1  0.95234716  0.79191259  0.80578977  1
  O  O50  1  0.84576156  0.04259065  0.80851842  1
  O  O51  1  0.80945944  0.97118677  0.68833263  1
  O  O52  1  0.17051054  0.19505688  0.69194014  1
  O  O53  1  0.03189611  0.83401207  0.69285436  1
  O  O54  1  0.78341628  0.79764436  0.18778982  1
  O  O55  1  0.01368952  0.21243487  0.19107023  1
  O  O56  1  0.19244057  0.98024954  0.19260908  1
  O  O57  1  0.87759509  0.37355416  0.63981250  1
  O  O58  1  0.50338299  0.12721473  0.64241309  1
  O  O59  1  0.63570486  0.50917755  0.64497693  1
  O  O60  1  0.87892113  0.49559771  0.14386264  1
  O  O61  1  0.61867968  0.12090855  0.13987944  1
  O  O62  1  0.50350464  0.37732264  0.13983904  1
  O  O63  1  0.45490121  0.29439965  0.02830908  1
  O  O64  1  0.82934994  0.53695142  0.02728549  1
  O  O65  1  0.69635147  0.15740513  0.02788913  1
  O  O66  1  0.44174148  0.14463830  0.52310693  1
  O  O67  1  0.70079205  0.54809007  0.53139773  1
  O  O68  1  0.85229483  0.29672434  0.52738987  1
  O  O69  1  0.53770847  0.70343846  0.97457748  1
  O  O70  1  0.15784214  0.45186440  0.97626853  1
  O  O71  1  0.29240949  0.83931141  0.97345813  1
  O  O72  1  0.53810279  0.84219971  0.48023997  1
  O  O73  1  0.30281004  0.47125452  0.47699302  1
  O  O74  1  0.17051217  0.69969859  0.47397451  1
  O  O75  1  0.12379682  0.64072187  0.35958399  1
  O  O76  1  0.50636768  0.86858718  0.36571571  1
  O  O77  1  0.35434129  0.48669179  0.36277941  1
  O  O78  1  0.13729475  0.48287319  0.86153535  1
  O  O79  1  0.34558329  0.87099609  0.85717147  1
  O  O80  1  0.52264894  0.65687892  0.85797578  1
  O  O81  1  0.03499461  0.83657718  0.41505046  1
  O  O82  1  0.80793402  0.97469108  0.41573537  1
  O  O83  1  0.16648627  0.19730170  0.41682532  1
  O  O84  1  0.03845946  0.18568509  0.91166172  1
  O  O85  1  0.14792266  0.96494277  0.90932535  1
  O  O86  1  0.81330752  0.84769873  0.91219643  1
  O  O87  1  0.97692896  0.16637796  0.59294359  1
  O  O88  1  0.16885366  0.01401793  0.59389917  1
  O  O89  1  0.82801030  0.81612266  0.59294931  1
  O  O90  1  0.99562714  0.82154007  0.08854605  1
  O  O91  1  0.82084170  0.01717837  0.08998976  1
  O  O92  1  0.19369368  0.18516279  0.09132906  1
  O  O93  1  0.70097036  0.18886648  0.74190546  1
  O  O94  1  0.47277311  0.29932958  0.74239174  1
  O  O95  1  0.81915293  0.52912980  0.74078385  1
  O  O96  1  0.69338118  0.51066546  0.24133499  1
  O  O97  1  0.81797371  0.30864421  0.24408576  1
  O  O98  1  0.49111820  0.18227303  0.24060256  1
  O  O99  1  0.64548357  0.51434196  0.92054804  1
  O  O100  1  0.86345083  0.34326041  0.92135393  1
  O  O101  1  0.48165150  0.13659622  0.92082430  1
  O  O102  1  0.64488419  0.13806549  0.42458265  1
  O  O103  1  0.49535151  0.35771204  0.42326358  1
  O  O104  1  0.86604667  0.50044802  0.42506245  1
  O  O105  1  0.37063368  0.51241158  0.07643394  1
  O  O106  1  0.15915824  0.63769718  0.07392783  1
  O  O107  1  0.49188519  0.85329769  0.07615170  1
  O  O108  1  0.35462304  0.84052030  0.57876364  1
  O  O109  1  0.49984719  0.64645122  0.58116023  1
  O  O110  1  0.15081124  0.50091044  0.57800032  1
  O  O111  1  0.32454097  0.84634228  0.25280400  1
  O  O112  1  0.51881067  0.66948028  0.25206289  1
  O  O113  1  0.14674578  0.48411820  0.25224416  1
  O  O114  1  0.31136643  0.46427378  0.75291390  1
  O  O115  1  0.15350632  0.69263471  0.75312303  1
  O  O116  1  0.52847681  0.84125265  0.75111716  1
