# generated using pymatgen
data_MgNi(TeO3)4
_symmetry_space_group_name_H-M   'P 1'
_cell_length_a   5.78637407
_cell_length_b   11.38127597
_cell_length_c   10.10031756
_cell_angle_alpha   27.65446260
_cell_angle_beta   50.08221024
_cell_angle_gamma   55.49523520
_symmetry_Int_Tables_number   1
_chemical_formula_structural   MgNi(TeO3)4
_chemical_formula_sum   'Mg1 Ni1 Te4 O12'
_cell_volume   236.78252793
_cell_formula_units_Z   1
loop_
 _symmetry_equiv_pos_site_id
 _symmetry_equiv_pos_as_xyz
  1  'x, y, z'
loop_
 _atom_site_type_symbol
 _atom_site_label
 _atom_site_symmetry_multiplicity
 _atom_site_fract_x
 _atom_site_fract_y
 _atom_site_fract_z
 _atom_site_occupancy
  Mg  Mg0  1  0.16228589  0.49039944  0.20849391  1
  Ni  Ni1  1  0.31605743  0.00044360  0.29188065  1
  Te  Te2  1  0.98735917  0.99858428  0.97799123  1
  Te  Te3  1  0.98284352  0.50103404  0.98285895  1
  Te  Te4  1  0.53941863  0.98535121  0.48643292  1
  Te  Te5  1  0.42984670  0.50640729  0.48384630  1
  O  O6  1  0.33008850  0.31594545  0.11108102  1
  O  O7  1  0.24075664  0.14929558  0.59701833  1
  O  O8  1  0.08995292  0.29885118  0.75289681  1
  O  O9  1  0.91828550  0.18445852  0.21754691  1
  O  O10  1  0.33209618  0.82178758  0.10919090  1
  O  O11  1  0.77560204  0.39989931  0.32302589  1
  O  O12  1  0.17607675  0.66165319  0.59990692  1
  O  O13  1  0.61630244  0.15374354  0.90159228  1
  O  O14  1  0.12533538  0.79552291  0.73764375  1
  O  O15  1  0.90239392  0.70344564  0.20175506  1
  O  O16  1  0.71875453  0.87550522  0.35130094  1
  O  O17  1  0.59441585  0.64576703  0.91233623  1
