# generated using pymatgen
data_Na10Al4Si7Sn4S5O48
_symmetry_space_group_name_H-M   'P 1'
_cell_length_a   17.65088625
_cell_length_b   8.84517464
_cell_length_c   22.22951237
_cell_angle_alpha   89.80927631
_cell_angle_beta   90.15798914
_cell_angle_gamma   120.02221173
_symmetry_Int_Tables_number   1
_chemical_formula_structural   Na10Al4Si7Sn4S5O48
_chemical_formula_sum   'Na30 Al12 Si21 Sn12 S15 O144'
_cell_volume   3004.92403196
_cell_formula_units_Z   3
loop_
 _symmetry_equiv_pos_site_id
 _symmetry_equiv_pos_as_xyz
  1  'x, y, z'
loop_
 _atom_site_type_symbol
 _atom_site_label
 _atom_site_symmetry_multiplicity
 _atom_site_fract_x
 _atom_site_fract_y
 _atom_site_fract_z
 _atom_site_occupancy
  Na  Na0  1  0.18236761  0.37160106  0.24482184  1
  Na  Na1  1  0.68235656  0.37204818  0.24478962  1
  Na  Na2  1  0.99549244  0.62712237  0.25315524  1
  Na  Na3  1  0.49555521  0.62699219  0.25292684  1
  Na  Na4  1  0.49524693  0.36152120  0.75616638  1
  Na  Na5  1  0.18197916  0.99249125  0.74772789  1
  Na  Na6  1  0.68384051  0.99486469  0.74696548  1
  Na  Na7  1  0.65640266  0.33650898  0.58007314  1
  Na  Na8  1  0.01752962  0.70611106  0.58138756  1
  Na  Na9  1  0.82873435  0.95958078  0.58934592  1
  Na  Na10  1  0.48880871  0.66744087  0.91235225  1
  Na  Na11  1  0.98998272  0.66962816  0.91139404  1
  Na  Na12  1  0.84966863  0.03591252  0.90904395  1
  Na  Na13  1  0.16140711  0.29195310  0.92123630  1
  Na  Na14  1  0.48940611  0.31166016  0.41188101  1
  Na  Na15  1  0.98831346  0.30965840  0.41179600  1
  Na  Na16  1  0.35111065  0.66387907  0.40912917  1
  Na  Na17  1  0.85092372  0.66408509  0.41253497  1
  Na  Na18  1  0.01483276  0.00406291  0.49793887  1
  Na  Na19  1  0.51069342  0.99427630  0.49644894  1
  Na  Na20  1  0.00905160  0.01449129  0.99944861  1
  Na  Na21  1  0.51165880  0.02950250  0.99596304  1
  Na  Na22  1  0.33704605  0.32411690  0.83266589  1
  Na  Na23  1  0.83894142  0.33462668  0.82802703  1
  Na  Na24  1  0.33286741  0.33225294  0.33024466  1
  Na  Na25  1  0.83278870  0.33222060  0.33094428  1
  Na  Na26  1  0.17268129  0.66147768  0.16179958  1
  Na  Na27  1  0.67249573  0.66132909  0.16188076  1
  Na  Na28  1  0.17242286  0.67622014  0.66701354  1
  Na  Na29  1  0.67101945  0.68219277  0.66573982  1
  Al  Al30  1  0.00146851  0.00155091  0.35297172  1
  Al  Al31  1  0.50224108  0.00126906  0.35255849  1
  Al  Al32  1  0.99809021  0.99521765  0.85142703  1
  Al  Al33  1  0.49798077  0.00034450  0.85472069  1
  Al  Al34  1  0.33260104  0.31764769  0.69082321  1
  Al  Al35  1  0.83285811  0.33355254  0.68840102  1
  Al  Al36  1  0.33531521  0.35101702  0.18732904  1
  Al  Al37  1  0.83488641  0.35172250  0.18768279  1
  Al  Al38  1  0.15959260  0.64693869  0.01734615  1
  Al  Al39  1  0.65599621  0.64267524  0.01758016  1
  Al  Al40  1  0.16177240  0.67178214  0.51658641  1
  Al  Al41  1  0.66178344  0.66505192  0.52103933  1
  Si  Si42  1  0.35739755  0.71678649  0.25149119  1
  Si  Si43  1  0.85733154  0.71716749  0.25156988  1
  Si  Si44  1  0.99172032  0.28269588  0.25208305  1
  Si  Si45  1  0.49170841  0.28260358  0.25221240  1
  Si  Si46  1  0.99260277  0.69657588  0.75238676  1
  Si  Si47  1  0.49205072  0.69955535  0.75282845  1
  Si  Si48  1  0.35669063  0.99705355  0.75196699  1
  Si  Si49  1  0.85724334  0.00763626  0.75190157  1
  Si  Si50  1  0.19141034  0.03803077  0.58694399  1
  Si  Si51  1  0.68640791  0.03568442  0.58654211  1
  Si  Si52  1  0.82963092  0.62194802  0.58531147  1
  Si  Si53  1  0.19000505  0.34399898  0.08515412  1
  Si  Si54  1  0.68849876  0.34422420  0.08655808  1
  Si  Si55  1  0.02145011  0.36907222  0.91853054  1
  Si  Si56  1  0.52195688  0.36379311  0.91752232  1
  Si  Si57  1  0.16435285  0.95249814  0.91951738  1
  Si  Si58  1  0.66238255  0.95345413  0.92075382  1
  Si  Si59  1  0.16286121  0.37107887  0.42007457  1
  Si  Si60  1  0.66204653  0.36617903  0.41944748  1
  Si  Si61  1  0.02270352  0.67802678  0.41819072  1
  Si  Si62  1  0.52510813  0.67931790  0.41959345  1
  Sn  Sn63  1  0.99981109  0.98949171  0.65008956  1
  Sn  Sn64  1  0.49668001  0.98282739  0.65035748  1
  Sn  Sn65  1  0.00097702  0.01332999  0.14728628  1
  Sn  Sn66  1  0.50060537  0.01270278  0.14729496  1
  Sn  Sn67  1  0.33090150  0.31893231  0.98160273  1
  Sn  Sn68  1  0.82620554  0.32291232  0.98260891  1
  Sn  Sn69  1  0.32811371  0.33312000  0.48234137  1
  Sn  Sn70  1  0.82886397  0.34026980  0.48266576  1
  Sn  Sn71  1  0.16530023  0.65485144  0.31489900  1
  Sn  Sn72  1  0.66458260  0.65524160  0.31530002  1
  Sn  Sn73  1  0.16291731  0.67321281  0.81468777  1
  Sn  Sn74  1  0.66567155  0.67634254  0.81578275  1
  S  S75  1  0.14697111  0.00287841  0.25152785  1
  S  S76  1  0.64691771  0.00261784  0.25146595  1
  S  S77  1  0.14698431  0.29251701  0.75073657  1
  S  S78  1  0.64664678  0.28998424  0.75125856  1
  S  S79  1  0.47872558  0.33481659  0.58495497  1
  S  S80  1  0.98144445  0.33728367  0.58392829  1
  S  S81  1  0.32952908  0.62252492  0.58428261  1
  S  S82  1  0.48027928  0.62477110  0.08454844  1
  S  S83  1  0.98066248  0.62478837  0.08450150  1
  S  S84  1  0.32932721  0.03702895  0.08584322  1
  S  S85  1  0.82979850  0.03872642  0.08503596  1
  S  S86  1  0.31180242  0.67291966  0.91862060  1
  S  S87  1  0.81068828  0.66763702  0.91863740  1
  S  S88  1  0.31035432  0.95338005  0.41849197  1
  S  S89  1  0.81090459  0.95479246  0.41870008  1
  O  O90  1  0.10570602  0.03391074  0.30389038  1
  O  O91  1  0.60564374  0.03372365  0.30395838  1
  O  O92  1  0.41986448  0.80488308  0.31019068  1
  O  O93  1  0.92016115  0.80557895  0.30989554  1
  O  O94  1  0.48280367  0.16806588  0.31206365  1
  O  O95  1  0.98331642  0.16875665  0.31190944  1
  O  O96  1  0.10633376  0.18114472  0.80496449  1
  O  O97  1  0.60358303  0.17557310  0.80257322  1
  O  O98  1  0.48313636  0.79773282  0.81153470  1
  O  O99  1  0.98590491  0.80120925  0.81099706  1
  O  O100  1  0.42483758  0.03853076  0.80619394  1
  O  O101  1  0.91698614  0.02809956  0.81060751  1
  O  O102  1  0.39458036  0.97156757  0.68753769  1
  O  O103  1  0.89601368  0.97834402  0.68823559  1
  O  O104  1  0.09303218  0.22080688  0.69600645  1
  O  O105  1  0.59291404  0.22445901  0.69406923  1
  O  O106  1  0.02429551  0.82401521  0.69190461  1
  O  O107  1  0.52720872  0.83046936  0.69377869  1
  O  O108  1  0.40005811  0.82571039  0.18986231  1
  O  O109  1  0.89993854  0.82611787  0.18961191  1
  O  O110  1  0.02704049  0.21907057  0.19483302  1
  O  O111  1  0.52667935  0.21833984  0.19516595  1
  O  O112  1  0.09164424  0.96057922  0.19608883  1
  O  O113  1  0.59164380  0.96044619  0.19625498  1
  O  O114  1  0.43489778  0.35688419  0.63787343  1
  O  O115  1  0.93752119  0.36394986  0.63519212  1
  O  O116  1  0.25096417  0.14161096  0.64507353  1
  O  O117  1  0.74917775  0.13120684  0.64444863  1
  O  O118  1  0.32137410  0.51382967  0.63616275  1
  O  O119  1  0.81465417  0.48663256  0.63900370  1
  O  O120  1  0.43701410  0.51454640  0.13845436  1
  O  O121  1  0.93678343  0.51493194  0.13795963  1
  O  O122  1  0.32168008  0.12995771  0.13793229  1
  O  O123  1  0.82290129  0.13355415  0.13661169  1
  O  O124  1  0.24918924  0.35717404  0.14422944  1
  O  O125  1  0.74810887  0.35879288  0.14573647  1
  O  O126  1  0.22971153  0.30783292  0.02307538  1
  O  O127  1  0.72815732  0.30317781  0.02628824  1
  O  O128  1  0.42727285  0.54836522  0.02891365  1
  O  O129  1  0.92799819  0.54902156  0.02817625  1
  O  O130  1  0.34991678  0.14436314  0.02924098  1
  O  O131  1  0.84952584  0.14383894  0.02745322  1
  O  O132  1  0.22952899  0.15310714  0.52525115  1
  O  O133  1  0.72634668  0.16052940  0.52628665  1
  O  O134  1  0.34898629  0.55662371  0.52692549  1
  O  O135  1  0.86010073  0.56236535  0.52329686  1
  O  O136  1  0.42720495  0.30486636  0.52820243  1
  O  O137  1  0.92770698  0.29882109  0.52701218  1
  O  O138  1  0.26893181  0.69536905  0.97184177  1
  O  O139  1  0.76877282  0.69357859  0.97120065  1
  O  O140  1  0.08652527  0.45922073  0.97480137  1
  O  O141  1  0.58258047  0.46343558  0.97447690  1
  O  O142  1  0.15016107  0.82010410  0.97510000  1
  O  O143  1  0.65185805  0.82183652  0.97581626  1
  O  O144  1  0.26744836  0.84355112  0.47130189  1
  O  O145  1  0.77018648  0.84704300  0.47200665  1
  O  O146  1  0.15171837  0.48073351  0.47483506  1
  O  O147  1  0.64843746  0.46449657  0.47712047  1
  O  O148  1  0.08046730  0.69922521  0.47752287  1
  O  O149  1  0.58674699  0.69744186  0.47546071  1
  O  O150  1  0.06108833  0.63518764  0.35686812  1
  O  O151  1  0.55814350  0.63140443  0.35639529  1
  O  O152  1  0.25812352  0.88551053  0.36275341  1
  O  O153  1  0.75781776  0.88545987  0.36321126  1
  O  O154  1  0.19165918  0.49161385  0.35784119  1
  O  O155  1  0.69038135  0.49223042  0.35881679  1
  O  O156  1  0.05940391  0.49166055  0.85867459  1
  O  O157  1  0.55813021  0.48578795  0.85552594  1
  O  O158  1  0.18740155  0.88980207  0.85615162  1
  O  O159  1  0.69159833  0.89177203  0.85841203  1
  O  O160  1  0.25610555  0.62973565  0.86334420  1
  O  O161  1  0.75902857  0.63127587  0.86275850  1
  O  O162  1  0.00629425  0.84168017  0.40925242  1
  O  O163  1  0.50634374  0.83997470  0.41000562  1
  O  O164  1  0.39719630  0.96665820  0.41352108  1
  O  O165  1  0.89812886  0.96949833  0.41248219  1
  O  O166  1  0.07446338  0.18325292  0.40984280  1
  O  O167  1  0.57320569  0.17913305  0.40880340  1
  O  O168  1  0.00849570  0.17373422  0.90904399  1
  O  O169  1  0.50950307  0.17254199  0.90802285  1
  O  O170  1  0.07589420  0.97143603  0.91042917  1
  O  O171  1  0.57371001  0.96328882  0.90997372  1
  O  O172  1  0.39902212  0.82879343  0.91182727  1
  O  O173  1  0.89867833  0.82795676  0.91311694  1
  O  O174  1  0.49093496  0.18061452  0.58888496  1
  O  O175  1  0.99123664  0.18084952  0.58914882  1
  O  O176  1  0.09242588  0.01836959  0.58926329  1
  O  O177  1  0.59049934  0.03321384  0.58879051  1
  O  O178  1  0.40905504  0.80179354  0.58631362  1
  O  O179  1  0.91509703  0.82235431  0.58705933  1
  O  O180  1  0.48899032  0.79993724  0.08919026  1
  O  O181  1  0.98913121  0.80026667  0.08874859  1
  O  O182  1  0.40803390  0.01459062  0.08797212  1
  O  O183  1  0.90922281  0.01716606  0.08700494  1
  O  O184  1  0.09197268  0.15933938  0.08700502  1
  O  O185  1  0.59104623  0.15991941  0.08793589  1
  O  O186  1  0.34394876  0.17071563  0.74475307  1
  O  O187  1  0.83966962  0.17191339  0.74356080  1
  O  O188  1  0.23332931  0.30405420  0.74373383  1
  O  O189  1  0.73222789  0.30292311  0.74416765  1
  O  O190  1  0.40769252  0.50644872  0.73872489  1
  O  O191  1  0.90624586  0.50967113  0.74101680  1
  O  O192  1  0.34417405  0.51737466  0.24411505  1
  O  O193  1  0.84453480  0.51801330  0.24429082  1
  O  O194  1  0.40765649  0.30921770  0.23897323  1
  O  O195  1  0.90769516  0.30909673  0.23871314  1
  O  O196  1  0.23372997  0.16150700  0.24370932  1
  O  O197  1  0.73381515  0.16120774  0.24381979  1
  O  O198  1  0.32405703  0.51775144  0.92344599  1
  O  O199  1  0.82770499  0.51813102  0.92338881  1
  O  O200  1  0.42726638  0.36753427  0.92352170  1
  O  O201  1  0.92515165  0.35990454  0.92586255  1
  O  O202  1  0.24677737  0.15583740  0.92053468  1
  O  O203  1  0.75249041  0.14729910  0.92179012  1
  O  O204  1  0.32671485  0.13621708  0.42305690  1
  O  O205  1  0.82657429  0.13737625  0.42368840  1
  O  O206  1  0.25286497  0.35736713  0.42119948  1
  O  O207  1  0.75148684  0.35151107  0.41932316  1
  O  O208  1  0.42647128  0.49204048  0.42531766  1
  O  O209  1  0.92668578  0.48828366  0.42147640  1
  O  O210  1  0.18123038  0.51911313  0.07609259  1
  O  O211  1  0.68049084  0.51972369  0.07641649  1
  O  O212  1  0.06737934  0.64015723  0.07912373  1
  O  O213  1  0.56736602  0.64067749  0.07944160  1
  O  O214  1  0.24989911  0.86650881  0.07857147  1
  O  O215  1  0.75085059  0.86759050  0.07858952  1
  O  O216  1  0.17750635  0.83960216  0.57684556  1
  O  O217  1  0.67929326  0.84657721  0.57617603  1
  O  O218  1  0.25036625  0.63691620  0.57685585  1
  O  O219  1  0.74177936  0.63836135  0.57484489  1
  O  O220  1  0.06808840  0.49683706  0.57739008  1
  O  O221  1  0.56626958  0.49218059  0.58000868  1
  O  O222  1  0.15657848  0.84688476  0.25781161  1
  O  O223  1  0.65650319  0.84671990  0.25796223  1
  O  O224  1  0.25838936  0.69258453  0.25416221  1
  O  O225  1  0.75817049  0.69239634  0.25455700  1
  O  O226  1  0.07912165  0.48570627  0.25401918  1
  O  O227  1  0.57912038  0.48555164  0.25407860  1
  O  O228  1  0.15942584  0.46972287  0.75692383  1
  O  O229  1  0.65604676  0.46621254  0.75692102  1
  O  O230  1  0.08323581  0.68260713  0.75288619  1
  O  O231  1  0.57930445  0.67175610  0.75392714  1
  O  O232  1  0.25868153  0.82321426  0.75489107  1
  O  O233  1  0.75843697  0.82619610  0.75450965  1
