# generated using pymatgen
data_Bi3B5O12
_symmetry_space_group_name_H-M   'P 1'
_cell_length_a   6.55314361
_cell_length_b   7.75645181
_cell_length_c   18.47917474
_cell_angle_alpha   90.00000000
_cell_angle_beta   90.00000000
_cell_angle_gamma   90.00000000
_symmetry_Int_Tables_number   1
_chemical_formula_structural   Bi3B5O12
_chemical_formula_sum   'Bi12 B20 O48'
_cell_volume   939.28060827
_cell_formula_units_Z   4
loop_
 _symmetry_equiv_pos_site_id
 _symmetry_equiv_pos_as_xyz
  1  'x, y, z'
loop_
 _atom_site_type_symbol
 _atom_site_label
 _atom_site_symmetry_multiplicity
 _atom_site_fract_x
 _atom_site_fract_y
 _atom_site_fract_z
 _atom_site_occupancy
  Bi  Bi0  1  0.48485543  0.51571522  0.40330412  1
  Bi  Bi1  1  0.98485543  0.98428478  0.09669588  1
  Bi  Bi2  1  0.51514457  0.01571522  0.59669588  1
  Bi  Bi3  1  0.01514457  0.48428478  0.90330412  1
  Bi  Bi4  1  0.51514457  0.48428478  0.59669588  1
  Bi  Bi5  1  0.01514457  0.01571522  0.90330412  1
  Bi  Bi6  1  0.48485543  0.98428478  0.40330412  1
  Bi  Bi7  1  0.98485543  0.51571522  0.09669588  1
  Bi  Bi8  1  0.03668717  0.75000000  0.31441207  1
  Bi  Bi9  1  0.53668717  0.75000000  0.18558793  1
  Bi  Bi10  1  0.96331283  0.25000000  0.68558793  1
  Bi  Bi11  1  0.46331283  0.25000000  0.81441207  1
  B  B12  1  0.93236210  0.75000000  0.61047820  1
  B  B13  1  0.43236210  0.75000000  0.88952180  1
  B  B14  1  0.06763790  0.25000000  0.38952180  1
  B  B15  1  0.56763790  0.25000000  0.11047820  1
  B  B16  1  0.12520381  0.40426904  0.26901017  1
  B  B17  1  0.62520381  0.09573096  0.23098983  1
  B  B18  1  0.87479619  0.90426904  0.73098983  1
  B  B19  1  0.37479619  0.59573096  0.76901017  1
  B  B20  1  0.87479619  0.59573096  0.73098983  1
  B  B21  1  0.37479619  0.90426904  0.76901017  1
  B  B22  1  0.12520381  0.09573096  0.26901017  1
  B  B23  1  0.62520381  0.40426904  0.23098983  1
  B  B24  1  0.83076129  0.75000000  0.48067072  1
  B  B25  1  0.33076129  0.75000000  0.01932928  1
  B  B26  1  0.16923871  0.25000000  0.51932928  1
  B  B27  1  0.66923871  0.25000000  0.98067072  1
  B  B28  1  0.20317666  0.75000000  0.51155307  1
  B  B29  1  0.70317666  0.75000000  0.98844693  1
  B  B30  1  0.79682334  0.25000000  0.48844693  1
  B  B31  1  0.29682334  0.25000000  0.01155307  1
  O  O32  1  0.77449944  0.75000000  0.55265783  1
  O  O33  1  0.27449944  0.75000000  0.94734217  1
  O  O34  1  0.22550056  0.25000000  0.44734217  1
  O  O35  1  0.72550056  0.25000000  0.05265783  1
  O  O36  1  0.88700755  0.75000000  0.76855490  1
  O  O37  1  0.38700755  0.75000000  0.73144510  1
  O  O38  1  0.11299245  0.25000000  0.23144510  1
  O  O39  1  0.61299245  0.25000000  0.26855490  1
  O  O40  1  0.13454109  0.75000000  0.58588309  1
  O  O41  1  0.63454109  0.75000000  0.91411691  1
  O  O42  1  0.86545891  0.25000000  0.41411691  1
  O  O43  1  0.36545891  0.25000000  0.08588309  1
  O  O44  1  0.02828455  0.75000000  0.45949827  1
  O  O45  1  0.52828455  0.75000000  0.04050173  1
  O  O46  1  0.97171545  0.25000000  0.54050173  1
  O  O47  1  0.47171545  0.25000000  0.95949827  1
  O  O48  1  0.11597414  0.40625426  0.34349814  1
  O  O49  1  0.61597414  0.09374574  0.15650186  1
  O  O50  1  0.88402586  0.90625426  0.65650186  1
  O  O51  1  0.38402586  0.59374574  0.84349814  1
  O  O52  1  0.88402586  0.59374574  0.65650186  1
  O  O53  1  0.38402586  0.90625426  0.84349814  1
  O  O54  1  0.11597414  0.09374574  0.34349814  1
  O  O55  1  0.61597414  0.40625426  0.15650186  1
  O  O56  1  0.14346469  0.55559151  0.23340653  1
  O  O57  1  0.64346469  0.94440849  0.26659347  1
  O  O58  1  0.85653531  0.05559151  0.76659347  1
  O  O59  1  0.35653531  0.44440849  0.73340653  1
  O  O60  1  0.85653531  0.44440849  0.76659347  1
  O  O61  1  0.35653531  0.05559151  0.73340653  1
  O  O62  1  0.14346469  0.94440849  0.23340653  1
  O  O63  1  0.64346469  0.55559151  0.26659347  1
  O  O64  1  0.67483866  0.40799085  0.50052934  1
  O  O65  1  0.17483866  0.09200915  0.99947066  1
  O  O66  1  0.32516134  0.90799085  0.49947066  1
  O  O67  1  0.82516134  0.59200915  0.00052934  1
  O  O68  1  0.32516134  0.59200915  0.49947066  1
  O  O69  1  0.82516134  0.90799085  0.00052934  1
  O  O70  1  0.67483866  0.09200915  0.50052934  1
  O  O71  1  0.17483866  0.40799085  0.99947066  1
  O  O72  1  0.33953523  0.75000000  0.35208995  1
  O  O73  1  0.83953523  0.75000000  0.14791005  1
  O  O74  1  0.66046477  0.25000000  0.64791005  1
  O  O75  1  0.16046477  0.25000000  0.85208995  1
  O  O76  1  0.68487875  0.75000000  0.42592436  1
  O  O77  1  0.18487875  0.75000000  0.07407564  1
  O  O78  1  0.31512125  0.25000000  0.57407564  1
  O  O79  1  0.81512125  0.25000000  0.92592436  1
