# generated using pymatgen
data_Na6Y6Nb2Si5S7O48
_symmetry_space_group_name_H-M   'P 1'
_cell_length_a   18.37213379
_cell_length_b   9.22372720
_cell_length_c   23.93032707
_cell_angle_alpha   90.05650643
_cell_angle_beta   90.08229008
_cell_angle_gamma   120.13278115
_symmetry_Int_Tables_number   1
_chemical_formula_structural   Na6Y6Nb2Si5S7O48
_chemical_formula_sum   'Na18 Y18 Nb6 Si15 S21 O144'
_cell_volume   3507.20686588
_cell_formula_units_Z   3
loop_
 _symmetry_equiv_pos_site_id
 _symmetry_equiv_pos_as_xyz
  1  'x, y, z'
loop_
 _atom_site_type_symbol
 _atom_site_label
 _atom_site_symmetry_multiplicity
 _atom_site_fract_x
 _atom_site_fract_y
 _atom_site_fract_z
 _atom_site_occupancy
  Na  Na0  1  0.99269213  0.68200342  0.91116249  1
  Na  Na1  1  0.34807725  0.02749407  0.91436580  1
  Na  Na2  1  0.17337980  0.30616215  0.91299276  1
  Na  Na3  1  0.49243415  0.30557871  0.42166325  1
  Na  Na4  1  0.67216790  0.03787038  0.41636527  1
  Na  Na5  1  0.84574844  0.66852025  0.41771006  1
  Na  Na6  1  0.99768026  0.99887710  0.49488461  1
  Na  Na7  1  0.49906073  0.00042345  0.50153539  1
  Na  Na8  1  0.00063362  0.00247917  0.99748845  1
  Na  Na9  1  0.49737097  0.99684270  0.99147295  1
  Na  Na10  1  0.33891236  0.34651649  0.84003717  1
  Na  Na11  1  0.82606644  0.32324199  0.81922806  1
  Na  Na12  1  0.32795849  0.33345043  0.32366638  1
  Na  Na13  1  0.83645847  0.32809960  0.34545323  1
  Na  Na14  1  0.17131353  0.66943865  0.16996933  1
  Na  Na15  1  0.66547408  0.66666493  0.16764409  1
  Na  Na16  1  0.16871237  0.66640351  0.66691792  1
  Na  Na17  1  0.65849060  0.65424754  0.66127865  1
  Y  Y18  1  0.00325290  0.00470596  0.35513418  1
  Y  Y19  1  0.49753214  0.00346517  0.34798467  1
  Y  Y20  1  0.99722360  0.99199197  0.84704837  1
  Y  Y21  1  0.50277922  0.00240579  0.85295338  1
  Y  Y22  1  0.33666176  0.34201195  0.68141614  1
  Y  Y23  1  0.83310076  0.33301615  0.68848113  1
  Y  Y24  1  0.33418534  0.33371273  0.18921759  1
  Y  Y25  1  0.83143816  0.32323869  0.18352090  1
  Y  Y26  1  0.34518575  0.35008898  0.97721376  1
  Y  Y27  1  0.82745373  0.30595787  0.98553501  1
  Y  Y28  1  0.33480726  0.34881784  0.49099597  1
  Y  Y29  1  0.84295584  0.33631328  0.47878179  1
  Y  Y30  1  0.17071789  0.67777677  0.01585846  1
  Y  Y31  1  0.66697161  0.66713739  0.01968263  1
  Y  Y32  1  0.16691973  0.66641682  0.52125248  1
  Y  Y33  1  0.66673304  0.65712774  0.51771580  1
  Y  Y34  1  0.66839062  0.65596663  0.31446793  1
  Y  Y35  1  0.17003519  0.68266467  0.81246535  1
  Nb  Nb36  1  0.99255617  0.98557586  0.65591291  1
  Nb  Nb37  1  0.50103970  0.02027690  0.64312677  1
  Nb  Nb38  1  0.00200654  0.99766846  0.14863600  1
  Nb  Nb39  1  0.49163008  0.99732193  0.15575509  1
  Nb  Nb40  1  0.16536719  0.67921466  0.31148394  1
  Nb  Nb41  1  0.66089316  0.64697707  0.80693118  1
  Si  Si42  1  0.14343082  0.99577358  0.25041188  1
  Si  Si43  1  0.34766451  0.70206960  0.25360571  1
  Si  Si44  1  0.50443131  0.30684046  0.25123858  1
  Si  Si45  1  0.64274840  0.28449408  0.74972836  1
  Si  Si46  1  0.00342162  0.70085502  0.75140428  1
  Si  Si47  1  0.84798407  0.99297443  0.75348152  1
  Si  Si48  1  0.48425055  0.34200215  0.58252716  1
  Si  Si49  1  0.33451052  0.63834728  0.58772072  1
  Si  Si50  1  0.83486736  0.03058972  0.08662847  1
  Si  Si51  1  0.31345140  0.66740245  0.91559889  1
  Si  Si52  1  0.52433277  0.37683357  0.91559579  1
  Si  Si53  1  0.16398062  0.96468939  0.91895749  1
  Si  Si54  1  0.81207631  0.95761053  0.41607233  1
  Si  Si55  1  0.66496879  0.36333714  0.41756311  1
  Si  Si56  1  0.02291317  0.66934013  0.41646297  1
  S  S57  1  0.64376614  0.99880587  0.24728332  1
  S  S58  1  0.85736408  0.71445048  0.24662629  1
  S  S59  1  0.00347029  0.29448682  0.24888665  1
  S  S60  1  0.14452301  0.28871643  0.74767627  1
  S  S61  1  0.50229733  0.70829836  0.75088110  1
  S  S62  1  0.35700195  0.00076072  0.74668591  1
  S  S63  1  0.98227968  0.32143800  0.58662567  1
  S  S64  1  0.17788885  0.03577686  0.58621280  1
  S  S65  1  0.68111848  0.03721577  0.58438783  1
  S  S66  1  0.83960266  0.64222222  0.58526427  1
  S  S67  1  0.48259007  0.64328333  0.08662212  1
  S  S68  1  0.98128262  0.63680999  0.08515529  1
  S  S69  1  0.33808518  0.03495502  0.08557189  1
  S  S70  1  0.18005212  0.32585414  0.08525225  1
  S  S71  1  0.67959722  0.32233490  0.08583418  1
  S  S72  1  0.81042681  0.66193005  0.91464197  1
  S  S73  1  0.01801177  0.37418275  0.91739713  1
  S  S74  1  0.66877448  0.95263212  0.91363999  1
  S  S75  1  0.30880021  0.95709427  0.41366763  1
  S  S76  1  0.17088309  0.38778444  0.41321431  1
  S  S77  1  0.51726176  0.66249755  0.41618675  1
  O  O78  1  0.10014310  0.01972699  0.30370330  1
  O  O79  1  0.60775273  0.01645538  0.29997104  1
  O  O80  1  0.40629620  0.78785663  0.30602872  1
  O  O81  1  0.90385318  0.78844843  0.29839831  1
  O  O82  1  0.49462338  0.20241560  0.30755178  1
  O  O83  1  0.98908857  0.19577728  0.29921030  1
  O  O84  1  0.10727156  0.19941943  0.80074510  1
  O  O85  1  0.60273547  0.18363597  0.80549455  1
  O  O86  1  0.49193001  0.78267400  0.80182285  1
  O  O87  1  0.99405205  0.78357207  0.80892377  1
  O  O88  1  0.40279905  0.01691122  0.79923295  1
  O  O89  1  0.90594213  0.02488184  0.80666234  1
  O  O90  1  0.40475845  0.98877337  0.69766479  1
  O  O91  1  0.90299316  0.97168371  0.69697697  1
  O  O92  1  0.08743266  0.18809464  0.69902159  1
  O  O93  1  0.58143272  0.18818020  0.69476296  1
  O  O94  1  0.00661991  0.83459250  0.69723899  1
  O  O95  1  0.51539986  0.81074293  0.70089745  1
  O  O96  1  0.40272571  0.83337014  0.19652897  1
  O  O97  1  0.90625832  0.82601968  0.19690060  1
  O  O98  1  0.01387046  0.20665601  0.19869740  1
  O  O99  1  0.50672759  0.17838682  0.19630648  1
  O  O100  1  0.08073640  0.97154218  0.19435337  1
  O  O101  1  0.58766050  0.98651902  0.19823201  1
  O  O102  1  0.43272959  0.34493448  0.63600391  1
  O  O103  1  0.94068351  0.34648356  0.63468832  1
  O  O104  1  0.23107257  0.11620538  0.63539459  1
  O  O105  1  0.73479126  0.12311398  0.63259226  1
  O  O106  1  0.31900491  0.51835929  0.64041220  1
  O  O107  1  0.83025558  0.53533336  0.63279782  1
  O  O108  1  0.44092141  0.53511469  0.13470825  1
  O  O109  1  0.93640092  0.53347490  0.13380357  1
  O  O110  1  0.32883570  0.12301707  0.13312357  1
  O  O111  1  0.82516967  0.12844850  0.13945012  1
  O  O112  1  0.23390446  0.34912781  0.13327712  1
  O  O113  1  0.73385408  0.34868855  0.13488312  1
  O  O114  1  0.21259497  0.29575804  0.03289522  1
  O  O115  1  0.71965030  0.30049218  0.03495458  1
  O  O116  1  0.43231312  0.57152390  0.03521184  1
  O  O117  1  0.93274380  0.56597518  0.03283466  1
  O  O118  1  0.35070845  0.12658114  0.03264213  1
  O  O119  1  0.85508821  0.14673822  0.03063851  1
  O  O120  1  0.21627531  0.13679175  0.53489321  1
  O  O121  1  0.71555810  0.13479053  0.53227037  1
  O  O122  1  0.35479251  0.56609706  0.53080829  1
  O  O123  1  0.85298549  0.57560764  0.53237627  1
  O  O124  1  0.43142927  0.30166936  0.52359593  1
  O  O125  1  0.93234570  0.29307841  0.53507803  1
  O  O126  1  0.27006068  0.69528388  0.97142331  1
  O  O127  1  0.77217194  0.68241200  0.96596447  1
  O  O128  1  0.06923716  0.45139458  0.96831030  1
  O  O129  1  0.57727525  0.46747499  0.97089233  1
  O  O130  1  0.14144144  0.83798288  0.97210540  1
  O  O131  1  0.66258321  0.86248514  0.96602941  1
  O  O132  1  0.27004266  0.86005175  0.46417186  1
  O  O133  1  0.76919823  0.84255221  0.47103258  1
  O  O134  1  0.16309247  0.46595079  0.46490289  1
  O  O135  1  0.64252272  0.44632259  0.46967443  1
  O  O136  1  0.07798184  0.68694447  0.47030698  1
  O  O137  1  0.56860438  0.68772605  0.46671616  1
  O  O138  1  0.07962929  0.65564335  0.36013669  1
  O  O139  1  0.55720528  0.63965134  0.36581870  1
  O  O140  1  0.25736439  0.86306339  0.36225874  1
  O  O141  1  0.75349447  0.87613180  0.36013180  1
  O  O142  1  0.17774484  0.49131107  0.36275066  1
  O  O143  1  0.68124328  0.47855172  0.36181536  1
  O  O144  1  0.05709721  0.47612776  0.86726101  1
  O  O145  1  0.58005837  0.50379214  0.86025724  1
  O  O146  1  0.17896022  0.87766708  0.86407616  1
  O  O147  1  0.67776980  0.86819278  0.86394950  1
  O  O148  1  0.25236466  0.62931971  0.86119689  1
  O  O149  1  0.75920214  0.64696623  0.86416761  1
  O  O150  1  0.00816061  0.82783791  0.41065515  1
  O  O151  1  0.50958570  0.81429168  0.41115416  1
  O  O152  1  0.39438235  0.97867588  0.40932223  1
  O  O153  1  0.90424527  0.97164681  0.41144575  1
  O  O154  1  0.09389094  0.22114831  0.40917149  1
  O  O155  1  0.58331326  0.16995507  0.41423977  1
  O  O156  1  0.00881550  0.20590716  0.91278279  1
  O  O157  1  0.50842615  0.18795624  0.91104121  1
  O  O158  1  0.08255106  0.99531189  0.91538141  1
  O  O159  1  0.59324887  0.96946833  0.91074171  1
  O  O160  1  0.40445156  0.83764612  0.91220251  1
  O  O161  1  0.89655537  0.81183395  0.91119924  1
  O  O162  1  0.49206841  0.16339030  0.59378722  1
  O  O163  1  0.99154272  0.16956019  0.59531779  1
  O  O164  1  0.09298914  0.02115276  0.59387794  1
  O  O165  1  0.59519387  0.01997832  0.59320959  1
  O  O166  1  0.42257827  0.82546454  0.60240311  1
  O  O167  1  0.91833417  0.81513036  0.59398751  1
  O  O168  1  0.49194224  0.81374504  0.09551323  1
  O  O169  1  0.98941648  0.80915516  0.09270322  1
  O  O170  1  0.41603419  0.01756547  0.09386269  1
  O  O171  1  0.92274803  0.01675800  0.10170224  1
  O  O172  1  0.09324878  0.16825734  0.09526862  1
  O  O173  1  0.59561760  0.16709284  0.09330044  1
  O  O174  1  0.34626476  0.14784497  0.74189731  1
  O  O175  1  0.83350139  0.14556599  0.74053851  1
  O  O176  1  0.22657741  0.29967734  0.74202135  1
  O  O177  1  0.73747996  0.32874557  0.74038074  1
  O  O178  1  0.43043381  0.53626030  0.74612021  1
  O  O179  1  0.91913726  0.52484970  0.74256837  1
  O  O180  1  0.33328849  0.52106549  0.24018311  1
  O  O181  1  0.84946245  0.54880467  0.23835258  1
  O  O182  1  0.41989795  0.31350123  0.24228567  1
  O  O183  1  0.93190457  0.32247818  0.24054156  1
  O  O184  1  0.23649746  0.14341604  0.23904554  1
  O  O185  1  0.72663773  0.15348724  0.24104442  1
  O  O186  1  0.31797553  0.49516521  0.92283704  1
  O  O187  1  0.82119375  0.51241040  0.91904385  1
  O  O188  1  0.43077904  0.35750794  0.91400617  1
  O  O189  1  0.93487480  0.36617139  0.92378060  1
  O  O190  1  0.25003643  0.14665805  0.92673006  1
  O  O191  1  0.74528116  0.12534422  0.91754505  1
  O  O192  1  0.31632033  0.12412368  0.41456057  1
  O  O193  1  0.81781565  0.14039262  0.42248513  1
  O  O194  1  0.24636576  0.36876821  0.41589082  1
  O  O195  1  0.75083550  0.35249983  0.42519403  1
  O  O196  1  0.43359241  0.50635039  0.42113824  1
  O  O197  1  0.93003222  0.50220572  0.41456471  1
  O  O198  1  0.16470660  0.46874158  0.08124013  1
  O  O199  1  0.66942012  0.47008751  0.08044422  1
  O  O200  1  0.06585819  0.65711725  0.08284056  1
  O  O201  1  0.56753491  0.66392664  0.08064986  1
  O  O202  1  0.26352495  0.86327590  0.08338934  1
  O  O203  1  0.75679869  0.84268851  0.08115856  1
  O  O204  1  0.16689771  0.86663600  0.58014901  1
  O  O205  1  0.66887289  0.86709666  0.57999645  1
  O  O206  1  0.25719678  0.67424346  0.58068555  1
  O  O207  1  0.76654014  0.66729441  0.58247792  1
  O  O208  1  0.06712045  0.47055528  0.58068968  1
  O  O209  1  0.57898107  0.49910255  0.58349233  1
  O  O210  1  0.14882440  0.81614441  0.25893061  1
  O  O211  1  0.65088125  0.84825604  0.24616076  1
  O  O212  1  0.25578976  0.69577560  0.26003042  1
  O  O213  1  0.77494976  0.70404556  0.24576964  1
  O  O214  1  0.08278447  0.46297398  0.25357930  1
  O  O215  1  0.59063262  0.48246438  0.24453031  1
  O  O216  1  0.15002871  0.45264588  0.74695419  1
  O  O217  1  0.64770657  0.47657108  0.75836250  1
  O  O218  1  0.08998383  0.69808393  0.74531590  1
  O  O219  1  0.58254936  0.69478350  0.75752958  1
  O  O220  1  0.27449681  0.84427030  0.74665827  1
  O  O221  1  0.75625864  0.81540144  0.76181115  1
