# generated using pymatgen
data_Na10Ga4Si7Sn4S5O48
_symmetry_space_group_name_H-M   'P 1'
_cell_length_a   17.79801650
_cell_length_b   8.89948491
_cell_length_c   22.42353370
_cell_angle_alpha   89.75898754
_cell_angle_beta   90.36072493
_cell_angle_gamma   119.91310536
_symmetry_Int_Tables_number   1
_chemical_formula_structural   Na10Ga4Si7Sn4S5O48
_chemical_formula_sum   'Na30 Ga12 Si21 Sn12 S15 O144'
_cell_volume   3078.51895168
_cell_formula_units_Z   3
loop_
 _symmetry_equiv_pos_site_id
 _symmetry_equiv_pos_as_xyz
  1  'x, y, z'
loop_
 _atom_site_type_symbol
 _atom_site_label
 _atom_site_symmetry_multiplicity
 _atom_site_fract_x
 _atom_site_fract_y
 _atom_site_fract_z
 _atom_site_occupancy
  Na  Na0  1  0.18355254  0.37266586  0.24361484  1
  Na  Na1  1  0.68350202  0.37319402  0.24365537  1
  Na  Na2  1  0.99385612  0.62527213  0.25350991  1
  Na  Na3  1  0.49398465  0.62515445  0.25327384  1
  Na  Na4  1  0.49378372  0.35975695  0.75711839  1
  Na  Na5  1  0.18318049  0.99375405  0.74705580  1
  Na  Na6  1  0.68487397  0.99652343  0.74597396  1
  Na  Na7  1  0.65758614  0.33977486  0.57955459  1
  Na  Na8  1  0.01858576  0.70679020  0.58053990  1
  Na  Na9  1  0.82729053  0.95735589  0.59029593  1
  Na  Na10  1  0.48926091  0.66954622  0.91157851  1
  Na  Na11  1  0.99085294  0.67255099  0.91056435  1
  Na  Na12  1  0.85063074  0.03548021  0.90768127  1
  Na  Na13  1  0.15949496  0.28884769  0.92185610  1
  Na  Na14  1  0.48991722  0.31109941  0.41108009  1
  Na  Na15  1  0.98858621  0.30876844  0.41099322  1
  Na  Na16  1  0.35202395  0.66597125  0.40772676  1
  Na  Na17  1  0.85181522  0.66595019  0.41147191  1
  Na  Na18  1  0.01747189  0.00498629  0.49721698  1
  Na  Na19  1  0.51262562  0.99326855  0.49558806  1
  Na  Na20  1  0.01072043  0.01717274  0.99906468  1
  Na  Na21  1  0.51323437  0.03362784  0.99496486  1
  Na  Na22  1  0.33782886  0.32325997  0.83236669  1
  Na  Na23  1  0.83990841  0.33552004  0.82668807  1
  Na  Na24  1  0.33306126  0.33193289  0.32929185  1
  Na  Na25  1  0.83289932  0.33187013  0.33021277  1
  Na  Na26  1  0.17368233  0.66136919  0.16041402  1
  Na  Na27  1  0.67345225  0.66128294  0.16048970  1
  Na  Na28  1  0.17357434  0.67742791  0.66682348  1
  Na  Na29  1  0.67189260  0.68471536  0.66522544  1
  Ga  Ga30  1  0.00223055  0.00263585  0.35192628  1
  Ga  Ga31  1  0.50295923  0.00214479  0.35148911  1
  Ga  Ga32  1  0.99844887  0.99587285  0.84991846  1
  Ga  Ga33  1  0.49849119  0.00039276  0.85384563  1
  Ga  Ga34  1  0.33331742  0.31664714  0.68967733  1
  Ga  Ga35  1  0.83383459  0.33343104  0.68724343  1
  Ga  Ga36  1  0.33563940  0.35395815  0.18605792  1
  Ga  Ga37  1  0.83521725  0.35448159  0.18642326  1
  Ga  Ga38  1  0.15869712  0.64391163  0.01632748  1
  Ga  Ga39  1  0.65541241  0.63962848  0.01650715  1
  Ga  Ga40  1  0.16178887  0.67445574  0.51510910  1
  Ga  Ga41  1  0.66179000  0.66612653  0.52005033  1
  Si  Si42  1  0.35628175  0.71824316  0.25103345  1
  Si  Si43  1  0.85613243  0.71853809  0.25106097  1
  Si  Si44  1  0.99304795  0.28599678  0.25151476  1
  Si  Si45  1  0.49299984  0.28606708  0.25163611  1
  Si  Si46  1  0.99440143  0.69626536  0.75188140  1
  Si  Si47  1  0.49361026  0.69947295  0.75230880  1
  Si  Si48  1  0.35562480  0.99337914  0.75113915  1
  Si  Si49  1  0.85525116  0.00368601  0.75124726  1
  Si  Si50  1  0.19002532  0.03809852  0.58625279  1
  Si  Si51  1  0.68542700  0.03731332  0.58624038  1
  Si  Si52  1  0.83095895  0.62428705  0.58434803  1
  Si  Si53  1  0.18854795  0.34059304  0.08431906  1
  Si  Si54  1  0.68689697  0.34086879  0.08601569  1
  Si  Si55  1  0.01959134  0.36812080  0.91776594  1
  Si  Si56  1  0.51978543  0.36332933  0.91657216  1
  Si  Si57  1  0.16553801  0.95425425  0.91903206  1
  Si  Si58  1  0.66401052  0.95452409  0.92058479  1
  Si  Si59  1  0.16446874  0.37275270  0.41981910  1
  Si  Si60  1  0.66327137  0.36620774  0.41898203  1
  Si  Si61  1  0.02028778  0.67365520  0.41755613  1
  Si  Si62  1  0.52292823  0.67480007  0.41897490  1
  Sn  Sn63  1  0.99962438  0.98924120  0.64988617  1
  Sn  Sn64  1  0.49667087  0.98234114  0.65008165  1
  Sn  Sn65  1  0.00101873  0.01425228  0.14715085  1
  Sn  Sn66  1  0.50072379  0.01337097  0.14730425  1
  Sn  Sn67  1  0.33086481  0.31856924  0.98153805  1
  Sn  Sn68  1  0.82606094  0.32279523  0.98265197  1
  Sn  Sn69  1  0.32836317  0.33341930  0.48253446  1
  Sn  Sn70  1  0.82870036  0.34066463  0.48259459  1
  Sn  Sn71  1  0.16493536  0.65391750  0.31469500  1
  Sn  Sn72  1  0.66412804  0.65429029  0.31516753  1
  Sn  Sn73  1  0.16293944  0.67370882  0.81490661  1
  Sn  Sn74  1  0.66541921  0.67657035  0.81564492  1
  S  S75  1  0.14739001  0.00090108  0.25096470  1
  S  S76  1  0.64739081  0.00055164  0.25092885  1
  S  S77  1  0.14731871  0.29564204  0.75069713  1
  S  S78  1  0.64645342  0.29247606  0.75074143  1
  S  S79  1  0.47893097  0.33144826  0.58465520  1
  S  S80  1  0.98165564  0.33521676  0.58338156  1
  S  S81  1  0.33060252  0.62573749  0.58358605  1
  S  S82  1  0.48093852  0.62894523  0.08445657  1
  S  S83  1  0.98100138  0.62871783  0.08414920  1
  S  S84  1  0.33086316  0.03754850  0.08570446  1
  S  S85  1  0.83107492  0.03847284  0.08453114  1
  S  S86  1  0.31188786  0.67074100  0.91851726  1
  S  S87  1  0.81097797  0.66548364  0.91875943  1
  S  S88  1  0.31076508  0.95650081  0.41823924  1
  S  S89  1  0.81134083  0.95863568  0.41850744  1
  O  O90  1  0.10829003  0.03335886  0.30362479  1
  O  O91  1  0.60831803  0.03319432  0.30367957  1
  O  O92  1  0.41733907  0.79770634  0.31029565  1
  O  O93  1  0.91767553  0.79818735  0.30995773  1
  O  O94  1  0.48216572  0.17702539  0.31271911  1
  O  O95  1  0.98279565  0.17759524  0.31261593  1
  O  O96  1  0.10875935  0.18810178  0.80485359  1
  O  O97  1  0.60453516  0.17981853  0.80186622  1
  O  O98  1  0.48292632  0.78896202  0.81197993  1
  O  O99  1  0.98622008  0.79257361  0.81179642  1
  O  O100  1  0.42371894  0.04320855  0.80520750  1
  O  O101  1  0.91313121  0.02940943  0.81092975  1
  O  O102  1  0.39503581  0.97147627  0.68746024  1
  O  O103  1  0.89667932  0.98009500  0.68857681  1
  O  O104  1  0.09284281  0.22031280  0.69649177  1
  O  O105  1  0.59313416  0.22512169  0.69408910  1
  O  O106  1  0.02392265  0.82392018  0.69219080  1
  O  O107  1  0.52715832  0.83099190  0.69432646  1
  O  O108  1  0.40136906  0.82709428  0.19059415  1
  O  O109  1  0.90127172  0.82750207  0.19029718  1
  O  O110  1  0.02700681  0.21783065  0.19570192  1
  O  O111  1  0.52657667  0.21702005  0.19601001  1
  O  O112  1  0.09169533  0.96029528  0.19655689  1
  O  O113  1  0.59169707  0.96007751  0.19672128  1
  O  O114  1  0.43682738  0.35383726  0.63742390  1
  O  O115  1  0.93897236  0.36235035  0.63428663  1
  O  O116  1  0.24692708  0.13265667  0.64572350  1
  O  O117  1  0.74627048  0.12382037  0.64495095  1
  O  O118  1  0.32356190  0.51934574  0.63568654  1
  O  O119  1  0.81333183  0.49003712  0.63809163  1
  O  O120  1  0.44002989  0.52229365  0.13844114  1
  O  O121  1  0.93971527  0.52252700  0.13782992  1
  O  O122  1  0.32360115  0.12691459  0.13777853  1
  O  O123  1  0.82502205  0.13147464  0.13615181  1
  O  O124  1  0.24439230  0.35636713  0.14494282  1
  O  O125  1  0.74314881  0.35836645  0.14692217  1
  O  O126  1  0.23058658  0.30935002  0.02333743  1
  O  O127  1  0.72900314  0.30420263  0.02706030  1
  O  O128  1  0.42789498  0.54853512  0.02942065  1
  O  O129  1  0.92870652  0.54937773  0.02869166  1
  O  O130  1  0.34943022  0.14379669  0.02952001  1
  O  O131  1  0.84899245  0.14299588  0.02749626  1
  O  O132  1  0.23057501  0.15352317  0.52574218  1
  O  O133  1  0.72667336  0.16273485  0.52677076  1
  O  O134  1  0.34843823  0.55688441  0.52679288  1
  O  O135  1  0.86054779  0.56329077  0.52297744  1
  O  O136  1  0.42791564  0.30586684  0.52856738  1
  O  O137  1  0.92821155  0.29911375  0.52692682  1
  O  O138  1  0.27073926  0.69309695  0.97151164  1
  O  O139  1  0.77032552  0.69137170  0.97070397  1
  O  O140  1  0.08411396  0.44618462  0.97443002  1
  O  O141  1  0.57856778  0.45115255  0.97446418  1
  O  O142  1  0.14939364  0.82346965  0.97490271  1
  O  O143  1  0.65176250  0.82505097  0.97592437  1
  O  O144  1  0.26994933  0.84966075  0.47085226  1
  O  O145  1  0.77203983  0.85334756  0.47200720  1
  O  O146  1  0.15090410  0.47584283  0.47483076  1
  O  O147  1  0.64783984  0.45683487  0.47734596  1
  O  O148  1  0.07565184  0.70194224  0.47812119  1
  O  O149  1  0.58385954  0.70058322  0.47524427  1
  O  O150  1  0.06152591  0.63622617  0.35723034  1
  O  O151  1  0.55793608  0.63168768  0.35632698  1
  O  O152  1  0.25813586  0.88562565  0.36309436  1
  O  O153  1  0.75780164  0.88523397  0.36379760  1
  O  O154  1  0.19187471  0.49199755  0.35789168  1
  O  O155  1  0.69009509  0.49215737  0.35896951  1
  O  O156  1  0.05951930  0.49275831  0.85905270  1
  O  O157  1  0.55776598  0.48533359  0.85522941  1
  O  O158  1  0.18710505  0.89032258  0.85622877  1
  O  O159  1  0.69201246  0.89189843  0.85849862  1
  O  O160  1  0.25617767  0.63010434  0.86382783  1
  O  O161  1  0.75917672  0.63149350  0.86308287  1
  O  O162  1  0.00309051  0.83622752  0.41090361  1
  O  O163  1  0.50296792  0.83382259  0.41194838  1
  O  O164  1  0.39696324  0.97063741  0.41391413  1
  O  O165  1  0.89765907  0.97307356  0.41310963  1
  O  O166  1  0.07566492  0.18627516  0.41194886  1
  O  O167  1  0.57395809  0.18080286  0.41045104  1
  O  O168  1  0.00601037  0.17280323  0.91012534  1
  O  O169  1  0.50709233  0.17223164  0.90990652  1
  O  O170  1  0.07724264  0.97245799  0.91250806  1
  O  O171  1  0.57502516  0.96202283  0.91226710  1
  O  O172  1  0.39821597  0.82115231  0.91282380  1
  O  O173  1  0.89824576  0.82333759  0.91399569  1
  O  O174  1  0.48947523  0.17539537  0.58808743  1
  O  O175  1  0.98999945  0.17698413  0.58868843  1
  O  O176  1  0.09188036  0.01831330  0.58924579  1
  O  O177  1  0.59073489  0.03604938  0.58900294  1
  O  O178  1  0.41048075  0.80328745  0.58563971  1
  O  O179  1  0.91558240  0.82335658  0.58714062  1
  O  O180  1  0.48743989  0.80217104  0.08835635  1
  O  O181  1  0.98769060  0.80253875  0.08784821  1
  O  O182  1  0.40934332  0.01545065  0.08747353  1
  O  O183  1  0.91068915  0.01831119  0.08626302  1
  O  O184  1  0.09175676  0.15806031  0.08664731  1
  O  O185  1  0.59059965  0.15853197  0.08777434  1
  O  O186  1  0.34206640  0.16563359  0.74715027  1
  O  O187  1  0.83672683  0.16608861  0.74564881  1
  O  O188  1  0.23284869  0.30729350  0.74440775  1
  O  O189  1  0.73146926  0.30647428  0.74492237  1
  O  O190  1  0.40901756  0.50648598  0.74046219  1
  O  O191  1  0.90761353  0.51062826  0.74335454  1
  O  O192  1  0.34256496  0.51930022  0.24636923  1
  O  O193  1  0.84292076  0.51981352  0.24653700  1
  O  O194  1  0.40886858  0.31186239  0.24023713  1
  O  O195  1  0.90898180  0.31166157  0.24000003  1
  O  O196  1  0.23326411  0.15590311  0.24397448  1
  O  O197  1  0.73338646  0.15554181  0.24405793  1
  O  O198  1  0.32209325  0.51185152  0.92296121  1
  O  O199  1  0.82706091  0.51527331  0.92323785  1
  O  O200  1  0.42689326  0.37107535  0.92318988  1
  O  O201  1  0.92515445  0.36283619  0.92597436  1
  O  O202  1  0.24701400  0.15666990  0.92075546  1
  O  O203  1  0.75343213  0.14643090  0.92232780  1
  O  O204  1  0.32594346  0.13781776  0.42264852  1
  O  O205  1  0.82591730  0.13895955  0.42322599  1
  O  O206  1  0.25395438  0.36004596  0.42163746  1
  O  O207  1  0.75234199  0.35294852  0.41915993  1
  O  O208  1  0.42621676  0.48828627  0.42527989  1
  O  O209  1  0.92608510  0.48455307  0.42106623  1
  O  O210  1  0.18109464  0.51706996  0.07815408  1
  O  O211  1  0.68046099  0.51799304  0.07858225  1
  O  O212  1  0.06753371  0.64625901  0.08011947  1
  O  O213  1  0.56746419  0.64702138  0.08061967  1
  O  O214  1  0.25210655  0.86724829  0.07919803  1
  O  O215  1  0.75339532  0.86884540  0.07900152  1
  O  O216  1  0.17598299  0.83993119  0.57890534  1
  O  O217  1  0.67885288  0.84895050  0.57826167  1
  O  O218  1  0.25294305  0.64039652  0.57748835  1
  O  O219  1  0.74320927  0.64033308  0.57627265  1
  O  O220  1  0.06760618  0.49183059  0.57808149  1
  O  O221  1  0.56619888  0.48591047  0.58117102  1
  O  O222  1  0.15526228  0.84262351  0.25747280  1
  O  O223  1  0.65518396  0.84242684  0.25759919  1
  O  O224  1  0.25799886  0.69448538  0.25391724  1
  O  O225  1  0.75774912  0.69426393  0.25434362  1
  O  O226  1  0.07958749  0.48741125  0.25361922  1
  O  O227  1  0.57965435  0.48737543  0.25363920  1
  O  O228  1  0.15864261  0.47137242  0.75620911  1
  O  O229  1  0.65451980  0.46719986  0.75653626  1
  O  O230  1  0.08473921  0.68433868  0.75239170  1
  O  O231  1  0.57984854  0.67102942  0.75377318  1
  O  O232  1  0.25852390  0.82059164  0.75478548  1
  O  O233  1  0.75768261  0.82328843  0.75416354  1
