# generated using pymatgen
data_Ba3Te4O11
_symmetry_space_group_name_H-M   'P 1'
_cell_length_a   7.98571980
_cell_length_b   9.48828108
_cell_length_c   10.07840018
_cell_angle_alpha   97.68380037
_cell_angle_beta   111.08245668
_cell_angle_gamma   103.29171518
_symmetry_Int_Tables_number   1
_chemical_formula_structural   Ba3Te4O11
_chemical_formula_sum   'Ba6 Te8 O22'
_cell_volume   673.46533381
_cell_formula_units_Z   2
loop_
 _symmetry_equiv_pos_site_id
 _symmetry_equiv_pos_as_xyz
  1  'x, y, z'
loop_
 _atom_site_type_symbol
 _atom_site_label
 _atom_site_symmetry_multiplicity
 _atom_site_fract_x
 _atom_site_fract_y
 _atom_site_fract_z
 _atom_site_occupancy
  Ba  Ba0  1  0.30935720  0.01215120  0.11227713  1
  Ba  Ba1  1  0.69064280  0.98784880  0.88772287  1
  Ba  Ba2  1  0.14465653  0.40608703  0.17760314  1
  Ba  Ba3  1  0.85534347  0.59391297  0.82239686  1
  Ba  Ba4  1  0.71867556  0.45601989  0.37111597  1
  Ba  Ba5  1  0.28132444  0.54398011  0.62888403  1
  Te  Te6  1  0.43322278  0.19143754  0.53774419  1
  Te  Te7  1  0.56677722  0.80856246  0.46225581  1
  Te  Te8  1  0.94472030  0.23903557  0.71573437  1
  Te  Te9  1  0.05527970  0.76096443  0.28426563  1
  Te  Te10  1  0.46870597  0.30872582  0.93983518  1
  Te  Te11  1  0.53129403  0.69127418  0.06016482  1
  Te  Te12  1  0.07838181  0.88196251  0.70138850  1
  Te  Te13  1  0.92161819  0.11803749  0.29861150  1
  O  O14  1  0.85443849  0.72443496  0.58385796  1
  O  O15  1  0.14556151  0.27556504  0.41614204  1
  O  O16  1  0.20878737  0.76409421  0.80449521  1
  O  O17  1  0.79121263  0.23590579  0.19550479  1
  O  O18  1  0.99517027  0.94496564  0.84409530  1
  O  O19  1  0.00482973  0.05503436  0.15590470  1
  O  O20  1  0.59719288  0.68550496  0.90066866  1
  O  O21  1  0.40280712  0.31449504  0.09933134  1
  O  O22  1  0.59814544  0.89751751  0.12510199  1
  O  O23  1  0.40185456  0.10248249  0.87489801  1
  O  O24  1  0.74208022  0.64815488  0.18833437  1
  O  O25  1  0.25791978  0.35184512  0.81166563  1
  O  O26  1  0.06937826  0.60007483  0.37004710  1
  O  O27  1  0.93062174  0.39992517  0.62995290  1
  O  O28  1  0.47440934  0.21078928  0.37161382  1
  O  O29  1  0.52559066  0.78921072  0.62838618  1
  O  O30  1  0.53328750  0.38934881  0.64328795  1
  O  O31  1  0.46671250  0.61065119  0.35671205  1
  O  O32  1  0.66209874  0.13307903  0.63590176  1
  O  O33  1  0.33790126  0.86692097  0.36409824  1
  O  O34  1  0.93577597  0.31775850  0.89115458  1
  O  O35  1  0.06422403  0.68224150  0.10884542  1
