# generated using pymatgen
data_Na3MgZr3P5SO24
_symmetry_space_group_name_H-M   'P 1'
_cell_length_a   8.92138884
_cell_length_b   8.91715301
_cell_length_c   23.04488220
_cell_angle_alpha   89.91176933
_cell_angle_beta   90.18531102
_cell_angle_gamma   119.92968112
_symmetry_Int_Tables_number   1
_chemical_formula_structural   Na3MgZr3P5SO24
_chemical_formula_sum   'Na9 Mg3 Zr9 P15 S3 O72'
_cell_volume   1588.79855166
_cell_formula_units_Z   3
loop_
 _symmetry_equiv_pos_site_id
 _symmetry_equiv_pos_as_xyz
  1  'x, y, z'
loop_
 _atom_site_type_symbol
 _atom_site_label
 _atom_site_symmetry_multiplicity
 _atom_site_fract_x
 _atom_site_fract_y
 _atom_site_fract_z
 _atom_site_occupancy
  Na  Na0  1  0.99122488  0.36407098  0.74099894  1
  Na  Na1  1  0.31739695  0.97910327  0.08765064  1
  Na  Na2  1  0.32717923  0.03358555  0.40555042  1
  Na  Na3  1  0.97200945  0.99868405  0.49084195  1
  Na  Na4  1  0.98118775  0.00124075  0.99777677  1
  Na  Na5  1  0.64580331  0.33271798  0.82484636  1
  Na  Na6  1  0.66871840  0.33631447  0.32163446  1
  Na  Na7  1  0.33248392  0.65489449  0.16753996  1
  Na  Na8  1  0.35142620  0.67335256  0.66499265  1
  Mg  Mg9  1  0.99911244  0.00114724  0.35222581  1
  Mg  Mg10  1  0.66529500  0.34096393  0.68647367  1
  Mg  Mg11  1  0.66216299  0.32823269  0.18438996  1
  Zr  Zr12  1  0.00195297  0.99849022  0.85243090  1
  Zr  Zr13  1  0.99421851  0.99537866  0.64609469  1
  Zr  Zr14  1  0.00120124  0.99864723  0.14848749  1
  Zr  Zr15  1  0.67144827  0.33588916  0.98063384  1
  Zr  Zr16  1  0.68002763  0.34494860  0.48031128  1
  Zr  Zr17  1  0.33208630  0.65986341  0.01964882  1
  Zr  Zr18  1  0.33363355  0.65756894  0.51933822  1
  Zr  Zr19  1  0.33338505  0.67002692  0.31359530  1
  Zr  Zr20  1  0.33844318  0.67203386  0.81311819  1
  P  P21  1  0.30133182  0.00844022  0.25339734  1
  P  P22  1  0.29617830  0.29116893  0.74933504  1
  P  P23  1  0.99594724  0.70232991  0.74966564  1
  P  P24  1  0.70626106  0.00444207  0.74903303  1
  P  P25  1  0.95985689  0.33523006  0.58830234  1
  P  P26  1  0.66602804  0.62263036  0.58594539  1
  P  P27  1  0.95636485  0.62071256  0.08729484  1
  P  P28  1  0.66736328  0.04344995  0.08524018  1
  P  P29  1  0.37984025  0.33441088  0.08678839  1
  P  P30  1  0.62769400  0.66700605  0.91680886  1
  P  P31  1  0.03888039  0.37276417  0.91410619  1
  P  P32  1  0.33389315  0.96108808  0.91908426  1
  P  P33  1  0.63001252  0.95876209  0.41711454  1
  P  P34  1  0.32884715  0.36728676  0.41533377  1
  P  P35  1  0.04269557  0.67201040  0.41594549  1
  S  S36  1  0.70988436  0.70408275  0.25224687  1
  S  S37  1  0.99507942  0.29095425  0.25189926  1
  S  S38  1  0.37848651  0.04363732  0.58348388  1
  O  O39  1  0.20875303  0.01645507  0.30776334  1
  O  O40  1  0.80801793  0.79444706  0.30374182  1
  O  O41  1  0.98081248  0.19028723  0.30340331  1
  O  O42  1  0.20172509  0.18407131  0.80431499  1
  O  O43  1  0.98558455  0.79839773  0.80416584  1
  O  O44  1  0.81987971  0.02108668  0.80264753  1
  O  O45  1  0.79570912  0.97961237  0.69492252  1
  O  O46  1  0.17621220  0.20068593  0.69637189  1
  O  O47  1  0.01795097  0.81372088  0.69547809  1
  O  O48  1  0.79258390  0.81066706  0.19869094  1
  O  O49  1  0.01214357  0.20387380  0.19842434  1
  O  O50  1  0.18688954  0.98840417  0.19777970  1
  O  O51  1  0.88158633  0.35292828  0.64431138  1
  O  O52  1  0.48382408  0.12977002  0.63378249  1
  O  O53  1  0.64295897  0.51731077  0.63944137  1
  O  O54  1  0.87388317  0.51567990  0.14048004  1
  O  O55  1  0.63010719  0.12211692  0.13721677  1
  O  O56  1  0.48359584  0.35768839  0.14047605  1
  O  O57  1  0.46238605  0.30454490  0.03156371  1
  O  O58  1  0.85247490  0.53913735  0.03055713  1
  O  O59  1  0.69175801  0.15046452  0.02907374  1
  O  O60  1  0.45572492  0.13882241  0.52821021  1
  O  O61  1  0.67968765  0.53243445  0.52970500  1
  O  O62  1  0.84619887  0.31808680  0.53410496  1
  O  O63  1  0.53674865  0.68510396  0.97105030  1
  O  O64  1  0.15282700  0.47023774  0.96716519  1
  O  O65  1  0.31737353  0.85946804  0.97541798  1
  O  O66  1  0.53673205  0.84728470  0.47110294  1
  O  O67  1  0.31456984  0.46126639  0.47015969  1
  O  O68  1  0.15589990  0.68886580  0.46943552  1
  O  O69  1  0.13184168  0.64713378  0.36175728  1
  O  O70  1  0.50928184  0.87053060  0.36337498  1
  O  O71  1  0.35446135  0.48230086  0.36169091  1
  O  O72  1  0.12468556  0.47435100  0.85805783  1
  O  O73  1  0.34935163  0.86239051  0.86632588  1
  O  O74  1  0.51947427  0.64929135  0.86211565  1
  O  O75  1  0.02931542  0.83478558  0.41154831  1
  O  O76  1  0.80801915  0.98184049  0.41020317  1
  O  O77  1  0.17078205  0.18752111  0.41136485  1
  O  O78  1  0.02068043  0.19162026  0.91246953  1
  O  O79  1  0.17042607  0.97764139  0.91348426  1
  O  O80  1  0.80748357  0.83025885  0.91270166  1
  O  O81  1  0.98264906  0.17289654  0.58744035  1
  O  O82  1  0.20264744  0.02517828  0.58646800  1
  O  O83  1  0.83208052  0.80490887  0.58680840  1
  O  O84  1  0.98352618  0.80984085  0.09063673  1
  O  O85  1  0.82750046  0.01964214  0.09081385  1
  O  O86  1  0.19595190  0.16560086  0.09036109  1
  O  O87  1  0.69381551  0.16788476  0.74490219  1
  O  O88  1  0.47343990  0.31054697  0.74477218  1
  O  O89  1  0.83940488  0.52092298  0.74737262  1
  O  O90  1  0.69345564  0.53320976  0.24715088  1
  O  O91  1  0.84595484  0.31667400  0.24657607  1
  O  O92  1  0.48137221  0.16547759  0.24733064  1
  O  O93  1  0.64426903  0.50376971  0.92144209  1
  O  O94  1  0.85990911  0.35712142  0.92040618  1
  O  O95  1  0.49674613  0.14156783  0.92154798  1
  O  O96  1  0.63156210  0.13413413  0.42344536  1
  O  O97  1  0.49306055  0.34831900  0.42162505  1
  O  O98  1  0.86337564  0.50590431  0.42116130  1
  O  O99  1  0.34779251  0.48878149  0.07806674  1
  O  O100  1  0.14580213  0.65453826  0.07935511  1
  O  O101  1  0.50384539  0.85983631  0.07661487  1
  O  O102  1  0.35638186  0.86608865  0.57947070  1
  O  O103  1  0.50837096  0.65206391  0.57862355  1
  O  O104  1  0.14162489  0.49826549  0.57915716  1
  O  O105  1  0.31300152  0.83631366  0.25376949  1
  O  O106  1  0.53192321  0.68598811  0.25354261  1
  O  O107  1  0.16000821  0.46462508  0.25312733  1
  O  O108  1  0.30082609  0.46909620  0.75420107  1
  O  O109  1  0.16271096  0.68627263  0.75401614  1
  O  O110  1  0.52624709  0.83968200  0.75413557  1
