# generated using pymatgen
data_Na2LaTaSi2SO12
_symmetry_space_group_name_H-M   'P 1'
_cell_length_a   9.34229261
_cell_length_b   9.34229226
_cell_length_c   23.03207119
_cell_angle_alpha   91.03974629
_cell_angle_beta   88.96025372
_cell_angle_gamma   118.58966069
_symmetry_Int_Tables_number   1
_chemical_formula_structural   Na2LaTaSi2SO12
_chemical_formula_sum   'Na12 La6 Ta6 Si12 S6 O72'
_cell_volume   1764.70445731
_cell_formula_units_Z   6
loop_
 _symmetry_equiv_pos_site_id
 _symmetry_equiv_pos_as_xyz
  1  'x, y, z'
loop_
 _atom_site_type_symbol
 _atom_site_label
 _atom_site_symmetry_multiplicity
 _atom_site_fract_x
 _atom_site_fract_y
 _atom_site_fract_z
 _atom_site_occupancy
  Na  Na0  1  0.97541580  0.63103138  0.24834440  1
  Na  Na1  1  0.36896862  0.02458420  0.74834440  1
  Na  Na2  1  0.64208280  0.96436438  0.58167740  1
  Na  Na3  1  0.03563562  0.35791720  0.08167740  1
  Na  Na4  1  0.30874880  0.29769838  0.91501140  1
  Na  Na5  1  0.70230162  0.69125120  0.41501140  1
  Na  Na6  1  0.00779348  0.97308833  0.49885847  1
  Na  Na7  1  0.02691167  0.99220652  0.99885847  1
  Na  Na8  1  0.67446048  0.30642133  0.83219147  1
  Na  Na9  1  0.69357867  0.32553952  0.33219147  1
  Na  Na10  1  0.34112648  0.63975533  0.16552547  1
  Na  Na11  1  0.36024467  0.65887352  0.66552547  1
  La  La12  1  0.99626998  0.01156213  0.35282663  1
  La  La13  1  0.98843787  0.00373002  0.85282663  1
  La  La14  1  0.66293698  0.34489513  0.68615963  1
  La  La15  1  0.65510487  0.33706302  0.18615963  1
  La  La16  1  0.32960298  0.67822913  0.01949363  1
  La  La17  1  0.32177087  0.67039702  0.51949363  1
  Ta  Ta18  1  0.99800871  0.00503415  0.64685145  1
  Ta  Ta19  1  0.99496585  0.00199129  0.14685145  1
  Ta  Ta20  1  0.66467571  0.33836715  0.98018445  1
  Ta  Ta21  1  0.66163285  0.33532429  0.48018445  1
  Ta  Ta22  1  0.33134171  0.67170115  0.31351845  1
  Ta  Ta23  1  0.32829885  0.66865829  0.81351845  1
  Si  Si24  1  0.69795129  0.72158450  0.25275913  1
  Si  Si25  1  0.02161732  0.31460676  0.24925876  1
  Si  Si26  1  0.27841550  0.30204871  0.75275913  1
  Si  Si27  1  0.68539324  0.97838268  0.74925876  1
  Si  Si28  1  0.36461829  0.05491750  0.58609213  1
  Si  Si29  1  0.68828432  0.64793976  0.58259176  1
  Si  Si30  1  0.94508250  0.63538171  0.08609213  1
  Si  Si31  1  0.35206024  0.31171568  0.08259176  1
  Si  Si32  1  0.03128429  0.38825150  0.91942613  1
  Si  Si33  1  0.35495032  0.98127376  0.91592576  1
  Si  Si34  1  0.61174850  0.96871571  0.41942613  1
  Si  Si35  1  0.01872624  0.64504968  0.41592576  1
  S  S36  1  0.28373221  0.97350209  0.24761907  1
  S  S37  1  0.02649791  0.71626779  0.74761907  1
  S  S38  1  0.95039921  0.30683509  0.58095207  1
  S  S39  1  0.69316491  0.04960079  0.08095207  1
  S  S40  1  0.61706521  0.64016909  0.91428607  1
  S  S41  1  0.35983091  0.38293479  0.41428607  1
  O  O42  1  0.22136055  0.00067826  0.30281012  1
  O  O43  1  0.80098375  0.78570968  0.31110472  1
  O  O44  1  0.00719021  0.21648426  0.30621510  1
  O  O45  1  0.21429032  0.19901625  0.81110472  1
  O  O46  1  0.99932174  0.77863945  0.80281012  1
  O  O47  1  0.78351574  0.99280979  0.80621510  1
  O  O48  1  0.79949723  0.96979247  0.69040590  1
  O  O49  1  0.14854883  0.18433425  0.69760276  1
  O  O50  1  0.04057330  0.82652407  0.69811222  1
  O  O51  1  0.81566575  0.85145117  0.19760276  1
  O  O52  1  0.03020753  0.20050277  0.19040590  1
  O  O53  1  0.17347593  0.95942670  0.19811222  1
  O  O54  1  0.88802755  0.33401126  0.63614312  1
  O  O55  1  0.46765075  0.11904268  0.64443772  1
  O  O56  1  0.67385721  0.54981726  0.63954810  1
  O  O57  1  0.88095732  0.53234925  0.14443772  1
  O  O58  1  0.66598874  0.11197245  0.13614312  1
  O  O59  1  0.45018274  0.32614279  0.13954810  1
  O  O60  1  0.46616423  0.30312547  0.02373890  1
  O  O61  1  0.81521583  0.51766725  0.03093576  1
  O  O62  1  0.70724030  0.15985707  0.03144522  1
  O  O63  1  0.48233275  0.18478417  0.53093576  1
  O  O64  1  0.69687453  0.53383577  0.52373890  1
  O  O65  1  0.84014293  0.29275970  0.53144522  1
  O  O66  1  0.55469355  0.66734526  0.96947712  1
  O  O67  1  0.13431675  0.45237668  0.97777172  1
  O  O68  1  0.34052321  0.88315126  0.97288210  1
  O  O69  1  0.54762332  0.86568325  0.47777172  1
  O  O70  1  0.33265474  0.44530645  0.46947712  1
  O  O71  1  0.11684874  0.65947679  0.47288210  1
  O  O72  1  0.13283023  0.63645947  0.35707290  1
  O  O73  1  0.48188183  0.85100125  0.36426976  1
  O  O74  1  0.37390630  0.49319107  0.36477922  1
  O  O75  1  0.14899875  0.51811817  0.86426976  1
  O  O76  1  0.36354053  0.86716977  0.85707290  1
  O  O77  1  0.50680893  0.62609370  0.86477922  1
  O  O78  1  0.97954185  0.79523302  0.41281639  1
  O  O79  1  0.79483708  0.99594187  0.41188207  1
  O  O80  1  0.23838524  0.21413750  0.40618345  1
  O  O81  1  0.00405813  0.20516292  0.91188207  1
  O  O82  1  0.20476698  0.02045815  0.91281639  1
  O  O83  1  0.78586250  0.76161476  0.90618345  1
  O  O84  1  0.94236546  0.13873873  0.58339463  1
  O  O85  1  0.18257055  0.04814873  0.59294913  1
  O  O86  1  0.86333674  0.82854740  0.59000562  1
  O  O87  1  0.95185127  0.81742945  0.09294913  1
  O  O88  1  0.86126127  0.05763454  0.08339463  1
  O  O89  1  0.17145260  0.13666326  0.09000562  1
  O  O90  1  0.64620885  0.12856602  0.74614939  1
  O  O91  1  0.46150408  0.32927487  0.74521507  1
  O  O92  1  0.90505224  0.54747050  0.73951645  1
  O  O93  1  0.67072513  0.53849592  0.24521507  1
  O  O94  1  0.87143398  0.35379115  0.24614939  1
  O  O95  1  0.45252950  0.09494776  0.23951645  1
  O  O96  1  0.60903246  0.47207173  0.91672763  1
  O  O97  1  0.84923755  0.38148173  0.92628213  1
  O  O98  1  0.53000374  0.16188040  0.92333862  1
  O  O99  1  0.61851827  0.15076245  0.42628213  1
  O  O100  1  0.52792827  0.39096754  0.41672763  1
  O  O101  1  0.83811960  0.46999626  0.42333862  1
  O  O102  1  0.31287485  0.46190002  0.07948339  1
  O  O103  1  0.12817008  0.66260887  0.07854907  1
  O  O104  1  0.57171824  0.88080450  0.07285045  1
  O  O105  1  0.33739113  0.87182992  0.57854907  1
  O  O106  1  0.53809998  0.68712515  0.57948339  1
  O  O107  1  0.11919550  0.42828176  0.57285045  1
  O  O108  1  0.27569846  0.80540573  0.25006163  1
  O  O109  1  0.51590355  0.71481573  0.25961613  1
  O  O110  1  0.19666974  0.49521440  0.25667262  1
  O  O111  1  0.28518427  0.48409645  0.75961613  1
  O  O112  1  0.19459427  0.72430154  0.75006163  1
  O  O113  1  0.50478560  0.80333026  0.75667262  1
