# generated using pymatgen
data_Na9Mg2Ta4Si6(PO12)3
_symmetry_space_group_name_H-M   'P 1'
_cell_length_a   9.03521775
_cell_length_b   27.04370445
_cell_length_c   22.27037496
_cell_angle_alpha   89.88748474
_cell_angle_beta   90.06314239
_cell_angle_gamma   119.97595713
_symmetry_Int_Tables_number   1
_chemical_formula_structural   Na9Mg2Ta4Si6(PO12)3
_chemical_formula_sum   'Na54 Mg12 Ta24 Si36 P18 O216'
_cell_volume   4713.75808263
_cell_formula_units_Z   6
loop_
 _symmetry_equiv_pos_site_id
 _symmetry_equiv_pos_as_xyz
  1  'x, y, z'
loop_
 _atom_site_type_symbol
 _atom_site_label
 _atom_site_symmetry_multiplicity
 _atom_site_fract_x
 _atom_site_fract_y
 _atom_site_fract_z
 _atom_site_occupancy
  Na  Na0  1  0.01872253  0.99940153  0.49460390  1
  Na  Na1  1  0.00536003  0.32817719  0.50253541  1
  Na  Na2  1  0.99643496  0.66701506  0.49934181  1
  Na  Na3  1  0.98611683  0.00819658  0.00075823  1
  Na  Na4  1  0.01927503  0.34066994  0.00105060  1
  Na  Na5  1  0.00339544  0.66607752  0.00809847  1
  Na  Na6  1  0.68507313  0.11063898  0.83168807  1
  Na  Na7  1  0.64433453  0.44461383  0.84279556  1
  Na  Na8  1  0.68492373  0.77647183  0.82552441  1
  Na  Na9  1  0.65867350  0.10470890  0.32539594  1
  Na  Na10  1  0.67112971  0.44220627  0.33717396  1
  Na  Na11  1  0.66866117  0.78023583  0.33364300  1
  Na  Na12  1  0.32420525  0.21951551  0.16363784  1
  Na  Na13  1  0.31582199  0.55698783  0.17027518  1
  Na  Na14  1  0.33936312  0.89435245  0.16339778  1
  Na  Na15  1  0.32017296  0.21800194  0.66835991  1
  Na  Na16  1  0.34428477  0.55609325  0.67153578  1
  Na  Na17  1  0.28994141  0.88489434  0.66085216  1
  Na  Na18  1  0.62391933  0.66148516  0.25678990  1
  Na  Na19  1  0.37760419  0.12041054  0.24318861  1
  Na  Na20  1  0.36464274  0.45978713  0.25737189  1
  Na  Na21  1  0.34820833  0.78551170  0.23979547  1
  Na  Na22  1  0.99020363  0.20695696  0.24204420  1
  Na  Na23  1  0.02195622  0.54901581  0.25076681  1
  Na  Na24  1  0.60711860  0.20464678  0.74734838  1
  Na  Na25  1  0.62233800  0.54217999  0.76067461  1
  Na  Na26  1  0.62152531  0.86973690  0.74231710  1
  Na  Na27  1  0.99224490  0.12765617  0.74961137  1
  Na  Na28  1  0.01725508  0.46203605  0.75709353  1
  Na  Na29  1  0.38439545  0.00380066  0.74235515  1
  Na  Na30  1  0.37349374  0.32902688  0.75853619  1
  Na  Na31  1  0.38628206  0.66697121  0.74935386  1
  Na  Na32  1  0.31026197  0.78339882  0.57488329  1
  Na  Na33  1  0.01462590  0.56335971  0.57424427  1
  Na  Na34  1  0.67147824  0.32589283  0.57469352  1
  Na  Na35  1  0.65738269  0.98708665  0.57603362  1
  Na  Na36  1  0.31320268  0.32905063  0.07130815  1
  Na  Na37  1  0.30619027  0.98586035  0.07315516  1
  Na  Na38  1  0.66384628  0.22611607  0.08927774  1
  Na  Na39  1  0.67951376  0.57101119  0.08856836  1
  Na  Na40  1  0.65822811  0.90076506  0.07154411  1
  Na  Na41  1  0.05587142  0.77849488  0.08462113  1
  Na  Na42  1  0.95850339  0.55061475  0.92575530  1
  Na  Na43  1  0.98936032  0.89282049  0.92152788  1
  Na  Na44  1  0.69678006  0.34633187  0.92509959  1
  Na  Na45  1  0.34373335  0.10520317  0.91019978  1
  Na  Na46  1  0.32910843  0.77148727  0.92459514  1
  Na  Na47  1  0.96850157  0.09533790  0.40933704  1
  Na  Na48  1  0.95327619  0.43438580  0.42497822  1
  Na  Na49  1  0.99570191  0.77534762  0.42716245  1
  Na  Na50  1  0.31287245  0.00761271  0.41544159  1
  Na  Na51  1  0.34553539  0.34851104  0.42877976  1
  Na  Na52  1  0.69960968  0.55183979  0.42664322  1
  Na  Na53  1  0.71057174  0.89479178  0.40716525  1
  Mg  Mg54  1  0.99612849  0.99732691  0.35122824  1
  Mg  Mg55  1  0.00841476  0.66830677  0.14565005  1
  Mg  Mg56  1  0.67260312  0.11321167  0.68500577  1
  Mg  Mg57  1  0.66801639  0.77560357  0.68904383  1
  Mg  Mg58  1  0.67251663  0.11312475  0.18554091  1
  Mg  Mg59  1  0.65371530  0.44083647  0.98255048  1
  Mg  Mg60  1  0.66368704  0.44334734  0.48333687  1
  Mg  Mg61  1  0.33014131  0.88851950  0.01784247  1
  Mg  Mg62  1  0.32500742  0.88851831  0.51925373  1
  Mg  Mg63  1  0.33857592  0.55925980  0.31424087  1
  Mg  Mg64  1  0.32932744  0.21936231  0.81454166  1
  Mg  Mg65  1  0.33882698  0.55861896  0.81229737  1
  Ta  Ta66  1  0.99107093  0.33303354  0.35466950  1
  Ta  Ta67  1  0.01061559  0.66789861  0.35263136  1
  Ta  Ta68  1  0.99698054  0.00035024  0.85585829  1
  Ta  Ta69  1  0.00795824  0.33480045  0.85601053  1
  Ta  Ta70  1  0.98982275  0.66422365  0.85688173  1
  Ta  Ta71  1  0.00268631  0.99864515  0.64263029  1
  Ta  Ta72  1  0.00115905  0.33232197  0.64391272  1
  Ta  Ta73  1  0.99923166  0.66993800  0.64373413  1
  Ta  Ta74  1  0.99654898  0.99980035  0.14883780  1
  Ta  Ta75  1  0.99347412  0.33223130  0.14559056  1
  Ta  Ta76  1  0.66864355  0.44461627  0.68562897  1
  Ta  Ta77  1  0.66768674  0.44284461  0.18479057  1
  Ta  Ta78  1  0.66456717  0.77569964  0.18927689  1
  Ta  Ta79  1  0.67177837  0.11050998  0.98079551  1
  Ta  Ta80  1  0.66897835  0.77886895  0.97668903  1
  Ta  Ta81  1  0.66689703  0.11335363  0.48296242  1
  Ta  Ta82  1  0.66997316  0.77795922  0.48052184  1
  Ta  Ta83  1  0.33220845  0.22167241  0.01708760  1
  Ta  Ta84  1  0.32809770  0.55486856  0.01981716  1
  Ta  Ta85  1  0.33516688  0.22196307  0.52359813  1
  Ta  Ta86  1  0.33761379  0.55661267  0.52127147  1
  Ta  Ta87  1  0.34002147  0.22152102  0.31234549  1
  Ta  Ta88  1  0.32630858  0.88934974  0.31292228  1
  Ta  Ta89  1  0.33120583  0.88852398  0.81280832  1
  Si  Si90  1  0.28961108  0.33336688  0.25031953  1
  Si  Si91  1  0.29035222  0.66369681  0.24540784  1
  Si  Si92  1  0.70412702  0.23386131  0.24940112  1
  Si  Si93  1  0.70004950  0.90299948  0.25266089  1
  Si  Si94  1  0.99696963  0.43088388  0.25133096  1
  Si  Si95  1  0.99759475  0.76328333  0.24678246  1
  Si  Si96  1  0.29456486  0.43060373  0.75004383  1
  Si  Si97  1  0.28788613  0.76226434  0.75133089  1
  Si  Si98  1  0.00290165  0.57095755  0.74899027  1
  Si  Si99  1  0.99953935  0.90175273  0.75020336  1
  Si  Si100  1  0.71026289  0.00060688  0.74825737  1
  Si  Si101  1  0.70852443  0.33202643  0.74956687  1
  Si  Si102  1  0.95764626  0.11064701  0.58713067  1
  Si  Si103  1  0.95810449  0.44352074  0.57928656  1
  Si  Si104  1  0.37467128  0.34675290  0.58063891  1
  Si  Si105  1  0.37734123  0.68193750  0.58827079  1
  Si  Si106  1  0.66555698  0.20767220  0.59061827  1
  Si  Si107  1  0.66339870  0.54122092  0.58082827  1
  Si  Si108  1  0.96185507  0.20789805  0.08727465  1
  Si  Si109  1  0.96001425  0.87473585  0.08339322  1
  Si  Si110  1  0.66776593  0.34698819  0.07713137  1
  Si  Si111  1  0.66682490  0.68081810  0.08355634  1
  Si  Si112  1  0.37507289  0.11066827  0.08577894  1
  Si  Si113  1  0.37625623  0.44492266  0.08394829  1
  Si  Si114  1  0.62973485  0.22313567  0.91420906  1
  Si  Si115  1  0.62400858  0.89087023  0.91971547  1
  Si  Si116  1  0.03943755  0.12634356  0.90951885  1
  Si  Si117  1  0.04265054  0.79145722  0.92125669  1
  Si  Si118  1  0.33210845  0.65194997  0.91132669  1
  Si  Si119  1  0.33995577  0.98678866  0.91896144  1
  Si  Si120  1  0.62566379  0.32025763  0.41838903  1
  Si  Si121  1  0.62894478  0.65249779  0.41352314  1
  Si  Si122  1  0.33775698  0.12499985  0.41645695  1
  Si  Si123  1  0.33995858  0.79317456  0.41912978  1
  Si  Si124  1  0.04599426  0.22186222  0.41625296  1
  Si  Si125  1  0.04342073  0.89216931  0.42037843  1
  P  P126  1  0.29212489  0.00017988  0.25287976  1
  P  P127  1  0.71449502  0.56989980  0.24712802  1
  P  P128  1  0.99899340  0.09630685  0.25463276  1
  P  P129  1  0.28558266  0.09690756  0.74887260  1
  P  P130  1  0.99406055  0.23609613  0.75181667  1
  P  P131  1  0.71198401  0.66779107  0.74986534  1
  P  P132  1  0.95954357  0.78051898  0.58693682  1
  P  P133  1  0.37596931  0.01335274  0.58670302  1
  P  P134  1  0.66876329  0.87425316  0.58610676  1
  P  P135  1  0.95690230  0.54038650  0.07880162  1
  P  P136  1  0.66720681  0.01530183  0.08746334  1
  P  P137  1  0.37509087  0.77647330  0.08350503  1
  P  P138  1  0.61844343  0.55317713  0.91476535  1
  P  P139  1  0.04522045  0.45913430  0.91201725  1
  P  P140  1  0.33587861  0.32084282  0.91265810  1
  P  P141  1  0.61927193  0.98579539  0.42012618  1
  P  P142  1  0.32950112  0.45928710  0.41366667  1
  P  P143  1  0.04044075  0.55497951  0.41246499  1
  O  O144  1  0.21187040  0.00775407  0.30943673  1
  O  O145  1  0.19871005  0.34533154  0.30850326  1
  O  O146  1  0.18892470  0.67095149  0.30641558  1
  O  O147  1  0.82959962  0.27479156  0.30494792  1
  O  O148  1  0.82851573  0.60038872  0.30425194  1
  O  O149  1  0.80292837  0.92796683  0.31258224  1
  O  O150  1  0.99900375  0.06640569  0.31191451  1
  O  O151  1  0.98009925  0.39542135  0.31430006  1
  O  O152  1  0.97086070  0.72067354  0.30556339  1
  O  O153  1  0.18934134  0.06360125  0.80689024  1
  O  O154  1  0.19966931  0.39156208  0.81058616  1
  O  O155  1  0.17257282  0.72006164  0.80776593  1
  O  O156  1  0.99241876  0.27192092  0.80778800  1
  O  O157  1  0.97145571  0.59889452  0.81059637  1
  O  O158  1  0.99911611  0.94011784  0.80865900  1
  O  O159  1  0.83178221  0.00519989  0.80602059  1
  O  O160  1  0.83621412  0.34156160  0.80819939  1
  O  O161  1  0.81156187  0.66502276  0.80649265  1
  O  O162  1  0.80530266  0.32633709  0.69008322  1
  O  O163  1  0.81940285  0.66776295  0.69452549  1
  O  O164  1  0.80632279  0.99184840  0.68859236  1
  O  O165  1  0.17256825  0.06109646  0.69394426  1
  O  O166  1  0.16903705  0.39249811  0.69499693  1
  O  O167  1  0.17837993  0.73355931  0.68862956  1
  O  O168  1  0.99687854  0.27149278  0.69625056  1
  O  O169  1  0.01300533  0.61211451  0.69199572  1
  O  O170  1  0.02365715  0.94334203  0.69137772  1
  O  O171  1  0.79981856  0.26852230  0.18778350  1
  O  O172  1  0.79035690  0.60508767  0.19057839  1
  O  O173  1  0.80485528  0.94344950  0.19336833  1
  O  O174  1  0.02032195  0.06330500  0.19925489  1
  O  O175  1  0.00126821  0.38955762  0.19788664  1
  O  O176  1  0.03916326  0.74057455  0.18706903  1
  O  O177  1  0.16647183  0.32233756  0.19187287  1
  O  O178  1  0.16820873  0.65464368  0.19062915  1
  O  O179  1  0.17254584  0.99260880  0.19620625  1
  O  O180  1  0.88411244  0.11946999  0.64840534  1
  O  O181  1  0.86506704  0.45437016  0.63897672  1
  O  O182  1  0.86574078  0.78260083  0.64095745  1
  O  O183  1  0.47704983  0.04349324  0.64282527  1
  O  O184  1  0.50267639  0.38083654  0.63930471  1
  O  O185  1  0.46891487  0.70274051  0.65102406  1
  O  O186  1  0.64166433  0.17557539  0.65224035  1
  O  O187  1  0.64170842  0.50237306  0.64180411  1
  O  O188  1  0.64441362  0.83871005  0.64184820  1
  O  O189  1  0.89266593  0.17690973  0.14978410  1
  O  O190  1  0.86597238  0.50298302  0.13723532  1
  O  O191  1  0.84051266  0.83103798  0.13761976  1
  O  O192  1  0.64747128  0.04589111  0.14058553  1
  O  O193  1  0.64333191  0.38316330  0.13425415  1
  O  O194  1  0.64237875  0.70804094  0.14668859  1
  O  O195  1  0.49295987  0.12873203  0.14443712  1
  O  O196  1  0.49751849  0.45767266  0.14571147  1
  O  O197  1  0.47690868  0.77383262  0.13921826  1
  O  O198  1  0.46411879  0.09754351  0.02780844  1
  O  O199  1  0.45386840  0.42635477  0.03079265  1
  O  O200  1  0.48326016  0.78074948  0.02633638  1
  O  O201  1  0.82522281  0.17090491  0.03360105  1
  O  O202  1  0.85305418  0.51017332  0.02316997  1
  O  O203  1  0.84710237  0.84758399  0.02122399  1
  O  O204  1  0.68539815  0.04923067  0.02802837  1
  O  O205  1  0.69385342  0.38009022  0.01617613  1
  O  O206  1  0.68229340  0.72543254  0.02945078  1
  O  O207  1  0.46731235  0.05037982  0.52857187  1
  O  O208  1  0.45181805  0.38207462  0.52073210  1
  O  O209  1  0.48670111  0.72644902  0.53262190  1
  O  O210  1  0.68314848  0.17160871  0.53245885  1
  O  O211  1  0.71055632  0.51721906  0.52297049  1
  O  O212  1  0.68934702  0.84479494  0.52814841  1
  O  O213  1  0.82836456  0.09945257  0.52836104  1
  O  O214  1  0.84028287  0.42899155  0.52135625  1
  O  O215  1  0.85873058  0.77706273  0.52730930  1
  O  O216  1  0.53798463  0.23564411  0.97273532  1
  O  O217  1  0.52033680  0.55809026  0.97084304  1
  O  O218  1  0.54329945  0.89780309  0.97973159  1
  O  O219  1  0.17743276  0.16430546  0.96373107  1
  O  O220  1  0.15377951  0.48979637  0.96935544  1
  O  O221  1  0.15480194  0.81365807  0.98083226  1
  O  O222  1  0.32394438  0.28593127  0.97095342  1
  O  O223  1  0.30520070  0.60742917  0.96743429  1
  O  O224  1  0.28712209  0.94643257  0.97681834  1
  O  O225  1  0.53602131  0.28599883  0.47997684  1
  O  O226  1  0.51966749  0.60842965  0.46944522  1
  O  O227  1  0.54437219  0.95140774  0.47738504  1
  O  O228  1  0.33023753  0.16561646  0.46951781  1
  O  O229  1  0.30463344  0.49031083  0.46916350  1
  O  O230  1  0.29660566  0.81576785  0.47867086  1
  O  O231  1  0.17720406  0.23520157  0.47207054  1
  O  O232  1  0.14614531  0.55942135  0.47021442  1
  O  O233  1  0.16370111  0.90141317  0.47581997  1
  O  O234  1  0.13071069  0.20988492  0.35593702  1
  O  O235  1  0.12541655  0.55000774  0.35575493  1
  O  O236  1  0.13935885  0.88184709  0.36028879  1
  O  O237  1  0.50154410  0.28042924  0.36171341  1
  O  O238  1  0.53415562  0.62931948  0.35181748  1
  O  O239  1  0.49873239  0.95398797  0.36486779  1
  O  O240  1  0.35376063  0.16059464  0.35309551  1
  O  O241  1  0.33836420  0.49113038  0.35631062  1
  O  O242  1  0.36543260  0.83460183  0.36041760  1
  O  O243  1  0.10529577  0.15672859  0.84644657  1
  O  O244  1  0.13373374  0.49279761  0.85561889  1
  O  O245  1  0.14318143  0.83493733  0.86371414  1
  O  O246  1  0.34554937  0.29019140  0.85661801  1
  O  O247  1  0.36019148  0.62978267  0.84911095  1
  O  O248  1  0.36012779  0.95516911  0.85817919  1
  O  O249  1  0.51230736  0.20785113  0.85556656  1
  O  O250  1  0.52522959  0.54940795  0.85673198  1
  O  O251  1  0.50432167  0.88169002  0.85984888  1
  O  O252  1  0.03144566  0.27986939  0.40840984  1
  O  O253  1  0.02174606  0.61023845  0.41217255  1
  O  O254  1  0.00907749  0.94449446  0.41262284  1
  O  O255  1  0.81734410  0.32581445  0.41374616  1
  O  O256  1  0.82133320  0.65755172  0.41471252  1
  O  O257  1  0.79976534  0.99628994  0.41062739  1
  O  O258  1  0.16913438  0.06328237  0.41728224  1
  O  O259  1  0.16407006  0.39765471  0.41562157  1
  O  O260  1  0.17010390  0.72940005  0.40562235  1
  O  O261  1  0.03090861  0.06345435  0.91367109  1
  O  O262  1  0.02763947  0.39770427  0.91304020  1
  O  O263  1  0.01330730  0.72723123  0.90767303  1
  O  O264  1  0.16776169  0.32510198  0.91365080  1
  O  O265  1  0.15205570  0.65620714  0.91431205  1
  O  O266  1  0.17704603  0.99861725  0.90777736  1
  O  O267  1  0.81885372  0.28238365  0.91163464  1
  O  O268  1  0.80056556  0.61008891  0.91607054  1
  O  O269  1  0.82356494  0.94413410  0.91105061  1
  O  O270  1  0.97328298  0.05135015  0.58659121  1
  O  O271  1  0.98494729  0.38857865  0.59135341  1
  O  O272  1  0.97061487  0.72305483  0.58506682  1
  O  O273  1  0.19463222  0.00873474  0.58677668  1
  O  O274  1  0.18159908  0.33589134  0.59286523  1
  O  O275  1  0.18213223  0.67596804  0.58443022  1
  O  O276  1  0.83454515  0.27286528  0.58586574  1
  O  O277  1  0.82916109  0.60628050  0.59205432  1
  O  O278  1  0.83780688  0.93495449  0.58686957  1
  O  O279  1  0.98315881  0.27310594  0.08393443  1
  O  O280  1  0.97283172  0.59879326  0.08486170  1
  O  O281  1  0.96819926  0.93752253  0.09137421  1
  O  O282  1  0.83609068  0.01037241  0.09092874  1
  O  O283  1  0.82684541  0.33546870  0.09043873  1
  O  O284  1  0.83367433  0.67401944  0.08295379  1
  O  O285  1  0.18450761  0.05273071  0.09230304  1
  O  O286  1  0.18269405  0.39025603  0.09586294  1
  O  O287  1  0.19886596  0.72354983  0.07924461  1
  O  O288  1  0.68620834  0.05550191  0.74837368  1
  O  O289  1  0.70416461  0.39267636  0.74424700  1
  O  O290  1  0.69616345  0.72045585  0.75173091  1
  O  O291  1  0.45932412  0.10049778  0.74983226  1
  O  O292  1  0.47912754  0.43150720  0.74584583  1
  O  O293  1  0.47300208  0.76807075  0.75251860  1
  O  O294  1  0.83035616  0.17822621  0.75531430  1
  O  O295  1  0.82459951  0.50820803  0.74392718  1
  O  O296  1  0.82825091  0.84201459  0.74893952  1
  O  O297  1  0.68653865  0.17210502  0.25478699  1
  O  O298  1  0.71295686  0.51088899  0.24522909  1
  O  O299  1  0.66546085  0.83729971  0.23909087  1
  O  O300  1  0.84629519  0.10507252  0.24928595  1
  O  O301  1  0.82365631  0.43635963  0.24351493  1
  O  O302  1  0.82192243  0.76801573  0.24722602  1
  O  O303  1  0.46860979  0.05191592  0.24327584  1
  O  O304  1  0.47765611  0.39142612  0.24190627  1
  O  O305  1  0.47612833  0.72503528  0.24693398  1
  O  O306  1  0.65117778  0.16748605  0.93002717  1
  O  O307  1  0.65459092  0.50382415  0.92168241  1
  O  O308  1  0.64390424  0.83262685  0.91925336  1
  O  O309  1  0.85115487  0.11651467  0.92754799  1
  O  O310  1  0.86492009  0.45108204  0.91588205  1
  O  O311  1  0.85369461  0.78756852  0.92176847  1
  O  O312  1  0.50643911  0.05152506  0.92227019  1
  O  O313  1  0.49374889  0.38032360  0.91584081  1
  O  O314  1  0.48711214  0.71734844  0.92762189  1
  O  O315  1  0.62504477  0.04528544  0.42170125  1
  O  O316  1  0.64382496  0.38235687  0.41317942  1
  O  O317  1  0.66307749  0.71709875  0.43021350  1
  O  O318  1  0.51006776  0.11906325  0.42363199  1
  O  O319  1  0.48894710  0.45339266  0.41954132  1
  O  O320  1  0.51407820  0.78766516  0.42248653  1
  O  O321  1  0.86053404  0.16366846  0.42686473  1
  O  O322  1  0.85875261  0.50321509  0.41698309  1
  O  O323  1  0.85442868  0.83114481  0.42334467  1
  O  O324  1  0.34966212  0.16608634  0.06934882  1
  O  O325  1  0.36379464  0.50325479  0.07563738  1
  O  O326  1  0.36860814  0.83191653  0.08956991  1
  O  O327  1  0.15513115  0.21970794  0.07119193  1
  O  O328  1  0.13769537  0.54459630  0.07659827  1
  O  O329  1  0.14632219  0.88141295  0.08443464  1
  O  O330  1  0.49197867  0.28329929  0.07960939  1
  O  O331  1  0.49319825  0.61744421  0.07213781  1
  O  O332  1  0.51413143  0.95455095  0.08224363  1
  O  O333  1  0.36183158  0.28363975  0.58233704  1
  O  O334  1  0.33942072  0.61695104  0.57012948  1
  O  O335  1  0.35998477  0.95460211  0.58221606  1
  O  O336  1  0.50274690  0.21765698  0.57721371  1
  O  O337  1  0.49047633  0.54735862  0.57605885  1
  O  O338  1  0.51664436  0.88442114  0.57938664  1
  O  O339  1  0.14792263  0.16506690  0.57256994  1
  O  O340  1  0.14310455  0.50283505  0.57426038  1
  O  O341  1  0.14518193  0.82915718  0.58269635  1
  O  O342  1  0.30151132  0.27515816  0.25728136  1
  O  O343  1  0.32501178  0.61131298  0.25225187  1
  O  O344  1  0.30197917  0.94392186  0.25483399  1
  O  O345  1  0.51539926  0.22988113  0.25225304  1
  O  O346  1  0.53202137  0.55805549  0.25580159  1
  O  O347  1  0.50507029  0.89499710  0.25286702  1
  O  O348  1  0.17059754  0.15708417  0.25010675  1
  O  O349  1  0.16552168  0.49258604  0.24913184  1
  O  O350  1  0.16480211  0.82606041  0.26181397  1
  O  O351  1  0.29591784  0.15517091  0.74569530  1
  O  O352  1  0.31941836  0.49344217  0.75121925  1
  O  O353  1  0.30495788  0.82568975  0.75821354  1
  O  O354  1  0.15767100  0.23277981  0.75019671  1
  O  O355  1  0.16810498  0.56361129  0.74815694  1
  O  O356  1  0.18265680  0.90182991  0.75397698  1
  O  O357  1  0.51990099  0.27733652  0.75373028  1
  O  O358  1  0.53967815  0.61189434  0.74695567  1
  O  O359  1  0.52557355  0.94062803  0.75476489  1
