# generated using pymatgen
data_Na8Y2Mg2Si3(SO8)3
_symmetry_space_group_name_H-M   'P 1'
_cell_length_a   9.33073700
_cell_length_b   9.36777936
_cell_length_c   22.64195365
_cell_angle_alpha   89.61884121
_cell_angle_beta   89.56570612
_cell_angle_gamma   119.89696572
_symmetry_Int_Tables_number   1
_chemical_formula_structural   Na8Y2Mg2Si3(SO8)3
_chemical_formula_sum   'Na24 Y6 Mg6 Si9 S9 O72'
_cell_volume   1715.54922095
_cell_formula_units_Z   3
loop_
 _symmetry_equiv_pos_site_id
 _symmetry_equiv_pos_as_xyz
  1  'x, y, z'
loop_
 _atom_site_type_symbol
 _atom_site_label
 _atom_site_symmetry_multiplicity
 _atom_site_fract_x
 _atom_site_fract_y
 _atom_site_fract_z
 _atom_site_occupancy
  Na  Na0  1  0.64380399  0.02506614  0.26395103  1
  Na  Na1  1  0.34060116  0.33531639  0.25594413  1
  Na  Na2  1  -0.00121175  0.62313858  0.23990616  1
  Na  Na3  1  0.62300894  0.62358214  0.72605435  1
  Na  Na4  1  0.99325927  0.34196586  0.72998114  1
  Na  Na5  1  0.39199968  0.02902902  0.75093515  1
  Na  Na6  1  0.30879822  0.35610120  0.59633470  1
  Na  Na7  1  0.00864678  0.66905513  0.58626794  1
  Na  Na8  1  0.66920773  0.95578910  0.58030153  1
  Na  Na9  1  0.28477641  0.94139861  0.08178715  1
  Na  Na10  1  0.67770924  0.69092037  0.08058832  1
  Na  Na11  1  0.02755448  0.35447905  0.10054883  1
  Na  Na12  1  0.98540742  0.69036928  0.92047906  1
  Na  Na13  1  0.67906721  0.02335755  0.89443829  1
  Na  Na14  1  0.32129405  0.27481053  0.89880524  1
  Na  Na15  1  0.95379890  0.27451907  0.41730393  1
  Na  Na16  1  0.33972932  0.02700994  0.40442951  1
  Na  Na17  1  0.69689512  0.69150865  0.43573175  1
  Na  Na18  1  0.97220158  0.00204832  0.50276365  1
  Na  Na19  1  0.01062654  0.98210736  0.99519910  1
  Na  Na20  1  0.64682947  0.31636055  0.82038216  1
  Na  Na21  1  0.66737174  0.30700173  0.32868741  1
  Na  Na22  1  0.30518037  0.66880411  0.16983831  1
  Na  Na23  1  0.34183351  0.65459264  0.66076264  1
  Y  Y24  1  0.99555806  0.00625359  0.64982281  1
  Y  Y25  1  0.00721332  0.00064315  0.15507993  1
  Y  Y26  1  0.66541261  0.33146333  0.98487994  1
  Y  Y27  1  0.67239195  0.32999936  0.48778940  1
  Y  Y28  1  0.33346532  0.67489163  0.31742871  1
  Y  Y29  1  0.34039370  0.67465571  0.81380882  1
  Mg  Mg30  1  0.00132184  0.01175893  0.34731563  1
  Mg  Mg31  1  0.01425177  0.01239177  0.84141128  1
  Mg  Mg32  1  0.67434248  0.33708872  0.68165882  1
  Mg  Mg33  1  0.68018618  0.33495481  0.18951460  1
  Mg  Mg34  1  0.31003280  0.67537912  0.01708046  1
  Mg  Mg35  1  0.35385394  0.67014948  0.52233310  1
  Si  Si36  1  0.30884920  0.00899509  0.25071096  1
  Si  Si37  1  0.99886794  0.30233881  0.24962129  1
  Si  Si38  1  0.31030176  0.30264143  0.74955045  1
  Si  Si39  1  0.70550252  0.00849668  0.75343562  1
  Si  Si40  1  0.98122692  0.34607443  0.58248518  1
  Si  Si41  1  0.66832068  0.63222801  0.58242659  1
  Si  Si42  1  0.96504878  0.63226002  0.08332498  1
  Si  Si43  1  0.32450942  0.96878295  0.91953933  1
  Si  Si44  1  0.63929488  0.96678699  0.41666487  1
  S  S45  1  0.70180174  0.69432200  0.25096355  1
  S  S46  1  0.99162735  0.69883369  0.75460529  1
  S  S47  1  0.36928768  0.02593458  0.58477126  1
  S  S48  1  0.66032510  0.02533503  0.08470060  1
  S  S49  1  0.36644354  0.34275266  0.08457407  1
  S  S50  1  0.62780855  0.66913397  0.92322712  1
  S  S51  1  0.03932421  0.36509592  0.92197051  1
  S  S52  1  0.32857323  0.36229383  0.41727583  1
  S  S53  1  0.03145450  0.67298534  0.41752654  1
  O  O54  1  0.20806700  0.02382582  0.30786788  1
  O  O55  1  0.80643146  0.78477485  0.30111323  1
  O  O56  1  0.97995718  0.18301180  0.30499380  1
  O  O57  1  0.21876515  0.19040985  0.80839570  1
  O  O58  1  0.98463269  0.78807425  0.80757877  1
  O  O59  1  0.81243298  0.01589937  0.81228066  1
  O  O60  1  0.78361228  0.96962711  0.69511640  1
  O  O61  1  0.19816917  0.21812687  0.69108170  1
  O  O62  1  0.01970100  0.79892282  0.70023584  1
  O  O63  1  0.77137337  0.79103137  0.19462053  1
  O  O64  1  0.01754776  0.22109458  0.18731118  1
  O  O65  1  0.20176781  0.97848192  0.18948795  1
  O  O66  1  0.88287641  0.36396707  0.63963242  1
  O  O67  1  0.47194303  0.11477475  0.63579537  1
  O  O68  1  0.65234360  0.51378018  0.63802896  1
  O  O69  1  0.85953178  0.51302131  0.13896716  1
  O  O70  1  0.64539426  0.11219108  0.13635469  1
  O  O71  1  0.46095189  0.35089053  0.13753540  1
  O  O72  1  0.44928951  0.32361813  0.03084552  1
  O  O73  1  0.86434001  0.55285490  0.02145287  1
  O  O74  1  0.67650530  0.12174640  0.02971959  1
  O  O75  1  0.43986216  0.12455013  0.52916107  1
  O  O76  1  0.67997781  0.54839393  0.52001252  1
  O  O77  1  0.87093207  0.31406191  0.52206759  1
  O  O78  1  0.53686055  0.67177121  0.97700057  1
  O  O79  1  0.13539052  0.45425215  0.97471342  1
  O  O80  1  0.30838936  0.86422122  0.98011718  1
  O  O81  1  0.53659457  0.84692425  0.47255887  1
  O  O82  1  0.32024318  0.45552807  0.46801532  1
  O  O83  1  0.12878316  0.68070470  0.46944115  1
  O  O84  1  0.11122073  0.65463741  0.36253634  1
  O  O85  1  0.53757770  0.88582334  0.35521182  1
  O  O86  1  0.34356548  0.45393582  0.36101195  1
  O  O87  1  0.11976408  0.46241998  0.86789323  1
  O  O88  1  0.35583580  0.87806841  0.86358897  1
  O  O89  1  0.53083614  0.65348178  0.86975272  1
  O  O90  1  0.01919454  0.82520763  0.41299553  1
  O  O91  1  0.82459667  0.98310049  0.41391391  1
  O  O92  1  0.17712899  0.19612653  0.41617002  1
  O  O93  1  0.02320986  0.19970914  0.92049571  1
  O  O94  1  0.15393863  0.98052814  0.91319574  1
  O  O95  1  0.79308456  0.81948602  0.92062538  1
  O  O96  1  0.00643366  0.18301926  0.58361093  1
  O  O97  1  0.19807810  -0.00302911  0.58954212  1
  O  O98  1  0.83986584  0.81461905  0.58294525  1
  O  O99  1  0.98468694  0.81963928  0.08450943  1
  O  O100  1  0.81120408  0.00829734  0.08689363  1
  O  O101  1  0.19567061  0.19579402  0.08496326  1
  O  O102  1  0.69741640  0.17917799  0.74725652  1
  O  O103  1  0.49489925  0.32284104  0.74500999  1
  O  O104  1  0.83748416  0.53849772  0.75146172  1
  O  O105  1  0.69117142  0.53139654  0.24673859  1
  O  O106  1  0.83525169  0.32461375  0.24814383  1
  O  O107  1  0.48955080  0.17926165  0.24495858  1
  O  O108  1  0.64989696  0.52060887  0.92300948  1
  O  O109  1  0.86772273  0.34333739  0.92359992  1
  O  O110  1  0.49139195  0.15842469  0.91995998  1
  O  O111  1  0.65389749  0.15237809  0.41699702  1
  O  O112  1  0.47616391  0.33933159  0.41931401  1
  O  O113  1  0.86104791  0.52565741  0.41815504  1
  O  O114  1  0.35546899  0.49558951  0.07904930  1
  O  O115  1  0.14929846  0.64568325  0.08311929  1
  O  O116  1  0.51299157  0.85659419  0.08118428  1
  O  O117  1  0.36097236  0.86397244  0.58019517  1
  O  O118  1  0.50603083  0.65722619  0.58292475  1
  O  O119  1  0.16205855  0.51641430  0.57719496  1
  O  O120  1  0.33275187  0.84495097  0.25180826  1
  O  O121  1  0.53051065  0.66705172  0.25563737  1
  O  O122  1  0.16785565  0.48681530  0.25174446  1
  O  O123  1  0.32557269  0.48720093  0.75264182  1
  O  O124  1  0.13381485  0.66753664  0.75838809  1
  O  O125  1  0.51283810  0.85078842  0.75322931  1
