# generated using pymatgen
data_Na2ZnSi2Ge3(SO6)4
_symmetry_space_group_name_H-M   'P 1'
_cell_length_a   8.51314273
_cell_length_b   8.51457848
_cell_length_c   22.14574698
_cell_angle_alpha   88.87951170
_cell_angle_beta   90.07546211
_cell_angle_gamma   119.67191428
_symmetry_Int_Tables_number   1
_chemical_formula_structural   Na2ZnSi2Ge3(SO6)4
_chemical_formula_sum   'Na6 Zn3 Si6 Ge9 S12 O72'
_cell_volume   1394.43142809
_cell_formula_units_Z   3
loop_
 _symmetry_equiv_pos_site_id
 _symmetry_equiv_pos_as_xyz
  1  'x, y, z'
loop_
 _atom_site_type_symbol
 _atom_site_label
 _atom_site_symmetry_multiplicity
 _atom_site_fract_x
 _atom_site_fract_y
 _atom_site_fract_z
 _atom_site_occupancy
  Na  Na0  1  0.98771698  0.99018714  0.50427947  1
  Na  Na1  1  0.01648489  0.01547339  0.00037795  1
  Na  Na2  1  0.66723768  0.32277148  0.83437953  1
  Na  Na3  1  0.66327739  0.32186474  0.33499294  1
  Na  Na4  1  0.33503976  0.66184669  0.16551406  1
  Na  Na5  1  0.35067931  0.67390073  0.66987026  1
  Zn  Zn6  1  0.96889501  0.97597268  0.64690494  1
  Zn  Zn7  1  0.01612258  0.01544401  0.14198751  1
  Zn  Zn8  1  0.34890454  0.68506958  0.31978380  1
  Si  Si9  1  0.70470942  0.99408555  0.75059612  1
  Si  Si10  1  0.66866697  0.61224234  0.58214539  1
  Si  Si11  1  0.38439000  0.34347761  0.07899565  1
  Si  Si12  1  0.04312696  0.38253500  0.91624983  1
  Si  Si13  1  0.32367321  0.94887283  0.91747613  1
  Si  Si14  1  0.62717784  0.96721904  0.41627726  1
  Ge  Ge15  1  0.98722655  0.99615959  0.35237208  1
  Ge  Ge16  1  0.00400981  0.02248621  0.85594227  1
  Ge  Ge17  1  0.66359315  0.33280167  0.69003059  1
  Ge  Ge18  1  0.65973423  0.33906808  0.18075843  1
  Ge  Ge19  1  0.65180227  0.31491802  0.97408847  1
  Ge  Ge20  1  0.66971807  0.33111790  0.48294972  1
  Ge  Ge21  1  0.31660452  0.64688870  0.01518209  1
  Ge  Ge22  1  0.36069727  0.67376017  0.52199619  1
  Ge  Ge23  1  0.33088396  0.68415911  0.81715574  1
  S  S24  1  0.29075952  0.00353250  0.25002233  1
  S  S25  1  0.71343815  0.70659728  0.24818633  1
  S  S26  1  0.99573298  0.29436019  0.24859008  1
  S  S27  1  0.28990397  0.29281380  0.74942341  1
  S  S28  1  0.00036157  0.70866457  0.75050101  1
  S  S29  1  0.96313150  0.34173270  0.58136857  1
  S  S30  1  0.37780209  0.04179747  0.58298303  1
  S  S31  1  0.95243852  0.61606661  0.08210385  1
  S  S32  1  0.66099715  0.04494389  0.08345010  1
  S  S33  1  0.62161361  0.66795283  0.91638835  1
  S  S34  1  0.33148990  0.37118083  0.41642734  1
  S  S35  1  0.04315947  0.66699882  0.41667152  1
  O  O36  1  0.21015339  0.03686648  0.30728452  1
  O  O37  1  0.82388263  0.78402885  0.30577547  1
  O  O38  1  0.95948874  0.17745568  0.30634174  1
  O  O39  1  0.21507223  0.17640893  0.80594013  1
  O  O40  1  0.96979016  0.78747680  0.80493197  1
  O  O41  1  0.83545438  0.03576379  0.81038477  1
  O  O42  1  0.77025871  0.95566318  0.68900840  1
  O  O43  1  0.18884156  0.21455872  0.69497934  1
  O  O44  1  0.03831046  0.81453747  0.69469644  1
  O  O45  1  0.79933279  0.81834308  0.19486679  1
  O  O46  1  0.02208483  0.21212249  0.19569083  1
  O  O47  1  0.18414323  0.98290796  0.19670536  1
  O  O48  1  0.88157382  0.37126912  0.63598555  1
  O  O49  1  0.49426371  0.11439619  0.63685938  1
  O  O50  1  0.62816020  0.48221331  0.64324234  1
  O  O51  1  0.87908022  0.50027583  0.14080611  1
  O  O52  1  0.63137590  0.12811773  0.14035542  1
  O  O53  1  0.50406921  0.38377510  0.14302667  1
  O  O54  1  0.48939697  0.31464068  0.02308850  1
  O  O55  1  0.84497529  0.52942604  0.02905453  1
  O  O56  1  0.70080834  0.16188412  0.02836873  1
  O  O57  1  0.46217191  0.14927176  0.52611330  1
  O  O58  1  0.68848362  0.51558067  0.52147299  1
  O  O59  1  0.84741246  0.30373163  0.52621913  1
  O  O60  1  0.54454829  0.70215770  0.97181063  1
  O  O61  1  0.16560543  0.45298273  0.97660864  1
  O  O62  1  0.29555566  0.82635876  0.97936140  1
  O  O63  1  0.54099201  0.83392773  0.47656394  1
  O  O64  1  0.29121567  0.44707321  0.47118822  1
  O  O65  1  0.15391376  0.69711139  0.47173979  1
  O  O66  1  0.11356225  0.63211993  0.36183861  1
  O  O67  1  0.51530070  0.90306162  0.35617366  1
  O  O68  1  0.36088988  0.47703773  0.36098662  1
  O  O69  1  0.13718513  0.50577805  0.85596248  1
  O  O70  1  0.37571554  0.87533195  0.85865545  1
  O  O71  1  0.50809448  0.63200462  0.86224636  1
  O  O72  1  0.02813436  0.83719694  0.41001831  1
  O  O73  1  0.83041183  0.98381697  0.40869780  1
  O  O74  1  0.17010235  0.18478655  0.41098773  1
  O  O75  1  0.01900132  0.18138526  0.91058840  1
  O  O76  1  0.14068778  0.96294371  0.90617450  1
  O  O77  1  0.80273264  0.82890467  0.91024312  1
  O  O78  1  0.99485397  0.18992382  0.58612464  1
  O  O79  1  0.20405553  0.03194764  0.58847074  1
  O  O80  1  0.84265105  0.80660475  0.58175143  1
  O  O81  1  0.96172155  0.79050946  0.08900276  1
  O  O82  1  0.81917954  0.02209907  0.09009429  1
  O  O83  1  0.18995793  0.16720657  0.08279325  1
  O  O84  1  0.68323816  0.18105805  0.74219468  1
  O  O85  1  0.47708826  0.31216032  0.74696173  1
  O  O86  1  0.83318159  0.52399538  0.74581536  1
  O  O87  1  0.70458181  0.52361899  0.24563245  1
  O  O88  1  0.82324701  0.30599856  0.24380913  1
  O  O89  1  0.47685971  0.17176682  0.24586665  1
  O  O90  1  0.64263607  0.50577115  0.92264320  1
  O  O91  1  0.84583842  0.36929783  0.92640240  1
  O  O92  1  0.50193086  0.14955166  0.92281894  1
  O  O93  1  0.65617102  0.17028020  0.42956054  1
  O  O94  1  0.49548752  0.35311851  0.42443107  1
  O  O95  1  0.85717087  0.50920743  0.42416457  1
  O  O96  1  0.37480192  0.53399765  0.07383302  1
  O  O97  1  0.13614125  0.63474738  0.07998518  1
  O  O98  1  0.49355699  0.87168665  0.07925047  1
  O  O99  1  0.35587030  0.85496821  0.57632998  1
  O  O100  1  0.47492614  0.61841467  0.57813778  1
  O  O101  1  0.13778418  0.51790328  0.57225224  1
  O  O102  1  0.30899673  0.84163389  0.25567292  1
  O  O103  1  0.52995611  0.67864197  0.25516777  1
  O  O104  1  0.15210326  0.47332970  0.25751221  1
  O  O105  1  0.30955579  0.47324985  0.75785887  1
  O  O106  1  0.16037514  0.68008950  0.75653910  1
  O  O107  1  0.50264664  0.81356219  0.76145627  1
