# generated using pymatgen
data_Na3LaZr3(PO4)6
_symmetry_space_group_name_H-M   'P 1'
_cell_length_a   9.12523584
_cell_length_b   9.14421055
_cell_length_c   23.43686356
_cell_angle_alpha   89.80322069
_cell_angle_beta   90.17910612
_cell_angle_gamma   120.37381065
_symmetry_Int_Tables_number   1
_chemical_formula_structural   Na3LaZr3(PO4)6
_chemical_formula_sum   'Na9 La3 Zr9 P18 O72'
_cell_volume   1687.20974062
_cell_formula_units_Z   3
loop_
 _symmetry_equiv_pos_site_id
 _symmetry_equiv_pos_as_xyz
  1  'x, y, z'
loop_
 _atom_site_type_symbol
 _atom_site_label
 _atom_site_symmetry_multiplicity
 _atom_site_fract_x
 _atom_site_fract_y
 _atom_site_fract_z
 _atom_site_occupancy
  Na  Na0  1  0.35970564  0.35309989  0.24621443  1
  Na  Na1  1  0.63321495  0.62882397  0.74981976  1
  Na  Na2  1  0.96983608  0.29707525  0.41601279  1
  Na  Na3  1  0.00004119  0.98713791  0.50298977  1
  Na  Na4  1  0.99978809  0.99997991  0.00345132  1
  Na  Na5  1  0.66653992  0.31926156  0.83593221  1
  Na  Na6  1  0.66839144  0.33379693  0.32868560  1
  Na  Na7  1  0.33233407  0.68009888  0.16495754  1
  Na  Na8  1  0.31739256  0.66626821  0.66594369  1
  La  La9  1  0.99470752  0.98224487  0.35500346  1
  La  La10  1  0.66810260  0.32210688  0.68473696  1
  La  La11  1  0.67938218  0.33377142  0.17499399  1
  Zr  Zr12  1  0.00397087  0.00314415  0.85740810  1
  Zr  Zr13  1  0.00349189  0.00489622  0.64696387  1
  Zr  Zr14  1  0.99611067  0.99674060  0.14665524  1
  Zr  Zr15  1  0.66588108  0.33464286  0.98246451  1
  Zr  Zr16  1  0.65897199  0.33428509  0.48373906  1
  Zr  Zr17  1  0.33426813  0.66451998  0.01455900  1
  Zr  Zr18  1  0.33937204  0.66879184  0.52050267  1
  Zr  Zr19  1  0.33707650  0.67694248  0.31365208  1
  Zr  Zr20  1  0.32601678  0.66702126  0.81569218  1
  P  P21  1  0.29309083  0.99374461  0.24802223  1
  P  P22  1  0.69096105  0.70126021  0.24789451  1
  P  P23  1  0.00940273  0.30139196  0.25336552  1
  P  P24  1  0.28213734  0.29479179  0.75307086  1
  P  P25  1  0.00994531  0.72463658  0.75276251  1
  P  P26  1  0.71128147  0.98907044  0.75383595  1
  P  P27  1  0.96762384  0.32929636  0.57984877  1
  P  P28  1  0.35958272  0.02983825  0.58188466  1
  P  P29  1  0.67132709  0.63665000  0.58538621  1
  P  P30  1  0.97561703  0.64409508  0.07917085  1
  P  P31  1  0.66816697  0.02769014  0.07956925  1
  P  P32  1  0.36068470  0.33157391  0.08255233  1
  P  P33  1  0.62354258  0.66176110  0.91452189  1
  P  P34  1  0.03620618  0.37450460  0.91665468  1
  P  P35  1  0.33812778  0.96114197  0.91649893  1
  P  P36  1  0.61693865  0.96768388  0.41967765  1
  P  P37  1  0.34650715  0.38922980  0.41728297  1
  P  P38  1  0.03984057  0.65153337  0.42065408  1
  O  O39  1  0.21810789  0.02020407  0.30227014  1
  O  O40  1  0.78734173  0.77360862  0.30310326  1
  O  O41  1  0.99577645  0.21341870  0.31051778  1
  O  O42  1  0.18836785  0.18891582  0.80561943  1
  O  O43  1  0.00135201  0.81997113  0.80503098  1
  O  O44  1  0.81594646  -0.00417262  0.80604249  1
  O  O45  1  0.79909368  0.97457697  0.69871326  1
  O  O46  1  0.18230469  0.20500434  0.69783011  1
  O  O47  1  0.02533010  0.82624656  0.69749379  1
  O  O48  1  0.79266643  0.81172767  0.19540582  1
  O  O49  1  0.02341411  0.19657596  0.20223508  1
  O  O50  1  0.17856045  0.97670203  0.19553566  1
  O  O51  1  0.90034720  0.36552253  0.63387306  1
  O  O52  1  0.45872008  0.09304379  0.63712441  1
  O  O53  1  0.63827114  0.54362250  0.64223603  1
  O  O54  1  0.92377530  0.55088235  0.13575461  1
  O  O55  1  0.62594521  0.07948176  0.13581066  1
  O  O56  1  0.44995357  0.36708310  0.14014600  1
  O  O57  1  0.46862835  0.31039247  0.03459953  1
  O  O58  1  0.84724114  0.53802142  0.03064680  1
  O  O59  1  0.69176486  0.15574550  0.03094386  1
  O  O60  1  0.46023876  0.15191921  0.53143649  1
  O  O61  1  0.68994385  0.53222225  0.53569721  1
  O  O62  1  0.85081930  0.30683772  0.52746752  1
  O  O63  1  0.53317811  0.68622794  0.96504162  1
  O  O64  1  0.14821636  0.46041342  0.96818598  1
  O  O65  1  0.31274034  0.84858448  0.96768138  1
  O  O66  1  0.52132528  0.86098032  0.47135259  1
  O  O67  1  0.34092748  0.49161004  0.46766292  1
  O  O68  1  0.14500273  0.65412477  0.47151569  1
  O  O69  1  0.12907500  0.64102538  0.36474719  1
  O  O70  1  0.51784084  0.87550819  0.36406592  1
  O  O71  1  0.36064677  0.48671496  0.36041040  1
  O  O72  1  0.12547290  0.48654671  0.86285006  1
  O  O73  1  0.36021805  0.87360358  0.86242660  1
  O  O74  1  0.51683426  0.63926761  0.85918162  1
  O  O75  1  0.01622776  0.80425308  0.42381675  1
  O  O76  1  0.79896438  -0.00043568  0.42086415  1
  O  O77  1  0.18193002  0.21684077  0.41905260  1
  O  O78  1  0.01691238  0.19678845  0.91017038  1
  O  O79  1  0.17982585  0.98122463  0.91014380  1
  O  O80  1  0.80381659  0.82051781  0.90959473  1
  O  O81  1  0.97688183  0.16436687  0.58655421  1
  O  O82  1  0.18536658  0.02097260  0.58613674  1
  O  O83  1  0.83628366  0.81302023  0.58789983  1
  O  O84  1  0.98300586  0.81765457  0.08394165  1
  O  O85  1  0.83483461  0.02059299  0.08517321  1
  O  O86  1  0.18349015  0.16671935  0.08598325  1
  O  O87  1  0.68871194  0.14313121  0.75423347  1
  O  O88  1  0.46470478  0.32600638  0.75250314  1
  O  O89  1  0.84475277  0.55153915  0.75184923  1
  O  O90  1  0.64962118  0.51626227  0.24325233  1
  O  O91  1  0.86162683  0.33322498  0.24752496  1
  O  O92  1  0.46992598  0.15091709  0.24236188  1
  O  O93  1  0.63959187  0.50183489  0.92302444  1
  O  O94  1  0.85896210  0.35666434  0.92298814  1
  O  O95  1  0.49778416  0.13955852  0.92319403  1
  O  O96  1  0.63012493  0.14481279  0.42258449  1
  O  O97  1  0.50675989  0.37064632  0.42316026  1
  O  O98  1  0.86338717  0.48256986  0.42298608  1
  O  O99  1  0.33536256  0.48235420  0.06784570  1
  O  O100  1  0.15377225  0.67302903  0.06575658  1
  O  O101  1  0.52056745  0.84859199  0.06579391  1
  O  O102  1  0.32892965  0.84987895  0.57161521  1
  O  O103  1  0.52043331  0.66441923  0.57347894  1
  O  O104  1  0.15071925  0.47866189  0.57115944  1
  O  O105  1  0.30182457  0.82794592  0.25314027  1
  O  O106  1  0.51691455  0.69752816  0.25134104  1
  O  O107  1  0.18392173  0.47516807  0.25389817  1
  O  O108  1  0.29747967  0.47406341  0.75635088  1
  O  O109  1  0.16971879  0.70363107  0.75680023  1
  O  O110  1  0.53392705  0.81970616  0.75680483  1
