# generated using pymatgen
data_Na2HgS2
_symmetry_space_group_name_H-M   'P 1'
_cell_length_a   7.30193054
_cell_length_b   7.46616374
_cell_length_c   18.11506440
_cell_angle_alpha   90.00000000
_cell_angle_beta   90.00000000
_cell_angle_gamma   90.00000000
_symmetry_Int_Tables_number   1
_chemical_formula_structural   Na2HgS2
_chemical_formula_sum   'Na16 Hg8 S16'
_cell_volume   987.58637550
_cell_formula_units_Z   8
loop_
 _symmetry_equiv_pos_site_id
 _symmetry_equiv_pos_as_xyz
  1  'x, y, z'
loop_
 _atom_site_type_symbol
 _atom_site_label
 _atom_site_symmetry_multiplicity
 _atom_site_fract_x
 _atom_site_fract_y
 _atom_site_fract_z
 _atom_site_occupancy
  Na  Na0  1  0.50019084  0.72838233  0.55527139  1
  Na  Na1  1  0.00019084  0.27161767  0.94472861  1
  Na  Na2  1  0.99980916  0.22838233  0.44472861  1
  Na  Na3  1  0.49980916  0.77161767  0.05527139  1
  Na  Na4  1  0.49980916  0.27161767  0.44472861  1
  Na  Na5  1  0.99980916  0.72838233  0.05527139  1
  Na  Na6  1  0.00019084  0.77161767  0.55527139  1
  Na  Na7  1  0.50019084  0.22838233  0.94472861  1
  Na  Na8  1  0.82932901  0.54402994  0.69633407  1
  Na  Na9  1  0.32932901  0.45597006  0.80366593  1
  Na  Na10  1  0.67067099  0.04402994  0.30366593  1
  Na  Na11  1  0.17067099  0.95597006  0.19633407  1
  Na  Na12  1  0.17067099  0.45597006  0.30366593  1
  Na  Na13  1  0.67067099  0.54402994  0.19633407  1
  Na  Na14  1  0.32932901  0.95597006  0.69633407  1
  Na  Na15  1  0.82932901  0.04402994  0.80366593  1
  Hg  Hg16  1  0.27362377  0.34861757  0.11130280  1
  Hg  Hg17  1  0.77362377  0.65138243  0.38869720  1
  Hg  Hg18  1  0.22637623  0.84861757  0.88869720  1
  Hg  Hg19  1  0.72637623  0.65138243  0.88869720  1
  Hg  Hg20  1  0.22637623  0.34861757  0.61130280  1
  Hg  Hg21  1  0.77362377  0.15138243  0.11130280  1
  Hg  Hg22  1  0.27362377  0.84861757  0.38869720  1
  Hg  Hg23  1  0.72637623  0.15138243  0.61130280  1
  S  S24  1  0.69841743  0.88611392  0.67873294  1
  S  S25  1  0.30158257  0.61388608  0.17873294  1
  S  S26  1  0.80158257  0.38611392  0.32126706  1
  S  S27  1  0.80158257  0.88611392  0.17873294  1
  S  S28  1  0.19841743  0.11388608  0.82126706  1
  S  S29  1  0.30158257  0.11388608  0.32126706  1
  S  S30  1  0.69841743  0.38611392  0.82126706  1
  S  S31  1  0.19841743  0.61388608  0.67873294  1
  S  S32  1  0.25641242  0.07576009  0.54903285  1
  S  S33  1  0.75641242  0.92423991  0.95096715  1
  S  S34  1  0.24358758  0.57576009  0.45096715  1
  S  S35  1  0.74358758  0.42423991  0.04903285  1
  S  S36  1  0.74358758  0.92423991  0.45096715  1
  S  S37  1  0.24358758  0.07576009  0.04903285  1
  S  S38  1  0.75641242  0.42423991  0.54903285  1
  S  S39  1  0.25641242  0.57576009  0.95096715  1
