# generated using pymatgen
data_Na9Ta4Zn2Si6(PO12)3
_symmetry_space_group_name_H-M   'P 1'
_cell_length_a   9.05765226
_cell_length_b   27.09004342
_cell_length_c   22.32958641
_cell_angle_alpha   89.85702185
_cell_angle_beta   90.10479428
_cell_angle_gamma   119.96507844
_symmetry_Int_Tables_number   1
_chemical_formula_structural   Na9Ta4Zn2Si6(PO12)3
_chemical_formula_sum   'Na54 Ta24 Zn12 Si36 P18 O216'
_cell_volume   4746.65778698
_cell_formula_units_Z   6
loop_
 _symmetry_equiv_pos_site_id
 _symmetry_equiv_pos_as_xyz
  1  'x, y, z'
loop_
 _atom_site_type_symbol
 _atom_site_label
 _atom_site_symmetry_multiplicity
 _atom_site_fract_x
 _atom_site_fract_y
 _atom_site_fract_z
 _atom_site_occupancy
  Na  Na0  1  0.01656989  0.99992474  0.49384537  1
  Na  Na1  1  0.00559301  0.32842482  0.50247152  1
  Na  Na2  1  0.99680632  0.66698912  0.49939577  1
  Na  Na3  1  0.98625490  0.00753520  0.00063120  1
  Na  Na4  1  0.01896683  0.34091282  0.00118319  1
  Na  Na5  1  0.00374853  0.66534282  0.00923308  1
  Na  Na6  1  0.68134603  0.11069197  0.82910686  1
  Na  Na7  1  0.64616822  0.44502567  0.84488278  1
  Na  Na8  1  0.68337373  0.77676629  0.82532282  1
  Na  Na9  1  0.65918911  0.10402874  0.32338878  1
  Na  Na10  1  0.67018735  0.44302510  0.33928315  1
  Na  Na11  1  0.66801998  0.77996541  0.33366948  1
  Na  Na12  1  0.32401470  0.21945845  0.16389931  1
  Na  Na13  1  0.31818860  0.55637795  0.17099340  1
  Na  Na14  1  0.34098178  0.89390578  0.16115278  1
  Na  Na15  1  0.31937290  0.21840122  0.67007904  1
  Na  Na16  1  0.34425048  0.55628038  0.67255695  1
  Na  Na17  1  0.29321337  0.88607560  0.65886591  1
  Na  Na18  1  0.62407526  0.66074923  0.25528830  1
  Na  Na19  1  0.38125871  0.12054224  0.24411005  1
  Na  Na20  1  0.36200954  0.46004839  0.25856012  1
  Na  Na21  1  0.34950601  0.78644121  0.23952400  1
  Na  Na22  1  0.98735728  0.20648414  0.24379807  1
  Na  Na23  1  0.02354181  0.54810099  0.25108648  1
  Na  Na24  1  0.60439390  0.20310930  0.74795159  1
  Na  Na25  1  0.61943253  0.54216415  0.76093702  1
  Na  Na26  1  0.62151524  0.86902331  0.74176115  1
  Na  Na27  1  0.99318414  0.12897640  0.74939520  1
  Na  Na28  1  0.01955265  0.46277198  0.75729278  1
  Na  Na29  1  0.38797313  0.00491501  0.74114586  1
  Na  Na30  1  0.37383771  0.32804641  0.75899281  1
  Na  Na31  1  0.38824028  0.66699633  0.74947637  1
  Na  Na32  1  0.31194089  0.78433912  0.57598644  1
  Na  Na33  1  0.01617519  0.56375565  0.57527266  1
  Na  Na34  1  0.67143289  0.32526149  0.57560635  1
  Na  Na35  1  0.65332787  0.98598128  0.57521536  1
  Na  Na36  1  0.31097246  0.32843033  0.07225739  1
  Na  Na37  1  0.30652338  0.98431056  0.07368506  1
  Na  Na38  1  0.66343584  0.22657764  0.08932687  1
  Na  Na39  1  0.68420189  0.57241628  0.08990040  1
  Na  Na40  1  0.65420786  0.90068378  0.07213510  1
  Na  Na41  1  0.06005367  0.77939501  0.08394606  1
  Na  Na42  1  0.95567355  0.54926534  0.92652324  1
  Na  Na43  1  0.98729588  0.89266485  0.92080820  1
  Na  Na44  1  0.69681519  0.34758973  0.92394758  1
  Na  Na45  1  0.34397990  0.10502595  0.90958993  1
  Na  Na46  1  0.32869642  0.77072962  0.92418142  1
  Na  Na47  1  0.97077799  0.09496469  0.40862850  1
  Na  Na48  1  0.94778607  0.43421505  0.42419126  1
  Na  Na49  1  0.99293413  0.77399669  0.42658574  1
  Na  Na50  1  0.31075874  0.00854603  0.41503883  1
  Na  Na51  1  0.34980442  0.34959421  0.42721365  1
  Na  Na52  1  0.69710895  0.55008934  0.42685571  1
  Na  Na53  1  0.70972947  0.89574419  0.40850597  1
  Ta  Ta54  1  0.99110652  0.33306778  0.35460384  1
  Ta  Ta55  1  0.00931346  0.66747271  0.35227867  1
  Ta  Ta56  1  0.99565247  0.00022001  0.85543076  1
  Ta  Ta57  1  0.00900567  0.33515297  0.85587037  1
  Ta  Ta58  1  0.98947580  0.66386026  0.85676749  1
  Ta  Ta59  1  0.00275225  0.99839161  0.64274864  1
  Ta  Ta60  1  0.00066028  0.33224323  0.64436236  1
  Ta  Ta61  1  -0.00017495  0.67014203  0.64385521  1
  Ta  Ta62  1  0.99706786  -0.00016803  0.14914683  1
  Ta  Ta63  1  0.99328802  0.33207262  0.14603671  1
  Ta  Ta64  1  0.66835890  0.44446164  0.68620352  1
  Ta  Ta65  1  0.66770823  0.44271169  0.18493614  1
  Ta  Ta66  1  0.66424615  0.77552123  0.18895910  1
  Ta  Ta67  1  0.67255231  0.11051108  0.98076031  1
  Ta  Ta68  1  0.66915294  0.77900803  0.97703777  1
  Ta  Ta69  1  0.66694409  0.11345590  0.48284915  1
  Ta  Ta70  1  0.67009774  0.77814251  0.48102571  1
  Ta  Ta71  1  0.33240314  0.22181165  0.01671963  1
  Ta  Ta72  1  0.32898826  0.55509423  0.01959876  1
  Ta  Ta73  1  0.33562207  0.22208718  0.52353897  1
  Ta  Ta74  1  0.33723297  0.55651407  0.52091495  1
  Ta  Ta75  1  0.33987712  0.22150028  0.31259423  1
  Ta  Ta76  1  0.32755146  0.88969361  0.31304116  1
  Ta  Ta77  1  0.33117685  0.88865054  0.81220357  1
  Zn  Zn78  1  0.99596233  0.99564112  0.34733818  1
  Zn  Zn79  1  0.01118745  0.67041622  0.14837404  1
  Zn  Zn80  1  0.67823527  0.11338935  0.67909926  1
  Zn  Zn81  1  0.66654927  0.77497714  0.68784481  1
  Zn  Zn82  1  0.67415957  0.11555896  0.18102652  1
  Zn  Zn83  1  0.64950299  0.44000824  0.98770727  1
  Zn  Zn84  1  0.66252892  0.44267840  0.49006103  1
  Zn  Zn85  1  0.32740589  0.88869120  0.01134335  1
  Zn  Zn86  1  0.31941649  0.88701385  0.51471000  1
  Zn  Zn87  1  0.33940076  0.56148223  0.31756417  1
  Zn  Zn88  1  0.33289398  0.21918819  0.81888244  1
  Zn  Zn89  1  0.33825819  0.55924555  0.81495137  1
  Si  Si90  1  0.28942474  0.33340310  0.25035345  1
  Si  Si91  1  0.29026178  0.66391061  0.24543666  1
  Si  Si92  1  0.70383781  0.23436765  0.24935427  1
  Si  Si93  1  0.69887422  0.90244369  0.25194299  1
  Si  Si94  1  0.99526533  0.43028069  0.25121171  1
  Si  Si95  1  0.99758107  0.76389924  0.24752009  1
  Si  Si96  1  0.29458525  0.43036019  0.75011982  1
  Si  Si97  1  0.28634874  0.76205160  0.75142068  1
  Si  Si98  1  0.00181788  0.57104810  0.74898776  1
  Si  Si99  1  0.99958429  0.90191225  0.75007452  1
  Si  Si100  1  0.71043566  0.00018147  0.74789202  1
  Si  Si101  1  0.70964265  0.33218461  0.74971738  1
  Si  Si102  1  0.95957380  0.11043249  0.58620623  1
  Si  Si103  1  0.95937711  0.44343235  0.58010275  1
  Si  Si104  1  0.37247703  0.34610206  0.58173758  1
  Si  Si105  1  0.37712087  0.68176100  0.58801333  1
  Si  Si106  1  0.66524487  0.20779548  0.59008642  1
  Si  Si107  1  0.66345414  0.54155190  0.58163814  1
  Si  Si108  1  0.96368976  0.20862300  0.08647156  1
  Si  Si109  1  0.95862868  0.87474061  0.08330185  1
  Si  Si110  1  0.66778897  0.34657478  0.07798338  1
  Si  Si111  1  0.66695462  0.68096776  0.08370285  1
  Si  Si112  1  0.37439045  0.11078838  0.08516941  1
  Si  Si113  1  0.37398299  0.44475552  0.08439040  1
  Si  Si114  1  0.63164926  0.22315651  0.91489232  1
  Si  Si115  1  0.62482975  0.89093545  0.91885994  1
  Si  Si116  1  0.03928193  0.12628450  0.90988806  1
  Si  Si117  1  0.04109107  0.79094929  0.92024821  1
  Si  Si118  1  0.33257162  0.65233808  0.91172089  1
  Si  Si119  1  0.33900907  0.98737361  0.91790712  1
  Si  Si120  1  0.62595120  0.31970700  0.41851473  1
  Si  Si121  1  0.63020778  0.65299210  0.41418827  1
  Si  Si122  1  0.33947177  0.12566787  0.41658499  1
  Si  Si123  1  0.33971271  0.79265509  0.41842290  1
  Si  Si124  1  0.04656688  0.22189540  0.41642058  1
  Si  Si125  1  0.04219588  0.89218847  0.41987813  1
  P  P126  1  0.29435647  0.00017421  0.25252969  1
  P  P127  1  0.71454981  0.56938710  0.24670760  1
  P  P128  1  0.00166022  0.09663581  0.25476122  1
  P  P129  1  0.28289137  0.09632049  0.74910502  1
  P  P130  1  0.99342304  0.23658938  0.75182237  1
  P  P131  1  0.71407314  0.66794108  0.74969991  1
  P  P132  1  0.95950613  0.77999514  0.58715341  1
  P  P133  1  0.37370886  0.01306987  0.58633775  1
  P  P134  1  0.66973623  0.87476338  0.58603041  1
  P  P135  1  0.95829234  0.54013825  0.07875916  1
  P  P136  1  0.66965317  0.01601969  0.08833208  1
  P  P137  1  0.37697476  0.77627598  0.08364190  1
  P  P138  1  0.61934461  0.55343005  0.91497292  1
  P  P139  1  0.04574784  0.45869329  0.91199734  1
  P  P140  1  0.33478235  0.32116088  0.91294493  1
  P  P141  1  0.61821658  0.98624041  0.42040161  1
  P  P142  1  0.32650787  0.45909756  0.41326527  1
  P  P143  1  0.03944319  0.55530627  0.41241611  1
  O  O144  1  0.21911216  0.00853862  0.31012877  1
  O  O145  1  0.19901540  0.34552502  0.30843624  1
  O  O146  1  0.18649417  0.67043573  0.30546229  1
  O  O147  1  0.82976022  0.27551142  0.30445548  1
  O  O148  1  0.82855190  0.60040456  0.30363691  1
  O  O149  1  0.79983234  0.92571559  0.31278911  1
  O  O150  1  0.00181858  0.06661696  0.31225757  1
  O  O151  1  0.98085623  0.39567235  0.31441357  1
  O  O152  1  0.97033327  0.72042236  0.30505683  1
  O  O153  1  0.18290249  0.06364342  0.80683004  1
  O  O154  1  0.19982920  0.39233438  0.81092614  1
  O  O155  1  0.16953578  0.71971116  0.80721797  1
  O  O156  1  0.99756740  0.27358237  0.80752890  1
  O  O157  1  0.97280115  0.59870768  0.81085215  1
  O  O158  1  0.99965124  0.94054598  0.80830826  1
  O  O159  1  0.82841004  0.00378971  0.80618204  1
  O  O160  1  0.83745260  0.34187373  0.80801713  1
  O  O161  1  0.81064489  0.66323557  0.80611674  1
  O  O162  1  0.80563671  0.32743344  0.68976618  1
  O  O163  1  0.82462270  0.66991769  0.69450336  1
  O  O164  1  0.80664650  0.99135643  0.68875709  1
  O  O165  1  0.17254620  0.05956994  0.69420901  1
  O  O166  1  0.16898943  0.39142881  0.69556891  1
  O  O167  1  0.18027339  0.73378602  0.68822535  1
  O  O168  1  0.99001900  0.27099111  0.69632181  1
  O  O169  1  0.01085528  0.61232029  0.69237577  1
  O  O170  1  0.02153057  0.94249290  0.69094648  1
  O  O171  1  0.79933568  0.26815251  0.18767627  1
  O  O172  1  0.78840487  0.60428709  0.18997440  1
  O  O173  1  0.80517590  0.94345983  0.19379066  1
  O  O174  1  0.02054633  0.06303912  0.19967362  1
  O  O175  1  0.99773665  0.38820724  0.19853183  1
  O  O176  1  0.04356806  0.74332510  0.18706579  1
  O  O177  1  0.16634868  0.32222734  0.19195278  1
  O  O178  1  0.16969871  0.65362837  0.18959737  1
  O  O179  1  0.17173502  0.99244396  0.19710756  1
  O  O180  1  0.89253502  0.12083800  0.64832236  1
  O  O181  1  0.86482037  0.45445814  0.63867794  1
  O  O182  1  0.86968801  0.78242512  0.64196709  1
  O  O183  1  0.47263813  0.04237147  0.64324782  1
  O  O184  1  0.50241218  0.38083636  0.63924807  1
  O  O185  1  0.46812548  0.70198959  0.65092882  1
  O  O186  1  0.63992572  0.17534416  0.65189429  1
  O  O187  1  0.64136063  0.50228809  0.64174938  1
  O  O188  1  0.64408882  0.83958520  0.64196538  1
  O  O189  1  0.89968525  0.17825887  0.14984959  1
  O  O190  1  0.86571411  0.50252428  0.13665303  1
  O  O191  1  0.83786689  0.83094308  0.13718630  1
  O  O192  1  0.64932934  0.04565105  0.14192624  1
  O  O193  1  0.64270347  0.38283036  0.13431762  1
  O  O194  1  0.64305194  0.70780443  0.14700279  1
  O  O195  1  0.49198238  0.13082976  0.14421840  1
  O  O196  1  0.49866620  0.45738263  0.14462521  1
  O  O197  1  0.47595383  0.77153274  0.13905678  1
  O  O198  1  0.46490341  0.09777933  0.02807029  1
  O  O199  1  0.44203764  0.42335708  0.03035089  1
  O  O200  1  0.48704651  0.78206363  0.02674226  1
  O  O201  1  0.82587731  0.17092476  0.03382123  1
  O  O202  1  0.85657452  0.51044627  0.02254394  1
  O  O203  1  0.84792467  0.84765495  0.02108798  1
  O  O204  1  0.68656514  0.04997131  0.02923572  1
  O  O205  1  0.69679976  0.37961578  0.01658555  1
  O  O206  1  0.68110729  0.72549656  0.02993372  1
  O  O207  1  0.46800061  0.05066024  0.52902594  1
  O  O208  1  0.44395227  0.38096674  0.52080142  1
  O  O209  1  0.48732147  0.72638634  0.53285156  1
  O  O210  1  0.68313985  0.17168572  0.53250916  1
  O  O211  1  0.71330607  0.51847856  0.52321211  1
  O  O212  1  0.68932746  0.84447416  0.52851450  1
  O  O213  1  0.82792901  0.09949726  0.52876723  1
  O  O214  1  0.84182566  0.42738665  0.52151253  1
  O  O215  1  0.85725693  0.77716762  0.52825102  1
  O  O216  1  0.53756326  0.23545213  0.97239881  1
  O  O217  1  0.51967240  0.55829831  0.97037822  1
  O  O218  1  0.54618816  0.89874592  0.97954717  1
  O  O219  1  0.17740298  0.16443958  0.96352158  1
  O  O220  1  0.15516132  0.49027485  0.96887565  1
  O  O221  1  0.15292487  0.81180488  0.98054344  1
  O  O222  1  0.32435651  0.28575850  0.97053286  1
  O  O223  1  0.30618217  0.60757365  0.96716718  1
  O  O224  1  0.28270361  0.94744347  0.97660594  1
  O  O225  1  0.53668523  0.28607371  0.48013956  1
  O  O226  1  0.51957847  0.60840892  0.46896075  1
  O  O227  1  0.54459192  0.95184074  0.47760692  1
  O  O228  1  0.33352680  0.16678987  0.46909631  1
  O  O229  1  0.30483943  0.49072558  0.46869366  1
  O  O230  1  0.29229007  0.81347252  0.47858785  1
  O  O231  1  0.17762597  0.23522535  0.47209011  1
  O  O232  1  0.14777116  0.55966807  0.46905029  1
  O  O233  1  0.15963957  0.90360093  0.47694409  1
  O  O234  1  0.13071542  0.20975827  0.35610622  1
  O  O235  1  0.11983364  0.54992227  0.35479716  1
  O  O236  1  0.14175029  0.88230237  0.36138588  1
  O  O237  1  0.50125592  0.27949382  0.36234694  1
  O  O238  1  0.53734866  0.63168221  0.35156466  1
  O  O239  1  0.49880678  0.95413072  0.36511955  1
  O  O240  1  0.35343492  0.16041512  0.35297297  1
  O  O241  1  0.33483301  0.49078627  0.35578995  1
  O  O242  1  0.36667064  0.83492696  0.36081891  1
  O  O243  1  0.10424942  0.15698774  0.84670076  1
  O  O244  1  0.13204386  0.49161353  0.85519452  1
  O  O245  1  0.14356115  0.83511772  0.86389501  1
  O  O246  1  0.34469105  0.29144106  0.85626302  1
  O  O247  1  0.36320829  0.63115460  0.84913313  1
  O  O248  1  0.35973575  0.95511805  0.85844477  1
  O  O249  1  0.51476285  0.20595006  0.85575536  1
  O  O250  1  0.52756272  0.54938981  0.85659678  1
  O  O251  1  0.50430607  0.88192389  0.85983040  1
  O  O252  1  0.03198221  0.27984836  0.40803864  1
  O  O253  1  0.02214531  0.61081431  0.41235796  1
  O  O254  1  0.00728795  0.94452772  0.41244439  1
  O  O255  1  0.81708500  0.32514486  0.41367891  1
  O  O256  1  0.82198499  0.65792538  0.41419092  1
  O  O257  1  0.79884510  0.99672199  0.41187897  1
  O  O258  1  0.17183743  0.06405689  0.41896335  1
  O  O259  1  0.16131218  0.39769419  0.41571664  1
  O  O260  1  0.17033924  0.72922817  0.40441689  1
  O  O261  1  0.02970519  0.06340540  0.91322681  1
  O  O262  1  0.02931111  0.39749333  0.91358452  1
  O  O263  1  0.01271005  0.72693975  0.90724862  1
  O  O264  1  0.16633992  0.32497132  0.91439195  1
  O  O265  1  0.15321659  0.65645356  0.91373899  1
  O  O266  1  0.17686055  0.99921803  0.90737741  1
  O  O267  1  0.81879410  0.28239383  0.91122817  1
  O  O268  1  0.80127774  0.61023531  0.91609220  1
  O  O269  1  0.82412040  0.94405505  0.91137363  1
  O  O270  1  0.97292082  0.05106391  0.58691175  1
  O  O271  1  0.98717616  0.38881042  0.59153285  1
  O  O272  1  0.96973447  0.72243475  0.58464453  1
  O  O273  1  0.19338647  0.00884508  0.58627201  1
  O  O274  1  0.17979876  0.33510646  0.59340837  1
  O  O275  1  0.18242124  0.67564301  0.58484024  1
  O  O276  1  0.83360370  0.27291445  0.58638889  1
  O  O277  1  0.82953175  0.60639182  0.59204099  1
  O  O278  1  0.83861376  0.93509493  0.58640245  1
  O  O279  1  0.98401588  0.27345319  0.08392371  1
  O  O280  1  0.97388271  0.59846198  0.08371319  1
  O  O281  1  0.96675305  0.93741738  0.09173773  1
  O  O282  1  0.83852543  0.01115197  0.09153523  1
  O  O283  1  0.82622395  0.33490759  0.09059866  1
  O  O284  1  0.83454462  0.67462674  0.08263729  1
  O  O285  1  0.18549406  0.05266293  0.09296066  1
  O  O286  1  0.18083120  0.39074405  0.09691115  1
  O  O287  1  0.20180816  0.72381667  0.07696359  1
  O  O288  1  0.68910445  0.05562882  0.74755878  1
  O  O289  1  0.70338900  0.39253380  0.74401522  1
  O  O290  1  0.69793372  0.72024054  0.75402502  1
  O  O291  1  0.45539388  0.09958678  0.75271207  1
  O  O292  1  0.47919096  0.43154017  0.74557933  1
  O  O293  1  0.47089648  0.76761772  0.75390174  1
  O  O294  1  0.83052684  0.17932793  0.75758235  1
  O  O295  1  0.82417925  0.50831968  0.74342351  1
  O  O296  1  0.82789812  0.84218716  0.74991390  1
  O  O297  1  0.68707638  0.17274641  0.25548789  1
  O  O298  1  0.71459727  0.51074850  0.24492616  1
  O  O299  1  0.66362994  0.83692504  0.23850302  1
  O  O300  1  0.84963126  0.10555150  0.25065179  1
  O  O301  1  0.82206561  0.43564533  0.24321448  1
  O  O302  1  0.82180966  0.76817014  0.24731527  1
  O  O303  1  0.46956638  0.05188482  0.24261013  1
  O  O304  1  0.47674473  0.39150507  0.24131189  1
  O  O305  1  0.47566154  0.72507203  0.24705041  1
  O  O306  1  0.65191787  0.16740875  0.93081377  1
  O  O307  1  0.65456606  0.50399116  0.92197520  1
  O  O308  1  0.64375639  0.83274548  0.91964435  1
  O  O309  1  0.85153256  0.11675737  0.92761252  1
  O  O310  1  0.86589721  0.45052392  0.91496995  1
  O  O311  1  0.85364774  0.78762458  0.92195372  1
  O  O312  1  0.50622132  0.05142445  0.92284198  1
  O  O313  1  0.49301897  0.38037394  0.91587450  1
  O  O314  1  0.48756601  0.71756897  0.92780409  1
  O  O315  1  0.62292964  0.04543282  0.42192061  1
  O  O316  1  0.64312793  0.38152880  0.41229166  1
  O  O317  1  0.66405249  0.71733765  0.43093645  1
  O  O318  1  0.51173091  0.11984700  0.42397636  1
  O  O319  1  0.48587526  0.45315853  0.41788217  1
  O  O320  1  0.51386602  0.78751928  0.42272366  1
  O  O321  1  0.86141103  0.16369664  0.42734290  1
  O  O322  1  0.85824968  0.50369451  0.41693438  1
  O  O323  1  0.85494505  0.83093277  0.42354485  1
  O  O324  1  0.34834655  0.16592392  0.06852576  1
  O  O325  1  0.36535889  0.50349611  0.07516016  1
  O  O326  1  0.37179592  0.83159644  0.09241244  1
  O  O327  1  0.15595232  0.22005048  0.07052455  1
  O  O328  1  0.13897732  0.54425745  0.07646087  1
  O  O329  1  0.14468043  0.88128385  0.08499628  1
  O  O330  1  0.49175773  0.28315616  0.07918128  1
  O  O331  1  0.49449542  0.61752508  0.07183866  1
  O  O332  1  0.51685162  0.95510826  0.08356367  1
  O  O333  1  0.36233495  0.28366713  0.58232621  1
  O  O334  1  0.34001360  0.61695823  0.56973526  1
  O  O335  1  0.35844349  0.95445509  0.58267051  1
  O  O336  1  0.50234970  0.21760122  0.57768190  1
  O  O337  1  0.49084068  0.54742737  0.57524772  1
  O  O338  1  0.51722035  0.88458409  0.57938057  1
  O  O339  1  0.14878681  0.16477356  0.57171246  1
  O  O340  1  0.14268309  0.50294864  0.57378033  1
  O  O341  1  0.14511280  0.82851527  0.58294904  1
  O  O342  1  0.30116686  0.27521261  0.25763666  1
  O  O343  1  0.32469812  0.61124888  0.25147641  1
  O  O344  1  0.30290051  0.94372558  0.25482138  1
  O  O345  1  0.51565857  0.23037884  0.25232516  1
  O  O346  1  0.53237371  0.55757885  0.25482841  1
  O  O347  1  0.50488645  0.89467865  0.25351162  1
  O  O348  1  0.17324889  0.15715055  0.25021453  1
  O  O349  1  0.16259306  0.49178847  0.24728083  1
  O  O350  1  0.16455301  0.82622656  0.26306980  1
  O  O351  1  0.29249622  0.15412900  0.74376933  1
  O  O352  1  0.31868612  0.49307080  0.75007462  1
  O  O353  1  0.30438738  0.82553161  0.75874268  1
  O  O354  1  0.15674619  0.23354695  0.74788149  1
  O  O355  1  0.16747994  0.56408913  0.74706280  1
  O  O356  1  0.18222598  0.90194467  0.75422400  1
  O  O357  1  0.52183661  0.27709766  0.75423924  1
  O  O358  1  0.54256860  0.61214078  0.74416531  1
  O  O359  1  0.52460594  0.94068378  0.75458350  1
