# generated using pymatgen
data_Na14Mg5Si6Ge3(SO8)6
_symmetry_space_group_name_H-M   'P 1'
_cell_length_a   18.11698754
_cell_length_b   9.00581784
_cell_length_c   21.90241315
_cell_angle_alpha   90.20326627
_cell_angle_beta   89.32238435
_cell_angle_gamma   120.30224480
_symmetry_Int_Tables_number   1
_chemical_formula_structural   Na14Mg5Si6Ge3(SO8)6
_chemical_formula_sum   'Na42 Mg15 Si18 Ge9 S18 O144'
_cell_volume   3085.09750984
_cell_formula_units_Z   3
loop_
 _symmetry_equiv_pos_site_id
 _symmetry_equiv_pos_as_xyz
  1  'x, y, z'
loop_
 _atom_site_type_symbol
 _atom_site_label
 _atom_site_symmetry_multiplicity
 _atom_site_fract_x
 _atom_site_fract_y
 _atom_site_fract_z
 _atom_site_occupancy
  Na  Na0  1  0.19474366  0.36445951  0.24955919  1
  Na  Na1  1  0.68841306  0.35633008  0.24550819  1
  Na  Na2  1  0.99839606  0.64139169  0.25520071  1
  Na  Na3  1  0.49600258  0.62815238  0.24218603  1
  Na  Na4  1  0.32231699  0.64063665  0.74620981  1
  Na  Na5  1  0.82235147  0.64010045  0.73317229  1
  Na  Na6  1  0.18968128  0.02781827  0.74548779  1
  Na  Na7  1  0.69186614  0.02535122  0.74780342  1
  Na  Na8  1  0.15375436  0.32705730  0.57483918  1
  Na  Na9  1  0.66818702  0.35164767  0.57775353  1
  Na  Na10  1  0.00762438  0.69317643  0.57981125  1
  Na  Na11  1  0.51070846  0.69195418  0.58411301  1
  Na  Na12  1  0.32235257  0.97119280  0.59590768  1
  Na  Na13  1  0.82192765  0.96348212  0.59556073  1
  Na  Na14  1  0.15489247  0.97364607  0.07881133  1
  Na  Na15  1  0.64987932  0.96062424  0.06793594  1
  Na  Na16  1  0.82122174  0.67492391  0.09473925  1
  Na  Na17  1  0.01326066  0.33205223  0.08281633  1
  Na  Na18  1  0.51625011  0.34392058  0.09319822  1
  Na  Na19  1  0.48816699  0.66705080  0.92571120  1
  Na  Na20  1  0.99273931  0.67814200  0.91712140  1
  Na  Na21  1  0.84711651  0.03427466  0.90494218  1
  Na  Na22  1  0.16532213  0.28579209  0.90594198  1
  Na  Na23  1  0.66208167  0.27246699  0.91467173  1
  Na  Na24  1  0.49191009  0.31306184  0.41907499  1
  Na  Na25  1  0.98726437  0.30283642  0.42354959  1
  Na  Na26  1  0.16305005  0.05493150  0.41508304  1
  Na  Na27  1  0.66487011  0.05424139  0.41461751  1
  Na  Na28  1  0.35200314  0.65996835  0.40336512  1
  Na  Na29  1  0.85097349  0.66259663  0.41678928  1
  Na  Na30  1  0.00573124  0.99881535  0.50224165  1
  Na  Na31  1  0.51629964  0.02356372  0.50031848  1
  Na  Na32  1  0.00827588  0.00393700  0.99861154  1
  Na  Na33  1  0.49730016  0.99506262  0.00058315  1
  Na  Na34  1  0.33915430  0.30615583  0.83113660  1
  Na  Na35  1  0.83010773  0.31701718  0.82590908  1
  Na  Na36  1  0.32577741  0.32547750  0.32528448  1
  Na  Na37  1  0.81992628  0.32182098  0.32713769  1
  Na  Na38  1  0.19060497  0.67905404  0.16170882  1
  Na  Na39  1  0.66201124  0.66695463  0.16190930  1
  Na  Na40  1  0.15726909  0.66312354  0.66602705  1
  Na  Na41  1  0.66900068  0.66760439  0.66303783  1
  Mg  Mg42  1  0.00502766  0.00578165  0.34944625  1
  Mg  Mg43  1  0.50671519  0.00786862  0.34760318  1
  Mg  Mg44  1  0.00548922  0.00870716  0.84829365  1
  Mg  Mg45  1  0.50203197  0.00428799  0.85268468  1
  Mg  Mg46  1  0.32835268  0.31758035  0.68622243  1
  Mg  Mg47  1  0.82628718  0.32427958  0.68449915  1
  Mg  Mg48  1  0.32853726  0.33447660  0.18645529  1
  Mg  Mg49  1  0.82581788  0.32872374  0.18528244  1
  Mg  Mg50  1  0.81323925  0.30220206  0.98194675  1
  Mg  Mg51  1  0.31659216  0.32437156  0.48031600  1
  Mg  Mg52  1  0.81635184  0.34483314  0.48696348  1
  Mg  Mg53  1  0.16983049  0.66461477  0.01882447  1
  Mg  Mg54  1  0.65836074  0.65653538  0.01925133  1
  Mg  Mg55  1  0.16310381  0.66562226  0.51828393  1
  Mg  Mg56  1  0.66889947  0.66712671  0.52126022  1
  Si  Si57  1  0.15455227  0.99300506  0.25656404  1
  Si  Si58  1  0.65255846  0.98818793  0.25485949  1
  Si  Si59  1  0.36073076  0.72149345  0.25259272  1
  Si  Si60  1  0.85875887  0.71614767  0.25153137  1
  Si  Si61  1  0.14613735  0.30676262  0.75240336  1
  Si  Si62  1  0.64992450  0.30959353  0.75922960  1
  Si  Si63  1  0.35990088  0.00628298  0.75273446  1
  Si  Si64  1  0.85902842  0.00898419  0.75501993  1
  Si  Si65  1  0.17930045  0.02859006  0.58541185  1
  Si  Si66  1  0.67605136  0.03231806  0.58702915  1
  Si  Si67  1  0.84003663  0.64649795  0.58570801  1
  Si  Si68  1  0.47048503  0.61050122  0.08305086  1
  Si  Si69  1  0.18003685  0.32850772  0.09110794  1
  Si  Si70  1  0.67647249  0.31932228  0.08708774  1
  Si  Si71  1  0.17103596  0.96001730  0.92044061  1
  Si  Si72  1  0.66536233  0.95360454  0.91529758  1
  Si  Si73  1  0.16540903  0.38070019  0.41531526  1
  Si  Si74  1  0.66510709  0.37980946  0.41527297  1
  Ge  Ge75  1  0.00170394  0.01306288  0.65188469  1
  Ge  Ge76  1  0.51335092  0.03805026  0.66138598  1
  Ge  Ge77  1  0.01444012  0.99548961  0.16057534  1
  Ge  Ge78  1  0.50939845  0.95343497  0.14984770  1
  Ge  Ge79  1  0.31631380  0.30858451  0.99132645  1
  Ge  Ge80  1  0.18957967  0.69118948  0.30948910  1
  Ge  Ge81  1  0.68463295  0.67780881  0.30629600  1
  Ge  Ge82  1  0.18080917  0.69167579  0.80923036  1
  Ge  Ge83  1  0.67921856  0.68395847  0.80952477  1
  S  S84  1  0.00240810  0.29285161  0.24891950  1
  S  S85  1  0.50167251  0.29689963  0.25216464  1
  S  S86  1  0.00524375  0.70802852  0.75268328  1
  S  S87  1  0.50334938  0.70950590  0.75002292  1
  S  S88  1  0.47578405  0.32726642  0.58243911  1
  S  S89  1  0.97729281  0.33002966  0.58273105  1
  S  S90  1  0.33559187  0.63360768  0.58138363  1
  S  S91  1  0.97867504  0.62636978  0.08314154  1
  S  S92  1  0.33251607  0.04269597  0.08300321  1
  S  S93  1  0.83900979  0.04331972  0.08115942  1
  S  S94  1  0.31221629  0.66263406  0.91459340  1
  S  S95  1  0.81460770  0.66436480  0.91858784  1
  S  S96  1  0.02111919  0.38140419  0.91832040  1
  S  S97  1  0.51703578  0.37351797  0.91686025  1
  S  S98  1  0.31321904  0.96408868  0.41800283  1
  S  S99  1  0.81220287  0.96260314  0.41569297  1
  S  S100  1  0.01912390  0.66104567  0.41573852  1
  S  S101  1  0.51787227  0.66063350  0.41918869  1
  O  O102  1  0.10858551  0.02619605  0.31313760  1
  O  O103  1  0.60917421  0.02276484  0.31273257  1
  O  O104  1  0.40655178  0.80899714  0.31492649  1
  O  O105  1  0.90965403  0.80657156  0.31177434  1
  O  O106  1  0.49592018  0.20631048  0.30961639  1
  O  O107  1  0.99047768  0.19666632  0.30498117  1
  O  O108  1  0.11001446  0.18664766  0.81163494  1
  O  O109  1  0.60665545  0.18143330  0.81495214  1
  O  O110  1  0.49111971  0.77870632  0.80718367  1
  O  O111  1  0.99357754  0.78401082  0.80918772  1
  O  O112  1  0.40753257  0.98861182  0.80908677  1
  O  O113  1  0.90364676  0.00379810  0.81680692  1
  O  O114  1  0.40651896  0.97239878  0.68760201  1
  O  O115  1  0.90615002  0.97146997  0.69512866  1
  O  O116  1  0.08352768  0.21274542  0.69126602  1
  O  O117  1  0.59129282  0.23185270  0.69476472  1
  O  O118  1  0.01843627  0.82042431  0.69814643  1
  O  O119  1  0.51661510  0.82995710  0.69631988  1
  O  O120  1  0.41271582  0.84979742  0.19263129  1
  O  O121  1  0.90991910  0.84117960  0.18807903  1
  O  O122  1  0.01583884  0.20147338  0.19374125  1
  O  O123  1  0.51180162  0.21146486  0.19798490  1
  O  O124  1  0.08757149  0.94121678  0.19439978  1
  O  O125  1  0.58757026  0.93016673  0.19256995  1
  O  O126  1  0.43200602  0.34982217  0.63506445  1
  O  O127  1  0.93293950  0.34386240  0.63570199  1
  O  O128  1  0.24369510  0.11312778  0.64180162  1
  O  O129  1  0.73612532  0.11321397  0.64517930  1
  O  O130  1  0.33285986  0.53809218  0.63679596  1
  O  O131  1  0.83113212  0.52457802  0.64217557  1
  O  O132  1  0.43175719  0.49416116  0.14206035  1
  O  O133  1  0.93693302  0.52459713  0.13819673  1
  O  O134  1  0.31922178  0.12376757  0.13522228  1
  O  O135  1  0.83557782  0.13931167  0.13392640  1
  O  O136  1  0.23115089  0.34508930  0.15061479  1
  O  O137  1  0.73969743  0.36174230  0.14377823  1
  O  O138  1  0.21842213  0.27487171  0.02831593  1
  O  O139  1  0.70843250  0.26481482  0.02511630  1
  O  O140  1  0.40517501  0.50772484  0.02046853  1
  O  O141  1  0.93002893  0.54076208  0.02743255  1
  O  O142  1  0.34277561  0.14851586  0.02467957  1
  O  O143  1  0.84821149  0.14080629  0.02363222  1
  O  O144  1  0.21350532  0.14200456  0.52231703  1
  O  O145  1  0.70884976  0.15391325  0.52580882  1
  O  O146  1  0.34229619  0.54551698  0.52595960  1
  O  O147  1  0.86166336  0.57660349  0.52262409  1
  O  O148  1  0.42816900  0.30830889  0.52542387  1
  O  O149  1  0.93105047  0.31449282  0.52517777  1
  O  O150  1  0.26608126  0.67274693  0.96858951  1
  O  O151  1  0.76976951  0.67901401  0.97248968  1
  O  O152  1  0.06950104  0.45755346  0.97513643  1
  O  O153  1  0.56420061  0.44975210  0.97377943  1
  O  O154  1  0.15691030  0.84663250  0.97999548  1
  O  O155  1  0.66230553  0.84713874  0.97439679  1
  O  O156  1  0.26867416  0.86099875  0.47217622  1
  O  O157  1  0.76906994  0.86218923  0.47050081  1
  O  O158  1  0.15678848  0.47029734  0.47636884  1
  O  O159  1  0.65263442  0.46768232  0.47519081  1
  O  O160  1  0.06963498  0.68156635  0.47095227  1
  O  O161  1  0.56920169  0.68038523  0.47376169  1
  O  O162  1  0.06396884  0.65091446  0.35987006  1
  O  O163  1  0.55890670  0.64376222  0.36282165  1
  O  O164  1  0.25805072  0.88704735  0.36124574  1
  O  O165  1  0.75790449  0.88264527  0.35925778  1
  O  O166  1  0.17906150  0.51359428  0.35287550  1
  O  O167  1  0.67978005  0.50965576  0.35194267  1
  O  O168  1  0.06707450  0.49071080  0.86460925  1
  O  O169  1  0.56348642  0.48634552  0.86348308  1
  O  O170  1  0.18364866  0.86588804  0.85555177  1
  O  O171  1  0.67791808  0.85168268  0.85150173  1
  O  O172  1  0.26174796  0.64357829  0.85665211  1
  O  O173  1  0.76444857  0.64188180  0.86106669  1
  O  O174  1  0.00645473  0.81244100  0.41434673  1
  O  O175  1  0.50543456  0.81265385  0.41784479  1
  O  O176  1  0.39686263  0.97587733  0.41253713  1
  O  O177  1  0.89682611  0.97513322  0.41061474  1
  O  O178  1  0.07821456  0.19196631  0.41103375  1
  O  O179  1  0.57900703  0.18983812  0.41011313  1
  O  O180  1  0.00934634  0.20502500  0.91463938  1
  O  O181  1  0.50675166  0.19958617  0.91292044  1
  O  O182  1  0.08724201  0.98303697  0.91362365  1
  O  O183  1  0.57793272  0.96456536  0.91381525  1
  O  O184  1  0.39927690  0.80812960  0.91258487  1
  O  O185  1  0.90156425  0.81986667  0.91559742  1
  O  O186  1  0.48088189  0.16474818  0.58755568  1
  O  O187  1  0.98564910  0.17064298  0.58525473  1
  O  O188  1  0.08518452  0.02337328  0.59732786  1
  O  O189  1  0.57634112  0.02203164  0.59908241  1
  O  O190  1  0.41205325  0.80907273  0.58075350  1
  O  O191  1  0.92635913  0.84637578  0.59468987  1
  O  O192  1  0.47951650  0.80606166  0.08508337  1
  O  O193  1  0.98394509  0.80010115  0.08535433  1
  O  O194  1  0.41185377  0.03575392  0.08275899  1
  O  O195  1  0.91600579  0.02293580  0.08266771  1
  O  O196  1  0.08054253  0.13413608  0.09640775  1
  O  O197  1  0.57692376  0.13783281  0.10081077  1
  O  O198  1  0.34392778  0.16495028  0.74665521  1
  O  O199  1  0.84208663  0.16555986  0.74652052  1
  O  O200  1  0.24322088  0.34476671  0.74023416  1
  O  O201  1  0.74577816  0.34419816  0.74922700  1
  O  O202  1  0.42714994  0.54081562  0.73860969  1
  O  O203  1  0.93234979  0.53567400  0.74506832  1
  O  O204  1  0.34713997  0.53002193  0.24743681  1
  O  O205  1  0.84858151  0.52723997  0.24439932  1
  O  O206  1  0.42817887  0.32345660  0.24926404  1
  O  O207  1  0.93003245  0.31967477  0.23885517  1
  O  O208  1  0.24787047  0.15136062  0.24527613  1
  O  O209  1  0.74556777  0.15026105  0.24287267  1
  O  O210  1  0.31502154  0.49828504  0.91523707  1
  O  O211  1  0.82486267  0.51051078  0.92187327  1
  O  O212  1  0.43173198  0.36259971  0.91825060  1
  O  O213  1  0.93560146  0.36765077  0.92111339  1
  O  O214  1  0.25991731  0.16414795  0.92526310  1
  O  O215  1  0.75240708  0.14409578  0.91099661  1
  O  O216  1  0.32502012  0.13933298  0.42048300  1
  O  O217  1  0.82448615  0.13862123  0.41874747  1
  O  O218  1  0.25157047  0.36415298  0.41102487  1
  O  O219  1  0.75187259  0.36545863  0.41350226  1
  O  O220  1  0.43154778  0.50051699  0.42352058  1
  O  O221  1  0.93466408  0.49912949  0.41770445  1
  O  O222  1  0.16053783  0.48174468  0.07834985  1
  O  O223  1  0.66452488  0.48644594  0.07853090  1
  O  O224  1  0.06734507  0.65615541  0.08134104  1
  O  O225  1  0.56814992  0.65206761  0.07490008  1
  O  O226  1  0.25594960  0.86792133  0.07695745  1
  O  O227  1  0.76091215  0.86868923  0.08074077  1
  O  O228  1  0.16107092  0.83086022  0.57905077  1
  O  O229  1  0.65757213  0.83702046  0.57813125  1
  O  O230  1  0.25658955  0.64790181  0.58127018  1
  O  O231  1  0.75446768  0.66498566  0.58173037  1
  O  O232  1  0.06604874  0.48178724  0.58108307  1
  O  O233  1  0.56407724  0.47631043  0.58064979  1
  O  O234  1  0.15183358  0.80132048  0.26089339  1
  O  O235  1  0.65118026  0.79940943  0.26103128  1
  O  O236  1  0.26156150  0.69773937  0.25073256  1
  O  O237  1  0.76021521  0.69113175  0.24790655  1
  O  O238  1  0.08286656  0.46373159  0.24823539  1
  O  O239  1  0.58330770  0.47501011  0.25192840  1
  O  O240  1  0.15280678  0.50206318  0.76085195  1
  O  O241  1  0.65365033  0.50079210  0.76301975  1
  O  O242  1  0.08802714  0.70485890  0.75463796  1
  O  O243  1  0.58264922  0.69821998  0.74881741  1
  O  O244  1  0.25924096  0.82489002  0.74962964  1
  O  O245  1  0.75929551  0.82252272  0.75211029  1
