# generated using pymatgen
data_Na7NbZn3(PO4)6
_symmetry_space_group_name_H-M   'P 1'
_cell_length_a   9.02646580
_cell_length_b   9.00885736
_cell_length_c   22.14903736
_cell_angle_alpha   90.05067623
_cell_angle_beta   90.07349607
_cell_angle_gamma   119.98027797
_symmetry_Int_Tables_number   1
_chemical_formula_structural   Na7NbZn3(PO4)6
_chemical_formula_sum   'Na21 Nb3 Zn9 P18 O72'
_cell_volume   1560.12063922
_cell_formula_units_Z   3
loop_
 _symmetry_equiv_pos_site_id
 _symmetry_equiv_pos_as_xyz
  1  'x, y, z'
loop_
 _atom_site_type_symbol
 _atom_site_label
 _atom_site_symmetry_multiplicity
 _atom_site_fract_x
 _atom_site_fract_y
 _atom_site_fract_z
 _atom_site_occupancy
  Na  Na0  1  0.63292781  0.99984801  0.24863438  1
  Na  Na1  1  0.36681627  0.36707508  0.24857647  1
  Na  Na2  1  0.00017257  0.63318058  0.24871863  1
  Na  Na3  1  0.64946098  0.63526416  0.74689103  1
  Na  Na4  1  0.98889587  0.35346146  0.74695290  1
  Na  Na5  1  0.29368797  0.33425185  0.58599069  1
  Na  Na6  1  0.03986282  0.70658460  0.58612219  1
  Na  Na7  1  0.66620792  0.96094633  0.58609833  1
  Na  Na8  1  0.29272362  0.95970749  0.08648672  1
  Na  Na9  1  0.66566130  0.70646963  0.08661042  1
  Na  Na10  1  0.04172060  0.33318099  0.08708643  1
  Na  Na11  1  0.32000391  0.29437299  0.91204167  1
  Na  Na12  1  0.97979765  0.29798069  0.40695090  1
  Na  Na13  1  0.31803475  0.01985947  0.40710798  1
  Na  Na14  1  0.70227945  0.68184443  0.40691953  1
  Na  Na15  1  0.00001611  0.99993723  0.49908877  1
  Na  Na16  1  0.98857351  0.98945260  0.99654137  1
  Na  Na17  1  0.66444696  0.32171640  0.82699088  1
  Na  Na18  1  0.66692317  0.33345697  0.32248261  1
  Na  Na19  1  0.33341095  0.66643578  0.16900741  1
  Na  Na20  1  0.33444476  0.67760460  0.66191686  1
  Nb  Nb21  1  0.67148430  0.33449727  0.97925680  1
  Nb  Nb22  1  0.66599046  0.33277206  0.48191419  1
  Nb  Nb23  1  0.33344856  0.67336458  0.81500774  1
  Zn  Zn24  1  0.00038755  0.99991513  0.34090515  1
  Zn  Zn25  1  0.99462302  0.99346696  0.84922172  1
  Zn  Zn26  1  0.00206451  0.99900081  0.65663937  1
  Zn  Zn27  1  0.00007947  0.99971425  0.15557744  1
  Zn  Zn28  1  0.65961779  0.32603710  0.68453663  1
  Zn  Zn29  1  0.66665815  0.33356024  0.18268965  1
  Zn  Zn30  1  0.33482415  0.66911915  0.01456098  1
  Zn  Zn31  1  0.33331907  0.66706332  0.51264654  1
  Zn  Zn32  1  0.33310832  0.66657675  0.31646150  1
  P  P33  1  0.29709406  0.99884222  0.24988001  1
  P  P34  1  0.70181824  0.70297964  0.24981787  1
  P  P35  1  0.00107298  0.29805540  0.24991578  1
  P  P36  1  0.29598484  0.29456798  0.75177923  1
  P  P37  1  0.00033431  0.70715196  0.74922940  1
  P  P38  1  0.70785696  0.00176296  0.74972870  1
  P  P39  1  0.96302202  0.33512704  0.58615410  1
  P  P40  1  0.37264753  0.03748893  0.58500826  1
  P  P41  1  0.66529700  0.62847732  0.58608396  1
  P  P42  1  0.96213374  0.62681968  0.08514302  1
  P  P43  1  0.66469871  0.03834787  0.08498948  1
  P  P44  1  0.37408392  0.33498409  0.08384923  1
  P  P45  1  0.63049735  0.67093017  0.91924672  1
  P  P46  1  0.04037639  0.37248562  0.91887040  1
  P  P47  1  0.33069191  0.96077657  0.92060245  1
  P  P48  1  0.62869161  0.96079569  0.41815770  1
  P  P49  1  0.33247720  0.37165599  0.41815585  1
  P  P50  1  0.03862222  0.66743029  0.41818684  1
  O  O51  1  0.21696304  0.02675422  0.30770300  1
  O  O52  1  0.80990644  0.78315015  0.30773643  1
  O  O53  1  0.97342475  0.18998657  0.30772573  1
  O  O54  1  0.21302880  0.19388091  0.80872268  1
  O  O55  1  0.97104952  0.79306408  0.80276495  1
  O  O56  1  0.82242663  0.02932897  0.80350868  1
  O  O57  1  0.76818850  0.95346272  0.69096406  1
  O  O58  1  0.18523583  0.22665717  0.69392123  1
  O  O59  1  0.03556675  0.80564703  0.68922726  1
  O  O60  1  0.78372792  0.81315705  0.19278411  1
  O  O61  1  0.02916855  0.21604874  0.19274183  1
  O  O62  1  0.18697607  0.97050057  0.19269742  1
  O  O63  1  0.88043156  0.36176382  0.64178932  1
  O  O64  1  0.48887698  0.12437125  0.63819578  1
  O  O65  1  0.64073164  0.52006481  0.64184527  1
  O  O66  1  0.88117570  0.51832014  0.14115217  1
  O  O67  1  0.63781924  0.11922957  0.14127518  1
  O  O68  1  0.48337473  0.36199448  0.13979462  1
  O  O69  1  0.47556827  0.31758997  0.02642542  1
  O  O70  1  0.83902498  0.52124199  0.02875264  1
  O  O71  1  0.68177545  0.16165483  0.02890348  1
  O  O72  1  0.47123489  0.15347411  0.52667108  1
  O  O73  1  0.68078100  0.52479437  0.52915892  1
  O  O74  1  0.84313374  0.31770985  0.52917512  1
  O  O75  1  0.54709964  0.68586943  0.97651595  1
  O  O76  1  0.14590337  0.45423335  0.97530067  1
  O  O77  1  0.31216262  0.86220115  0.97782914  1
  O  O78  1  0.55007552  0.85724684  0.47578969  1
  O  O79  1  0.30739152  0.45020003  0.47590367  1
  O  O80  1  0.14250931  0.69272206  0.47585402  1
  O  O81  1  0.10924962  0.62461947  0.36219206  1
  O  O82  1  0.51509174  0.88988993  0.36213123  1
  O  O83  1  0.37456762  0.48498499  0.36217878  1
  O  O84  1  0.13271250  0.49228205  0.86217836  1
  O  O85  1  0.35517169  0.86244696  0.86513892  1
  O  O86  1  0.50551714  0.63902910  0.86314671  1
  O  O87  1  0.00942583  0.82124549  0.41304073  1
  O  O88  1  0.81141317  0.99021549  0.41313575  1
  O  O89  1  0.17920905  0.18850103  0.41301615  1
  O  O90  1  0.02186559  0.19674714  0.91020831  1
  O  O91  1  0.18318201  0.99406166  0.91126965  1
  O  O92  1  0.80796228  0.82066756  0.91031310  1
  O  O93  1  0.97019660  0.16783835  0.58417665  1
  O  O94  1  0.19922664  0.03184916  0.58391921  1
  O  O95  1  0.83214840  0.80251875  0.58343748  1
  O  O96  1  0.96785121  0.80019246  0.08295930  1
  O  O97  1  0.83152765  0.03166487  0.08264368  1
  O  O98  1  0.19981857  0.16806567  0.08222213  1
  O  O99  1  0.68488240  0.15858796  0.74469851  1
  O  O100  1  0.48164475  0.33375148  0.74677802  1
  O  O101  1  0.84762731  0.52132588  0.74614140  1
  O  O102  1  0.68396091  0.52234489  0.24634950  1
  O  O103  1  0.83872274  0.31605873  0.24652745  1
  O  O104  1  0.47726101  0.16151747  0.24649477  1
  O  O105  1  0.63264930  0.49388378  0.92097575  1
  O  O106  1  0.85991537  0.36035117  0.92191777  1
  O  O107  1  0.50149472  0.14303787  0.92132574  1
  O  O108  1  0.64930924  0.14885570  0.42529338  1
  O  O109  1  0.50040038  0.35237333  0.42529582  1
  O  O110  1  0.85118653  0.50003468  0.42560864  1
  O  O111  1  0.35486166  0.49473340  0.07764246  1
  O  O112  1  0.13942866  0.64461260  0.07771209  1
  O  O113  1  0.50522522  0.86032456  0.07781007  1
  O  O114  1  0.35260545  0.85831449  0.57803764  1
  O  O115  1  0.50517133  0.64623351  0.57885453  1
  O  O116  1  0.14094342  0.49491284  0.57862310  1
  O  O117  1  0.31425506  0.83571553  0.25421106  1
  O  O118  1  0.52181694  0.68569339  0.25412008  1
  O  O119  1  0.16403398  0.47825296  0.25425773  1
  O  O120  1  0.31190979  0.48328038  0.75897810  1
  O  O121  1  0.16567844  0.68466097  0.75900772  1
  O  O122  1  0.52310388  0.83296973  0.76043404  1
