# generated using pymatgen
data_Na4Mg(FeO3)2
_symmetry_space_group_name_H-M   'P 1'
_cell_length_a   5.74751178
_cell_length_b   6.50831162
_cell_length_c   6.00412045
_cell_angle_alpha   89.99896920
_cell_angle_beta   61.38698779
_cell_angle_gamma   89.99407284
_symmetry_Int_Tables_number   1
_chemical_formula_structural   Na4Mg(FeO3)2
_chemical_formula_sum   'Na4 Mg1 Fe2 O6'
_cell_volume   197.16503848
_cell_formula_units_Z   1
loop_
 _symmetry_equiv_pos_site_id
 _symmetry_equiv_pos_as_xyz
  1  'x, y, z'
loop_
 _atom_site_type_symbol
 _atom_site_label
 _atom_site_symmetry_multiplicity
 _atom_site_fract_x
 _atom_site_fract_y
 _atom_site_fract_z
 _atom_site_occupancy
  Na  Na0  1  0.26195589  0.51668844  0.54095413  1
  Na  Na1  1  0.26177972  0.97995576  0.54109468  1
  Na  Na2  1  0.79265202  0.51672673  0.47927795  1
  Na  Na3  1  0.79259178  0.97997639  0.47919723  1
  Mg  Mg4  1  0.32551559  0.24850024  0.01012357  1
  Fe  Fe5  1  0.19510208  0.74838469  0.01018600  1
  Fe  Fe6  1  0.80974013  0.24836014  0.01013762  1
  O  O7  1  0.05466112  0.03777504  0.01005035  1
  O  O8  1  0.05473117  0.45893040  0.00998031  1
  O  O9  1  0.71778214  0.24829429  0.74725009  1
  O  O10  1  0.45536331  0.24835372  0.27349841  1
  O  O11  1  0.14319661  0.74835478  0.33698354  1
  O  O12  1  0.46992544  0.74829739  0.68334911  1
