# generated using pymatgen
data_Hg3(TeI)2
_symmetry_space_group_name_H-M   'P 1'
_cell_length_a   8.81569297
_cell_length_b   8.81569297
_cell_length_c   14.56507774
_cell_angle_alpha   82.62746710
_cell_angle_beta   82.62746710
_cell_angle_gamma   69.56611271
_symmetry_Int_Tables_number   1
_chemical_formula_structural   Hg3(TeI)2
_chemical_formula_sum   'Hg12 Te8 I8'
_cell_volume   1047.69302957
_cell_formula_units_Z   4
loop_
 _symmetry_equiv_pos_site_id
 _symmetry_equiv_pos_as_xyz
  1  'x, y, z'
loop_
 _atom_site_type_symbol
 _atom_site_label
 _atom_site_symmetry_multiplicity
 _atom_site_fract_x
 _atom_site_fract_y
 _atom_site_fract_z
 _atom_site_occupancy
  Hg  Hg0  1  0.12574057  0.11225417  0.83086814  1
  Hg  Hg1  1  0.88774583  0.87425943  0.66913186  1
  Hg  Hg2  1  0.87425943  0.88774583  0.16913186  1
  Hg  Hg3  1  0.11225417  0.12574057  0.33086814  1
  Hg  Hg4  1  0.30125081  0.75029089  0.51766710  1
  Hg  Hg5  1  0.24970911  0.69874919  0.98233290  1
  Hg  Hg6  1  0.69874919  0.24970911  0.48233290  1
  Hg  Hg7  1  0.75029089  0.30125081  0.01766710  1
  Hg  Hg8  1  0.00000000  0.50000000  0.50000000  1
  Hg  Hg9  1  0.50000000  -0.00000000  -0.00000000  1
  Hg  Hg10  1  0.67669143  0.32330857  0.75000000  1
  Hg  Hg11  1  0.32330857  0.67669143  0.25000000  1
  Te  Te12  1  0.87887895  0.39911235  0.84984978  1
  Te  Te13  1  0.60088765  0.12112105  0.65015022  1
  Te  Te14  1  0.12112105  0.60088765  0.15015022  1
  Te  Te15  1  0.39911235  0.87887895  0.34984978  1
  Te  Te16  1  0.41276562  0.87124399  0.86524542  1
  Te  Te17  1  0.12875601  0.58723438  0.63475458  1
  Te  Te18  1  0.58723438  0.12875601  0.13475458  1
  Te  Te19  1  0.87124399  0.41276562  0.36524542  1
  I  I20  1  0.61133565  0.64038690  0.61652365  1
  I  I21  1  0.35961310  0.38866435  0.88347635  1
  I  I22  1  0.38866435  0.35961310  0.38347635  1
  I  I23  1  0.64038690  0.61133565  0.11652365  1
  I  I24  1  0.09049983  0.13012326  0.11633318  1
  I  I25  1  0.86987674  0.90950017  0.38366682  1
  I  I26  1  0.90950017  0.86987674  0.88366682  1
  I  I27  1  0.13012326  0.09049983  0.61633318  1
