# generated using pymatgen
data_NdMnO3
_symmetry_space_group_name_H-M   'P 1'
_cell_length_a   5.43900702
_cell_length_b   5.59497621
_cell_length_c   7.74393852
_cell_angle_alpha   90.00000000
_cell_angle_beta   90.00000000
_cell_angle_gamma   90.00000000
_symmetry_Int_Tables_number   1
_chemical_formula_structural   NdMnO3
_chemical_formula_sum   'Nd4 Mn4 O12'
_cell_volume   235.65668275
_cell_formula_units_Z   4
loop_
 _symmetry_equiv_pos_site_id
 _symmetry_equiv_pos_as_xyz
  1  'x, y, z'
loop_
 _atom_site_type_symbol
 _atom_site_label
 _atom_site_symmetry_multiplicity
 _atom_site_fract_x
 _atom_site_fract_y
 _atom_site_fract_z
 _atom_site_occupancy
  Nd  Nd0  1  0.51170687  0.44827683  0.25000000  1
  Nd  Nd1  1  0.98829313  0.94827683  0.25000000  1
  Nd  Nd2  1  0.48829313  0.55172317  0.75000000  1
  Nd  Nd3  1  0.01170687  0.05172317  0.75000000  1
  Mn  Mn4  1  -0.00000000  0.50000000  -0.00000000  1
  Mn  Mn5  1  0.50000000  -0.00000000  0.50000000  1
  Mn  Mn6  1  -0.00000000  0.50000000  0.50000000  1
  Mn  Mn7  1  0.50000000  -0.00000000  -0.00000000  1
  O  O8  1  0.41779098  0.01923065  0.25000000  1
  O  O9  1  0.08220902  0.51923065  0.25000000  1
  O  O10  1  0.58220902  0.98076935  0.75000000  1
  O  O11  1  0.91779098  0.48076935  0.75000000  1
  O  O12  1  0.78819187  0.20533944  0.04383581  1
  O  O13  1  0.71180813  0.70533944  0.45616419  1
  O  O14  1  0.21180813  0.79466056  0.54383581  1
  O  O15  1  0.28819187  0.29466056  0.95616419  1
  O  O16  1  0.21180813  0.79466056  0.95616419  1
  O  O17  1  0.28819187  0.29466056  0.54383581  1
  O  O18  1  0.78819187  0.20533944  0.45616419  1
  O  O19  1  0.71180813  0.70533944  0.04383581  1
