# generated using pymatgen
data_Na7MgSbO6
_symmetry_space_group_name_H-M   'P 1'
_cell_length_a   6.54366143
_cell_length_b   6.57632018
_cell_length_c   7.27965747
_cell_angle_alpha   63.73571826
_cell_angle_beta   116.80468950
_cell_angle_gamma   120.34953787
_symmetry_Int_Tables_number   1
_chemical_formula_structural   Na7MgSbO6
_chemical_formula_sum   'Na7 Mg1 Sb1 O6'
_cell_volume   231.72885427
_cell_formula_units_Z   1
loop_
 _symmetry_equiv_pos_site_id
 _symmetry_equiv_pos_as_xyz
  1  'x, y, z'
loop_
 _atom_site_type_symbol
 _atom_site_label
 _atom_site_symmetry_multiplicity
 _atom_site_fract_x
 _atom_site_fract_y
 _atom_site_fract_z
 _atom_site_occupancy
  Na  Na0  1  0.92961918  0.84517472  0.62883526  1
  Na  Na1  1  0.48911925  0.87433029  0.33337841  1
  Na  Na2  1  0.71707800  0.50784029  0.33315732  1
  Na  Na3  1  0.31103120  0.68953414  0.93603675  1
  Na  Na4  1  0.54971915  0.07332557  0.63487693  1
  Na  Na5  1  0.15702537  0.45028229  0.63363793  1
  Na  Na6  1  0.12336759  0.28175428  0.32948959  1
  Mg  Mg7  1  0.60694086  0.40150375  0.81142941  1
  Sb  Sb8  1  0.01954986  0.97430161  0.06342050  1
  O  O9  1  0.80316384  0.92188299  0.22581862  1
  O  O10  1  0.56049340  0.70690229  0.72000786  1
  O  O11  1  0.86972507  0.44517274  0.72184086  1
  O  O12  1  0.06933984  0.64987164  0.22230339  1
  O  O13  1  0.34774983  0.18840732  0.22936565  1
  O  O14  1  0.29691055  0.13888008  0.71848351  1
