# generated using pymatgen
data_PICl6
_symmetry_space_group_name_H-M   'P 1'
_cell_length_a   5.68064054
_cell_length_b   9.55077568
_cell_length_c   9.55077568
_cell_angle_alpha   90.00000000
_cell_angle_beta   90.00000000
_cell_angle_gamma   90.00000000
_symmetry_Int_Tables_number   1
_chemical_formula_structural   PICl6
_chemical_formula_sum   'P2 I2 Cl12'
_cell_volume   518.17278373
_cell_formula_units_Z   2
loop_
 _symmetry_equiv_pos_site_id
 _symmetry_equiv_pos_as_xyz
  1  'x, y, z'
loop_
 _atom_site_type_symbol
 _atom_site_label
 _atom_site_symmetry_multiplicity
 _atom_site_fract_x
 _atom_site_fract_y
 _atom_site_fract_z
 _atom_site_occupancy
  P  P0  1  0.50000000  -0.00000000  0.00000000  1
  P  P1  1  0.50000000  0.50000000  0.50000000  1
  I  I2  1  0.14972257  -0.00000000  0.50000000  1
  I  I3  1  0.85027743  0.50000000  0.00000000  1
  Cl  Cl4  1  0.85253232  0.30979565  0.19020435  1
  Cl  Cl5  1  0.70426688  0.08380324  0.85915183  1
  Cl  Cl6  1  0.14746768  0.19020435  0.69020435  1
  Cl  Cl7  1  0.85253232  0.69020435  0.80979565  1
  Cl  Cl8  1  0.70426688  0.35915183  0.58380324  1
  Cl  Cl9  1  0.14746768  0.80979565  0.30979565  1
  Cl  Cl10  1  0.29573312  0.58380324  0.64084817  1
  Cl  Cl11  1  0.29573312  0.14084817  0.08380324  1
  Cl  Cl12  1  0.29573312  0.41619676  0.35915183  1
  Cl  Cl13  1  0.70426688  0.64084817  0.41619676  1
  Cl  Cl14  1  0.29573312  0.85915183  0.91619676  1
  Cl  Cl15  1  0.70426688  0.91619676  0.14084817  1
