# generated using pymatgen
data_Na5Mg3ZrP3(SO8)3
_symmetry_space_group_name_H-M   'P 1'
_cell_length_a   8.93838472
_cell_length_b   8.94633699
_cell_length_c   22.52755775
_cell_angle_alpha   90.07989501
_cell_angle_beta   89.86676111
_cell_angle_gamma   119.90399632
_symmetry_Int_Tables_number   1
_chemical_formula_structural   Na5Mg3ZrP3(SO8)3
_chemical_formula_sum   'Na15 Mg9 Zr3 P9 S9 O72'
_cell_volume   1561.59055131
_cell_formula_units_Z   3
loop_
 _symmetry_equiv_pos_site_id
 _symmetry_equiv_pos_as_xyz
  1  'x, y, z'
loop_
 _atom_site_type_symbol
 _atom_site_label
 _atom_site_symmetry_multiplicity
 _atom_site_fract_x
 _atom_site_fract_y
 _atom_site_fract_z
 _atom_site_occupancy
  Na  Na0  1  0.00135944  0.63560802  0.25579588  1
  Na  Na1  1  0.30166357  0.33965200  0.58919198  1
  Na  Na2  1  0.02555980  0.69142369  0.58132300  1
  Na  Na3  1  0.67194924  0.96296810  0.57994156  1
  Na  Na4  1  0.67013175  0.69918322  0.08246380  1
  Na  Na5  1  0.03418874  0.34099899  0.08591326  1
  Na  Na6  1  0.97885238  0.67872897  0.91129374  1
  Na  Na7  1  0.32490171  0.29583874  0.90562784  1
  Na  Na8  1  0.70203275  0.67877105  0.41644738  1
  Na  Na9  1  0.99748963  0.00369389  0.49409814  1
  Na  Na10  1  0.00079657  0.99368690  0.99474708  1
  Na  Na11  1  0.65618419  0.31889892  0.82111315  1
  Na  Na12  1  0.65514561  0.30253302  0.33150992  1
  Na  Na13  1  0.33605898  0.67952910  0.17186291  1
  Na  Na14  1  0.33221624  0.65204272  0.66470099  1
  Mg  Mg15  1  0.00222598  0.00532825  0.35259829  1
  Mg  Mg16  1  0.00005234  0.00689240  0.84817032  1
  Mg  Mg17  1  0.99944249  0.00621712  0.65255045  1
  Mg  Mg18  1  0.00461962  0.99428925  0.15337276  1
  Mg  Mg19  1  0.66615846  0.34199367  0.68544346  1
  Mg  Mg20  1  0.66624140  0.33093032  0.18651167  1
  Mg  Mg21  1  0.32745620  0.67259530  0.01504366  1
  Mg  Mg22  1  0.33242576  0.66742559  0.51252565  1
  Mg  Mg23  1  0.33575688  0.67377217  0.31984423  1
  Zr  Zr24  1  0.67003003  0.33408183  0.97943346  1
  Zr  Zr25  1  0.68209419  0.33504042  0.47888308  1
  Zr  Zr26  1  0.33581081  0.66373211  0.81227985  1
  P  P27  1  0.29845808  0.28854620  0.74966314  1
  P  P28  1  0.96386686  0.33422988  0.58720706  1
  P  P29  1  0.66502633  0.62878891  0.58414600  1
  P  P30  1  0.96534242  0.63141347  0.08661569  1
  P  P31  1  0.62965816  0.67512939  0.92057109  1
  P  P32  1  0.04443606  0.37038914  0.91925349  1
  P  P33  1  0.32845759  0.95701355  0.91703769  1
  P  P34  1  0.62762686  0.95562226  0.41648103  1
  P  P35  1  0.04475774  0.67540296  0.41512558  1
  S  S36  1  0.29537160  0.00169556  0.24998689  1
  S  S37  1  0.70117348  0.70344940  0.24908224  1
  S  S38  1  0.00166839  0.29456636  0.24818221  1
  S  S39  1  0.99582552  0.70607330  0.74997998  1
  S  S40  1  0.71000456  0.00590213  0.74874258  1
  S  S41  1  0.37325802  0.03918908  0.58512379  1
  S  S42  1  0.66489104  0.03672642  0.08637796  1
  S  S43  1  0.37000657  0.33130330  0.08538003  1
  S  S44  1  0.32910519  0.37211663  0.41660730  1
  O  O45  1  0.21182038  0.02383206  0.30298784  1
  O  O46  1  0.81312630  0.78803742  0.30137807  1
  O  O47  1  0.98349604  0.18703101  0.29974559  1
  O  O48  1  0.21146445  0.19015307  0.80714431  1
  O  O49  1  0.98005678  0.78883576  0.80475861  1
  O  O50  1  0.81086444  0.01926182  0.80172131  1
  O  O51  1  0.78240146  0.97663273  0.69379569  1
  O  O52  1  0.19093879  0.21061304  0.69328847  1
  O  O53  1  0.01826330  0.80904830  0.69616751  1
  O  O54  1  0.78162055  0.80612510  0.19397969  1
  O  O55  1  0.01884130  0.21502260  0.19202004  1
  O  O56  1  0.18779765  0.97513559  0.19626287  1
  O  O57  1  0.87375049  0.36292506  0.63941202  1
  O  O58  1  0.48290963  0.12002549  0.63695784  1
  O  O59  1  0.63201491  0.50773174  0.63598379  1
  O  O60  1  0.87460100  0.51396952  0.13996541  1
  O  O61  1  0.64154441  0.12112315  0.13798950  1
  O  O62  1  0.48259785  0.35322716  0.13558758  1
  O  O63  1  0.44807724  0.30700005  0.02916039  1
  O  O64  1  0.84645707  0.53750633  0.02978053  1
  O  O65  1  0.68865677  0.14495590  0.03179672  1
  O  O66  1  0.45348367  0.14878376  0.53110260  1
  O  O67  1  0.69213344  0.54378605  0.52621343  1
  O  O68  1  0.84664078  0.30427514  0.53041648  1
  O  O69  1  0.54978978  0.69281936  0.97803633  1
  O  O70  1  0.14749726  0.44827148  0.97623591  1
  O  O71  1  0.30057046  0.84758167  0.97179814  1
  O  O72  1  0.55111440  0.85270015  0.47460400  1
  O  O73  1  0.30881055  0.44746692  0.47245696  1
  O  O74  1  0.14192428  0.68866794  0.47255124  1
  O  O75  1  0.11973759  0.64317709  0.35869877  1
  O  O76  1  0.51656019  0.87014349  0.36242468  1
  O  O77  1  0.36007025  0.48501060  0.36513923  1
  O  O78  1  0.13044940  0.49477929  0.86567160  1
  O  O79  1  0.35923727  0.87428935  0.86143056  1
  O  O80  1  0.50792500  0.63906268  0.86671531  1
  O  O81  1  0.01213360  0.82904410  0.41036333  1
  O  O82  1  0.81097626  0.97926053  0.41010608  1
  O  O83  1  0.17919246  0.19898282  0.40967456  1
  O  O84  1  0.02284542  0.19236312  0.91050799  1
  O  O85  1  0.16994216  0.98121833  0.91032944  1
  O  O86  1  0.81308661  0.82251140  0.91123527  1
  O  O87  1  0.98169791  0.17087945  0.58974433  1
  O  O88  1  0.19817810  0.01978530  0.59021456  1
  O  O89  1  0.83164885  0.80761317  0.58955408  1
  O  O90  1  0.97166330  0.80674787  0.08961950  1
  O  O91  1  0.82687612  0.02601380  0.08964328  1
  O  O92  1  0.19370107  0.18156819  0.09014801  1
  O  O93  1  0.68808955  0.15787719  0.74436552  1
  O  O94  1  0.48097432  0.31381395  0.74543049  1
  O  O95  1  0.84533412  0.53114124  0.74617925  1
  O  O96  1  0.69139902  0.53090565  0.24367169  1
  O  O97  1  0.84508837  0.31649154  0.24525398  1
  O  O98  1  0.46969287  0.15515493  0.24332984  1
  O  O99  1  0.64158948  0.50217766  0.92408975  1
  O  O100  1  0.86288535  0.35939956  0.92370667  1
  O  O101  1  0.49011198  0.14361867  0.92348124  1
  O  O102  1  0.64420126  0.13981717  0.42234864  1
  O  O103  1  0.49188894  0.35799104  0.42171174  1
  O  O104  1  0.85308184  0.50948914  0.42049478  1
  O  O105  1  0.35849760  0.49191993  0.08041988  1
  O  O106  1  0.14127568  0.64201404  0.07902720  1
  O  O107  1  0.51595386  0.86113999  0.07984975  1
  O  O108  1  0.35417556  0.86494838  0.57793162  1
  O  O109  1  0.50471342  0.65133601  0.57749444  1
  O  O110  1  0.14354155  0.49642497  0.57841380  1
  O  O111  1  0.30862336  0.84098158  0.25438835  1
  O  O112  1  0.52710034  0.68157107  0.25493944  1
  O  O113  1  0.15598381  0.47187859  0.25268508  1
  O  O114  1  0.31638109  0.47628968  0.75584877  1
  O  O115  1  0.15742677  0.69043869  0.75425712  1
  O  O116  1  0.53165765  0.84613571  0.75457627  1
