# generated using pymatgen
data_Na3CaGe(PO4)3
_symmetry_space_group_name_H-M   'P 1'
_cell_length_a   9.09441515
_cell_length_b   9.10525676
_cell_length_c   21.72146633
_cell_angle_alpha   89.99999999
_cell_angle_beta   89.97048295
_cell_angle_gamma   120.03944512
_symmetry_Int_Tables_number   1
_chemical_formula_structural   Na3CaGe(PO4)3
_chemical_formula_sum   'Na18 Ca6 Ge6 P18 O72'
_cell_volume   1557.09068962
_cell_formula_units_Z   6
loop_
 _symmetry_equiv_pos_site_id
 _symmetry_equiv_pos_as_xyz
  1  'x, y, z'
loop_
 _atom_site_type_symbol
 _atom_site_label
 _atom_site_symmetry_multiplicity
 _atom_site_fract_x
 _atom_site_fract_y
 _atom_site_fract_z
 _atom_site_occupancy
  Na  Na0  1  0.98026226  0.95960938  0.49802087  1
  Na  Na1  1  0.98026226  0.02065288  0.99802087  1
  Na  Na2  1  0.66693965  0.33994064  0.83161997  1
  Na  Na3  1  0.66693965  0.32699802  0.33161997  1
  Na  Na4  1  0.32818480  0.66458370  0.16512111  1
  Na  Na5  1  0.32818480  0.66360210  0.66512111  1
  Na  Na6  1  0.36349134  0.34636092  0.24639531  1
  Na  Na7  1  0.98465492  0.64629109  0.24730958  1
  Na  Na8  1  0.98465492  0.33836383  0.74730958  1
  Na  Na9  1  0.36349134  0.01713041  0.74639531  1
  Na  Na10  1  0.32376812  0.34567908  0.58051027  1
  Na  Na11  1  0.65213683  0.97112896  0.58011678  1
  Na  Na12  1  0.32376812  0.97808803  0.08051027  1
  Na  Na13  1  0.65213683  0.68100687  0.08011678  1
  Na  Na14  1  0.99212153  0.68259262  0.91418739  1
  Na  Na15  1  0.31671308  0.30066992  0.91374002  1
  Na  Na16  1  0.99212153  0.30952992  0.41418739  1
  Na  Na17  1  0.31671308  0.01604416  0.41374002  1
  Ca  Ca18  1  0.98977963  0.99734225  0.35305206  1
  Ca  Ca19  1  0.98977963  0.99243738  0.85305206  1
  Ca  Ca20  1  0.67249146  0.34427120  0.68676091  1
  Ca  Ca21  1  0.67249146  0.32821927  0.18676091  1
  Ca  Ca22  1  0.32919539  0.66143112  0.02030001  1
  Ca  Ca23  1  0.32919539  0.66776527  0.52030001  1
  Ge  Ge24  1  0.99288035  0.98959468  0.64752413  1
  Ge  Ge25  1  0.99288035  0.00328567  0.14752413  1
  Ge  Ge26  1  0.67120313  0.32350815  0.98036723  1
  Ge  Ge27  1  0.67120313  0.34769398  0.48036723  1
  Ge  Ge28  1  0.34127751  0.67244354  0.31422435  1
  Ge  Ge29  1  0.34127751  0.66883497  0.81422435  1
  P  P30  1  0.28498670  0.97805484  0.25270887  1
  P  P31  1  0.69124734  0.71693279  0.24749134  1
  P  P32  1  0.02622890  0.31208157  0.25396419  1
  P  P33  1  0.28498670  0.30693186  0.75270887  1
  P  P34  1  0.02622890  0.71414734  0.75396419  1
  P  P35  1  0.69124734  0.97431455  0.74749134  1
  P  P36  1  0.95454484  0.30855338  0.58535069  1
  P  P37  1  0.35766172  0.04948182  0.58642319  1
  P  P38  1  0.69049754  0.63961011  0.58269850  1
  P  P39  1  0.95454484  0.64599046  0.08535069  1
  P  P40  1  0.69049754  0.05088643  0.08269850  1
  P  P41  1  0.35766172  0.30817890  0.08642319  1
  P  P42  1  0.61773176  0.64016429  0.92102413  1
  P  P43  1  0.02578451  0.38063569  0.91476060  1
  P  P44  1  0.36083864  0.97600172  0.91778041  1
  P  P45  1  0.61773176  0.97756847  0.42102413  1
  P  P46  1  0.36083864  0.38483792  0.41778041  1
  P  P47  1  0.02578451  0.64514982  0.41476060  1
  O  O48  1  0.20861542  0.99185996  0.31260358  1
  O  O49  1  0.80648298  0.79012609  0.30135517  1
  O  O50  1  0.01330140  0.23156657  0.31566439  1
  O  O51  1  0.20861542  0.21675546  0.81260358  1
  O  O52  1  0.01330140  0.78173482  0.81566439  1
  O  O53  1  0.80648298  0.01635689  0.80135517  1
  O  O54  1  0.77819979  0.95383403  0.68569244  1
  O  O55  1  0.16129870  0.21139254  0.69499004  1
  O  O56  1  0.04374762  0.84056833  0.69928744  1
  O  O57  1  0.77819979  0.82436576  0.18569244  1
  O  O58  1  0.04374762  0.20317929  0.19928744  1
  O  O59  1  0.16129870  0.94990616  0.19499004  1
  O  O60  1  0.87934408  0.31910206  0.64576133  1
  O  O61  1  0.44937613  0.12599668  0.64577279  1
  O  O62  1  0.64867629  0.53239370  0.63885953  1
  O  O63  1  0.87934408  0.56024102  0.14576133  1
  O  O64  1  0.64867629  0.11628158  0.13885953  1
  O  O65  1  0.44937613  0.32337845  0.14577279  1
  O  O66  1  0.45144863  0.27789644  0.02868889  1
  O  O67  1  0.83810864  0.54321756  0.02736807  1
  O  O68  1  0.71294910  0.16500210  0.02303437  1
  O  O69  1  0.45144863  0.17355119  0.52868889  1
  O  O70  1  0.71294910  0.54794600  0.52303437  1
  O  O71  1  0.83810864  0.29489008  0.52736807  1
  O  O72  1  0.54927076  0.65397180  0.98209319  1
  O  O73  1  0.12986243  0.46308245  0.97076338  1
  O  O74  1  0.33413417  0.88078061  0.97724629  1
  O  O75  1  0.54927076  0.89529996  0.48209319  1
  O  O76  1  0.33413417  0.45335456  0.47724629  1
  O  O77  1  0.12986243  0.66678097  0.47076338  1
  O  O78  1  0.11472916  0.61863497  0.35453150  1
  O  O79  1  0.49067946  0.87200255  0.36566226  1
  O  O80  1  0.37508018  0.49737951  0.35877335  1
  O  O81  1  0.11472916  0.49609519  0.85453150  1
  O  O82  1  0.37508018  0.87770167  0.85877335  1
  O  O83  1  0.49067946  0.61867792  0.86566226  1
  O  O84  1  0.99450611  0.79334415  0.41036891  1
  O  O85  1  0.80034427  0.01772719  0.41312856  1
  O  O86  1  0.21296606  0.20225528  0.41088441  1
  O  O87  1  0.99450611  0.20116196  0.91036891  1
  O  O88  1  0.21296606  0.01071078  0.91088441  1
  O  O89  1  0.80034427  0.78261707  0.91312856  1
  O  O90  1  0.95156043  0.13017118  0.58363776  1
  O  O91  1  0.17897266  0.04426984  0.58804331  1
  O  O92  1  0.86556256  0.81224081  0.58795786  1
  O  O93  1  0.95156043  0.82138925  0.08363776  1
  O  O94  1  0.86556256  0.05332174  0.08795786  1
  O  O95  1  0.17897266  0.13470282  0.08804331  1
  O  O96  1  0.64879819  0.11676202  0.74095458  1
  O  O97  1  0.46079782  0.32818351  0.74678546  1
  O  O98  1  0.88519575  0.53107845  0.74673797  1
  O  O99  1  0.64879819  0.53203517  0.24095458  1
  O  O100  1  0.88519575  0.35411630  0.24673797  1
  O  O101  1  0.46079782  0.13261331  0.24678546  1
  O  O102  1  0.61696776  0.46311023  0.92018941  1
  O  O103  1  0.85148475  0.38381038  0.91856969  1
  O  O104  1  0.53245937  0.15344441  0.91924406  1
  O  O105  1  0.61696776  0.15385653  0.42018941  1
  O  O106  1  0.53245937  0.37901396  0.41924406  1
  O  O107  1  0.85148475  0.46767337  0.41856969  1
  O  O108  1  0.33530625  0.46172299  0.07977540  1
  O  O109  1  0.13891106  0.68877744  0.08026196  1
  O  O110  1  0.54875963  0.86665868  0.07462020  1
  O  O111  1  0.33530625  0.87358425  0.57977540  1
  O  O112  1  0.54875963  0.68210194  0.57462020  1
  O  O113  1  0.13891106  0.45013462  0.58026196  1
  O  O114  1  0.28935909  0.80448837  0.25313820  1
  O  O115  1  0.51786575  0.71767034  0.25428321  1
  O  O116  1  0.20495563  0.48696008  0.25181915  1
  O  O117  1  0.28935909  0.48487172  0.75313820  1
  O  O118  1  0.20495563  0.71799655  0.75181915  1
  O  O119  1  0.51786575  0.80019640  0.75428321  1
