# generated using pymatgen
data_Na30Ca4Ta20Si33(SO48)3
_symmetry_space_group_name_H-M   'P 1'
_cell_length_a   18.16884169
_cell_length_b   9.07727285
_cell_length_c   22.66945992
_cell_angle_alpha   89.93190336
_cell_angle_beta   90.14715530
_cell_angle_gamma   119.97630323
_symmetry_Int_Tables_number   1
_chemical_formula_structural   Na30Ca4Ta20Si33(SO48)3
_chemical_formula_sum   'Na30 Ca4 Ta20 Si33 S3 O144'
_cell_volume   3238.59509946
_cell_formula_units_Z   1
loop_
 _symmetry_equiv_pos_site_id
 _symmetry_equiv_pos_as_xyz
  1  'x, y, z'
loop_
 _atom_site_type_symbol
 _atom_site_label
 _atom_site_symmetry_multiplicity
 _atom_site_fract_x
 _atom_site_fract_y
 _atom_site_fract_z
 _atom_site_occupancy
  Na  Na0  1  0.31556007  0.97828420  0.25579046  1
  Na  Na1  1  0.18361569  0.38626042  0.25773016  1
  Na  Na2  1  0.67990153  0.38450303  0.25279622  1
  Na  Na3  1  0.50402892  0.63955467  0.26226982  1
  Na  Na4  1  0.31555636  0.64336955  0.75783034  1
  Na  Na5  1  0.00162584  0.38786710  0.75565397  1
  Na  Na6  1  0.18636442  0.98063288  0.75434574  1
  Na  Na7  1  0.65084717  0.33212774  0.58447952  1
  Na  Na8  1  0.64482235  0.96872687  0.08326281  1
  Na  Na9  1  0.33895640  0.71776289  0.08949670  1
  Na  Na10  1  0.51936937  0.31716361  0.08890082  1
  Na  Na11  1  0.98935123  0.65656022  0.91391970  1
  Na  Na12  1  0.34419552  0.02878626  0.91549107  1
  Na  Na13  1  0.66572499  0.29635862  0.91582165  1
  Na  Na14  1  0.48941446  0.32412936  0.41473667  1
  Na  Na15  1  0.99210688  0.32867632  0.41454840  1
  Na  Na16  1  0.33769893  0.65628060  0.41506122  1
  Na  Na17  1  0.83960434  0.65289334  0.41430962  1
  Na  Na18  1  0.01217540  0.00739400  0.50095276  1
  Na  Na19  1  0.50103352  0.98583423  0.50284039  1
  Na  Na20  1  0.00742691  0.01944266  0.00129743  1
  Na  Na21  1  0.49766223  0.98947929  0.00365935  1
  Na  Na22  1  0.34027928  0.34962406  0.83799409  1
  Na  Na23  1  0.82861700  0.31945815  0.83103176  1
  Na  Na24  1  0.32753872  0.32156637  0.33781736  1
  Na  Na25  1  0.83491654  0.32069652  0.33359555  1
  Na  Na26  1  0.15555877  0.64929815  0.16996390  1
  Na  Na27  1  0.67573143  0.66655411  0.17199940  1
  Na  Na28  1  0.16742140  0.68311981  0.66434219  1
  Na  Na29  1  0.66825789  0.67841264  0.66724258  1
  Ca  Ca30  1  0.50014861  0.00285851  0.14511135  1
  Ca  Ca31  1  0.15994708  0.66091861  0.31778397  1
  Ca  Ca32  1  0.67276639  0.67352985  0.31891197  1
  Ca  Ca33  1  0.16786657  0.67064110  0.81762929  1
  Ta  Ta34  1  0.99202065  0.99479325  0.35720145  1
  Ta  Ta35  1  0.49334229  0.99771528  0.35533645  1
  Ta  Ta36  1  0.99238468  0.98951874  0.85749752  1
  Ta  Ta37  1  0.49911384  0.99690767  0.85479192  1
  Ta  Ta38  1  0.99205977  0.98768100  0.64071605  1
  Ta  Ta39  1  0.50084038  0.99678906  0.64536989  1
  Ta  Ta40  1  0.99350273  0.99651390  0.14029481  1
  Ta  Ta41  1  0.34184665  0.33621290  0.68414096  1
  Ta  Ta42  1  0.82994420  0.33051888  0.68974443  1
  Ta  Ta43  1  0.33787221  0.33859584  0.18444387  1
  Ta  Ta44  1  0.84225743  0.34710754  0.18577722  1
  Ta  Ta45  1  0.32999402  0.33609479  0.97986889  1
  Ta  Ta46  1  0.83493480  0.32813010  0.97878848  1
  Ta  Ta47  1  0.33114201  0.33057480  0.48459892  1
  Ta  Ta48  1  0.83325258  0.33130492  0.48479807  1
  Ta  Ta49  1  0.16402411  0.66413904  0.01833356  1
  Ta  Ta50  1  0.66989061  0.66661353  0.02118282  1
  Ta  Ta51  1  0.16512572  0.66632958  0.52119602  1
  Ta  Ta52  1  0.66646002  0.67044418  0.51905876  1
  Ta  Ta53  1  0.66498430  0.66366843  0.81026547  1
  Si  Si54  1  0.35139656  0.69849098  0.24651453  1
  Si  Si55  1  0.85788938  0.70705909  0.24765169  1
  Si  Si56  1  0.99511711  0.27996722  0.24759581  1
  Si  Si57  1  0.49813262  0.29772756  0.24699024  1
  Si  Si58  1  0.64396154  0.28747599  0.74983335  1
  Si  Si59  1  0.99605766  0.70987653  0.74813525  1
  Si  Si60  1  0.50008313  0.71106950  0.75011437  1
  Si  Si61  1  0.35908612  0.00950410  0.74859934  1
  Si  Si62  1  0.85472844  0.99900127  0.74944007  1
  Si  Si63  1  0.48276019  0.33431462  0.58159143  1
  Si  Si64  1  0.98027962  0.34096530  0.58760568  1
  Si  Si65  1  0.18783263  0.04004543  0.58686242  1
  Si  Si66  1  0.68928659  0.03765577  0.58600175  1
  Si  Si67  1  0.33140338  0.62361461  0.58549610  1
  Si  Si68  1  0.83036758  0.61962910  0.58412675  1
  Si  Si69  1  0.48243484  0.61849758  0.08125230  1
  Si  Si70  1  0.98023972  0.62537375  0.07945082  1
  Si  Si71  1  0.32681887  0.03803499  0.07990223  1
  Si  Si72  1  0.83043387  0.04406691  0.08485552  1
  Si  Si73  1  0.18766831  0.33476573  0.08444112  1
  Si  Si74  1  0.69490804  0.34415868  0.08230847  1
  Si  Si75  1  0.31497172  0.66830934  0.91498597  1
  Si  Si76  1  0.80820807  0.66136811  0.91538914  1
  Si  Si77  1  0.01964395  0.36848662  0.91390534  1
  Si  Si78  1  0.52139276  0.38066065  0.91641870  1
  Si  Si79  1  0.16679076  0.96654315  0.91434620  1
  Si  Si80  1  0.66628793  0.95037731  0.91639627  1
  Si  Si81  1  0.30931009  0.96442278  0.41465187  1
  Si  Si82  1  0.81225536  0.96776112  0.41758596  1
  Si  Si83  1  0.16697166  0.36833834  0.41667013  1
  Si  Si84  1  0.66768658  0.36538469  0.41639570  1
  Si  Si85  1  0.01794332  0.66540597  0.41848018  1
  Si  Si86  1  0.51718398  0.66696301  0.41618446  1
  S  S87  1  0.14173079  0.00622798  0.24707517  1
  S  S88  1  0.64983513  0.01282726  0.25032667  1
  S  S89  1  0.14232098  0.27597528  0.74840378  1
  O  O90  1  0.09902263  0.02137561  0.30099122  1
  O  O91  1  0.59986255  0.02769760  0.30079960  1
  O  O92  1  0.41562479  0.80482379  0.30558906  1
  O  O93  1  0.91260928  0.80467669  0.30882660  1
  O  O94  1  0.48823538  0.16854843  0.30543404  1
  O  O95  1  0.98851749  0.16727148  0.30827416  1
  O  O96  1  0.10137073  0.17601166  0.80266734  1
  O  O97  1  0.59592669  0.16941712  0.80822381  1
  O  O98  1  0.48382302  0.80633776  0.80640983  1
  O  O99  1  0.99124033  0.80989721  0.80870046  1
  O  O100  1  0.41301459  0.02456776  0.80971486  1
  O  O101  1  0.91882857  0.02677363  0.80602085  1
  O  O102  1  0.41543597  0.99914261  0.69370556  1
  O  O103  1  0.90468854  0.98374854  0.69185157  1
  O  O104  1  0.09149711  0.19042437  0.69570006  1
  O  O105  1  0.59016661  0.19784262  0.68951985  1
  O  O106  1  0.00371410  0.83538721  0.69341677  1
  O  O107  1  0.51237616  0.83031816  0.69252087  1
  O  O108  1  0.39458068  0.79157969  0.18671822  1
  O  O109  1  0.91627752  0.82108674  0.19181729  1
  O  O110  1  0.00061069  0.16695612  0.19255180  1
  O  O111  1  0.51427260  0.22597182  0.18755383  1
  O  O112  1  0.09391082  0.99651054  0.19308229  1
  O  O113  1  0.60646142  0.99549481  0.19375965  1
  O  O114  1  0.43303636  0.35810587  0.63979970  1
  O  O115  1  0.93223177  0.36211987  0.64579197  1
  O  O116  1  0.24815050  0.13791830  0.64563260  1
  O  O117  1  0.74832056  0.13325783  0.64408221  1
  O  O118  1  0.32083970  0.50373646  0.64419750  1
  O  O119  1  0.81700256  0.49489982  0.64046258  1
  O  O120  1  0.43431030  0.50358836  0.14285945  1
  O  O121  1  0.93157268  0.50127283  0.13747439  1
  O  O122  1  0.31964353  0.13825519  0.14068972  1
  O  O123  1  0.81636918  0.13891386  0.14104465  1
  O  O124  1  0.24993456  0.36420581  0.14291558  1
  O  O125  1  0.74936343  0.35789491  0.14298454  1
  O  O126  1  0.23763012  0.31561294  0.02816791  1
  O  O127  1  0.74639786  0.32998377  0.02498094  1
  O  O128  1  0.41872352  0.50478769  0.02920450  1
  O  O129  1  0.92177829  0.53455060  0.02106597  1
  O  O130  1  0.33532844  0.15620556  0.02345818  1
  O  O131  1  0.84329245  0.16343424  0.02729264  1
  O  O132  1  0.23927804  0.16509894  0.53181781  1
  O  O133  1  0.73778091  0.16627248  0.53128297  1
  O  O134  1  0.34525391  0.52865084  0.52907243  1
  O  O135  1  0.84394454  0.53229561  0.52640779  1
  O  O136  1  0.42342171  0.31381086  0.52551204  1
  O  O137  1  0.92044601  0.31357799  0.53018722  1
  O  O138  1  0.26281212  0.69866279  0.96963456  1
  O  O139  1  0.76443856  0.69149563  0.97383172  1
  O  O140  1  0.08406927  0.47346427  0.96908847  1
  O  O141  1  0.58384937  0.47240305  0.97451305  1
  O  O142  1  0.14995023  0.82644161  0.96753293  1
  O  O143  1  0.65420012  0.83744936  0.97646039  1
  O  O144  1  0.26067614  0.82677254  0.46835940  1
  O  O145  1  0.76439180  0.83064473  0.47253585  1
  O  O146  1  0.14935663  0.47218602  0.47015295  1
  O  O147  1  0.65083774  0.46694276  0.47203522  1
  O  O148  1  0.08224886  0.69493886  0.47462318  1
  O  O149  1  0.58315880  0.68959131  0.47123982  1
  O  O150  1  0.04117366  0.59234058  0.36247090  1
  O  O151  1  0.54333074  0.60984821  0.35739154  1
  O  O152  1  0.26652191  0.91402796  0.35146963  1
  O  O153  1  0.76462438  0.91365048  0.35739433  1
  O  O154  1  0.19647451  0.47529404  0.35696898  1
  O  O155  1  0.69651746  0.47383215  0.35693204  1
  O  O156  1  0.04372072  0.47296854  0.85356116  1
  O  O157  1  0.57029971  0.50080276  0.85959518  1
  O  O158  1  0.19303414  0.91608344  0.85373943  1
  O  O159  1  0.67970044  0.85541358  0.85999119  1
  O  O160  1  0.26984565  0.62935554  0.85220924  1
  O  O161  1  0.74692238  0.63167055  0.85933946  1
  O  O162  1  0.00977574  0.83798775  0.40952299  1
  O  O163  1  0.50852110  0.83930657  0.40984540  1
  O  O164  1  0.40583902  0.97429494  0.41007662  1
  O  O165  1  0.90721044  0.97381443  0.41341614  1
  O  O166  1  0.07842856  0.18271549  0.40945729  1
  O  O167  1  0.57731378  0.18293482  0.40897333  1
  O  O168  1  0.01184408  0.18017131  0.90941282  1
  O  O169  1  0.51670928  0.19425766  0.90973042  1
  O  O170  1  0.07672003  0.97016489  0.91022158  1
  O  O171  1  0.58376749  0.97867341  0.90826557  1
  O  O172  1  0.40802130  0.85126176  0.91282370  1
  O  O173  1  0.90437173  0.82818542  0.90884992  1
  O  O174  1  0.49523014  0.16874168  0.58813342  1
  O  O175  1  0.99159750  0.17208714  0.59437069  1
  O  O176  1  0.09368168  0.02285552  0.59345428  1
  O  O177  1  0.59653050  0.02766194  0.59008951  1
  O  O178  1  0.41683425  0.81249400  0.59257651  1
  O  O179  1  0.91423409  0.81146119  0.58905724  1
  O  O180  1  0.49434300  0.80376814  0.07967364  1
  O  O181  1  0.99170624  0.81437617  0.08847248  1
  O  O182  1  0.41043901  0.02101738  0.07819687  1
  O  O183  1  0.91330456  0.01719768  0.08895635  1
  O  O184  1  0.09378292  0.16657791  0.09202391  1
  O  O185  1  0.60304531  0.17756317  0.07758598  1
  O  O186  1  0.34729146  0.18026689  0.74418108  1
  O  O187  1  0.85102813  0.17636275  0.74583111  1
  O  O188  1  0.22865753  0.29168582  0.74625368  1
  O  O189  1  0.73837098  0.30444182  0.74479040  1
  O  O190  1  0.41010171  0.52567570  0.74391493  1
  O  O191  1  0.91003152  0.52044018  0.74486001  1
  O  O192  1  0.34634177  0.50685363  0.24779912  1
  O  O193  1  0.85060556  0.51605620  0.24428060  1
  O  O194  1  0.40195778  0.28624924  0.24646516  1
  O  O195  1  0.90723497  0.28986556  0.24209249  1
  O  O196  1  0.22687803  0.16976878  0.24573302  1
  O  O197  1  0.73297488  0.17782360  0.25078848  1
  O  O198  1  0.33228171  0.51235115  0.93001030  1
  O  O199  1  0.82148902  0.49538384  0.92024307  1
  O  O200  1  0.42378385  0.34215062  0.92272483  1
  O  O201  1  0.92543690  0.34694667  0.92820287  1
  O  O202  1  0.24750357  0.15570399  0.92776310  1
  O  O203  1  0.74797810  0.14615904  0.92384154  1
  O  O204  1  0.33452923  0.16139642  0.42929185  1
  O  O205  1  0.83936113  0.16522793  0.43141347  1
  O  O206  1  0.24758659  0.34043459  0.43255744  1
  O  O207  1  0.74728359  0.33617822  0.43250496  1
  O  O208  1  0.42038558  0.50878776  0.43081141  1
  O  O209  1  0.92006371  0.51038829  0.43292664  1
  O  O210  1  0.18439873  0.51063627  0.07548084  1
  O  O211  1  0.68497694  0.51460377  0.07734993  1
  O  O212  1  0.07170227  0.63512227  0.07340946  1
  O  O213  1  0.57418066  0.62482795  0.07870132  1
  O  O214  1  0.24217955  0.84798824  0.07525102  1
  O  O215  1  0.74367301  0.86007167  0.07715263  1
  O  O216  1  0.18045772  0.85549344  0.57673998  1
  O  O217  1  0.67879250  0.85050156  0.57544933  1
  O  O218  1  0.24760487  0.64219487  0.57561265  1
  O  O219  1  0.74439931  0.63274271  0.57687308  1
  O  O220  1  0.07436308  0.50758437  0.57737402  1
  O  O221  1  0.57704794  0.50211212  0.57729563  1
  O  O222  1  0.15602501  0.86247317  0.24827778  1
  O  O223  1  0.65931857  0.86460522  0.25670590  1
  O  O224  1  0.25998198  0.68240605  0.25108647  1
  O  O225  1  0.76458894  0.67860850  0.24459897  1
  O  O226  1  0.07978165  0.45916730  0.24576801  1
  O  O227  1  0.57435934  0.48911342  0.25316271  1
  O  O228  1  0.15218283  0.44712023  0.75007328  1
  O  O229  1  0.65335420  0.47649892  0.75723433  1
  O  O230  1  0.07924933  0.69099128  0.74543253  1
  O  O231  1  0.58274737  0.68799126  0.75723485  1
  O  O232  1  0.26793885  0.83989709  0.74430164  1
  O  O233  1  0.76150823  0.83042141  0.75765240  1
