# generated using pymatgen
data_NaYScP(SO6)2
_symmetry_space_group_name_H-M   'P 1'
_cell_length_a   8.98024795
_cell_length_b   8.98343988
_cell_length_c   23.54495253
_cell_angle_alpha   89.99113837
_cell_angle_beta   89.87568331
_cell_angle_gamma   120.00116086
_symmetry_Int_Tables_number   1
_chemical_formula_structural   NaYScP(SO6)2
_chemical_formula_sum   'Na6 Y6 Sc6 P6 S12 O72'
_cell_volume   1644.95074149
_cell_formula_units_Z   6
loop_
 _symmetry_equiv_pos_site_id
 _symmetry_equiv_pos_as_xyz
  1  'x, y, z'
loop_
 _atom_site_type_symbol
 _atom_site_label
 _atom_site_symmetry_multiplicity
 _atom_site_fract_x
 _atom_site_fract_y
 _atom_site_fract_z
 _atom_site_occupancy
  Na  Na0  1  0.98322660  0.98985080  0.49931015  1
  Na  Na1  1  0.00834340  0.98470792  0.99959926  1
  Na  Na2  1  0.65598827  0.30866625  0.83036994  1
  Na  Na3  1  0.65249403  0.31042450  0.33592243  1
  Na  Na4  1  0.31768672  0.67415227  0.16482829  1
  Na  Na5  1  0.35104565  0.67298849  0.66360126  1
  Y  Y6  1  0.99797873  0.00035204  0.85063834  1
  Y  Y7  1  0.00561130  0.99375338  0.14803887  1
  Y  Y8  1  0.66643518  0.33311665  0.18607374  1
  Y  Y9  1  0.66679343  0.33295292  0.98103968  1
  Y  Y10  1  0.33848762  0.68018672  0.31873938  1
  Y  Y11  1  0.34060608  0.67980602  0.81056293  1
  Sc  Sc12  1  0.00316997  0.00082776  0.35415751  1
  Sc  Sc13  1  0.98455965  0.99175492  0.64550172  1
  Sc  Sc14  1  0.66511290  0.33280396  0.68153695  1
  Sc  Sc15  1  0.66826315  0.33462774  0.48425316  1
  Sc  Sc16  1  0.32375205  0.67479309  0.01745445  1
  Sc  Sc17  1  0.35388920  0.67561894  0.51832001  1
  P  P18  1  0.29496074  0.00401307  0.25365107  1
  P  P19  1  0.70987488  0.01012770  0.74566820  1
  P  P20  1  0.66612163  0.62213427  0.58297494  1
  P  P21  1  0.96944921  0.62963753  0.08222924  1
  P  P22  1  0.32970627  0.96119100  0.91707264  1
  P  P23  1  0.63807909  0.97068519  0.41969825  1
  S  S24  1  0.70844528  0.70770473  0.25323208  1
  S  S25  1  0.00048443  0.29101176  0.25285835  1
  S  S26  1  0.29583879  0.28945537  0.74505996  1
  S  S27  1  0.99141197  0.70120994  0.74541442  1
  S  S28  1  0.96216037  0.33654990  0.58283746  1
  S  S29  1  0.37289028  0.03985746  0.58306520  1
  S  S30  1  0.66071414  0.02712972  0.08245890  1
  S  S31  1  0.36851344  0.34378800  0.08205291  1
  S  S32  1  0.62318412  0.66841044  0.91822008  1
  S  S33  1  0.04581557  0.37604432  0.91700429  1
  S  S34  1  0.33419610  0.36964248  0.41936681  1
  S  S35  1  0.03561194  0.66586997  0.42062834  1
  O  O36  1  0.19359336  0.01238714  0.30603337  1
  O  O37  1  0.81136010  0.80013915  0.30370073  1
  O  O38  1  0.98454271  0.18511436  0.30338118  1
  O  O39  1  0.22143701  0.19238904  0.79841571  1
  O  O40  1  0.97215114  0.77766937  0.79855399  1
  O  O41  1  0.80914421  0.03002698  0.80104228  1
  O  O42  1  0.80787827  0.99071096  0.69445478  1
  O  O43  1  0.18756345  0.19732354  0.69570016  1
  O  O44  1  0.01462759  0.81274305  0.69603733  1
  O  O45  1  0.78482283  0.80489559  0.20054696  1
  O  O46  1  0.01282580  0.21040879  0.20004543  1
  O  O47  1  0.19824366  0.99048058  0.19845137  1
  O  O48  1  0.87917070  0.35873780  0.63401042  1
  O  O49  1  0.47992848  0.11890499  0.63410581  1
  O  O50  1  0.64046506  0.51093791  0.63597357  1
  O  O51  1  0.88216946  0.52583903  0.13647098  1
  O  O52  1  0.63694628  0.10785101  0.13406664  1
  O  O53  1  0.46865820  0.35987475  0.13399682  1
  O  O54  1  0.44958027  0.31604871  0.03179518  1
  O  O55  1  0.86186354  0.54005518  0.02969336  1
  O  O56  1  0.68067359  0.13109974  0.03177161  1
  O  O57  1  0.45596065  0.14638925  0.53210333  1
  O  O58  1  0.69025666  0.53478439  0.53025123  1
  O  O59  1  0.85342164  0.30810255  0.53210731  1
  O  O60  1  0.53187615  0.67743938  0.96912782  1
  O  O61  1  0.14656951  0.46444743  0.96825211  1
  O  O62  1  0.31896461  0.85316514  0.97021822  1
  O  O63  1  0.54407550  0.84875948  0.47093262  1
  O  O64  1  0.30950095  0.45661595  0.46907382  1
  O  O65  1  0.14774671  0.68909635  0.46960877  1
  O  O66  1  0.10606459  0.63508297  0.36796137  1
  O  O67  1  0.52881126  0.89527098  0.36595339  1
  O  O68  1  0.36044254  0.47052530  0.36724094  1
  O  O69  1  0.12974119  0.47116040  0.86481608  1
  O  O70  1  0.34416098  0.87387345  0.86281264  1
  O  O71  1  0.52713614  0.65199079  0.86564528  1
  O  O72  1  0.02028193  0.82353290  0.41449953  1
  O  O73  1  0.81710341  0.98546641  0.41238949  1
  O  O74  1  0.17752956  0.19599098  0.41422998  1
  O  O75  1  0.02768512  0.20226404  0.91600207  1
  O  O76  1  0.16519590  0.97525203  0.91559002  1
  O  O77  1  0.79508097  0.82719328  0.91629914  1
  O  O78  1  0.98225170  0.18137681  0.58862152  1
  O  O79  1  0.20039181  0.02300350  0.58943422  1
  O  O80  1  0.82823866  0.80469445  0.58918325  1
  O  O81  1  0.99141404  0.81184970  0.08433791  1
  O  O82  1  0.81634580  0.01152338  0.08686781  1
  O  O83  1  0.19240840  0.19241986  0.08594289  1
  O  O84  1  0.68932320  0.17059287  0.73869243  1
  O  O85  1  0.47046640  0.31000423  0.73988911  1
  O  O86  1  0.83570131  0.52917868  0.73975782  1
  O  O87  1  0.69839578  0.53760811  0.25089232  1
  O  O88  1  0.84367600  0.30838750  0.25133019  1
  O  O89  1  0.47454340  0.16821315  0.25228912  1
  O  O90  1  0.64640050  0.51618624  0.92011786  1
  O  O91  1  0.87203899  0.35780666  0.91904306  1
  O  O92  1  0.49151928  0.14162717  0.91926504  1
  O  O93  1  0.65832522  0.15059234  0.42934579  1
  O  O94  1  0.48776544  0.34891030  0.42658383  1
  O  O95  1  0.86060676  0.51398505  0.42778079  1
  O  O96  1  0.35769650  0.50201070  0.07640459  1
  O  O97  1  0.15098497  0.64701344  0.07787951  1
  O  O98  1  0.50672333  0.85303519  0.07750033  1
  O  O99  1  0.35338712  0.86524032  0.57649223  1
  O  O100  1  0.50352729  0.64221267  0.57617124  1
  O  O101  1  0.13415039  0.49224344  0.57612930  1
  O  O102  1  0.31293937  0.84138306  0.25557859  1
  O  O103  1  0.53236631  0.68187029  0.25672410  1
  O  O104  1  0.15587777  0.46337251  0.25680294  1
  O  O105  1  0.31057436  0.46161026  0.74860351  1
  O  O106  1  0.14576351  0.68078315  0.74831947  1
  O  O107  1  0.53004255  0.84537668  0.74721520  1
