# generated using pymatgen
data_Na2Sc3Nb5(PO4)12
_symmetry_space_group_name_H-M   'P 1'
_cell_length_a   17.60222398
_cell_length_b   8.80444332
_cell_length_c   22.89593536
_cell_angle_alpha   89.97050808
_cell_angle_beta   90.00458328
_cell_angle_gamma   119.99028156
_symmetry_Int_Tables_number   1
_chemical_formula_structural   Na2Sc3Nb5(PO4)12
_chemical_formula_sum   'Na6 Sc9 Nb15 P36 O144'
_cell_volume   3073.27145426
_cell_formula_units_Z   3
loop_
 _symmetry_equiv_pos_site_id
 _symmetry_equiv_pos_as_xyz
  1  'x, y, z'
loop_
 _atom_site_type_symbol
 _atom_site_label
 _atom_site_symmetry_multiplicity
 _atom_site_fract_x
 _atom_site_fract_y
 _atom_site_fract_z
 _atom_site_occupancy
  Na  Na0  1  0.33209887  0.33131404  0.82886044  1
  Na  Na1  1  0.83461789  0.33556108  0.82961217  1
  Na  Na2  1  0.33191208  0.33064013  0.32913228  1
  Na  Na3  1  0.83455186  0.33609281  0.32820157  1
  Na  Na4  1  0.66779622  0.66688425  0.16789002  1
  Na  Na5  1  0.16642785  0.66636552  0.66575130  1
  Sc  Sc6  1  0.99856279  0.99796907  0.35643894  1
  Sc  Sc7  1  0.33353946  0.33271341  0.68782694  1
  Sc  Sc8  1  0.83323122  0.33410623  0.68760071  1
  Sc  Sc9  1  0.33303281  0.33260635  0.18847326  1
  Sc  Sc10  1  0.83347425  0.33406642  0.18813351  1
  Sc  Sc11  1  0.66707740  0.66771972  0.01985942  1
  Sc  Sc12  1  0.16700068  0.66586078  0.51870127  1
  Sc  Sc13  1  0.66866964  0.66883960  0.31113287  1
  Sc  Sc14  1  0.16619526  0.66649160  0.81084153  1
  Nb  Nb15  1  0.50116315  0.00218087  0.35671049  1
  Nb  Nb16  1  0.00178604  0.00028683  0.85636492  1
  Nb  Nb17  1  0.49831755  0.99945592  0.85659711  1
  Nb  Nb18  1  0.00111662  0.00106064  0.64179869  1
  Nb  Nb19  1  0.49889395  0.99920153  0.64158374  1
  Nb  Nb20  1  0.99877076  0.99890328  0.14632307  1
  Nb  Nb21  1  0.50096774  0.00042500  0.14378833  1
  Nb  Nb22  1  0.33491746  0.33671877  0.98113506  1
  Nb  Nb23  1  0.83174498  0.32940270  0.98133440  1
  Nb  Nb24  1  0.33012596  0.33306020  0.47870091  1
  Nb  Nb25  1  0.83679260  0.33457505  0.47864869  1
  Nb  Nb26  1  0.16608872  0.66542153  0.02271216  1
  Nb  Nb27  1  0.66729146  0.66906504  0.52163078  1
  Nb  Nb28  1  0.16430430  0.66373660  0.30885929  1
  Nb  Nb29  1  0.66727898  0.66683956  0.80851890  1
  P  P30  1  0.14359901  0.00250706  0.25146769  1
  P  P31  1  0.64336692  -0.00050071  0.25029529  1
  P  P32  1  0.35787011  0.71475084  0.25114925  1
  P  P33  1  0.85511234  0.71021293  0.25100419  1
  P  P34  1  0.99828832  0.28413959  0.25155839  1
  P  P35  1  0.50023789  0.28680497  0.24997569  1
  P  P36  1  0.14330818  0.28683696  0.74962683  1
  P  P37  1  0.64225158  0.28228951  0.75041862  1
  P  P38  1  -0.00008868  0.71374035  0.74946865  1
  P  P39  1  0.49913923  0.71532769  0.75056080  1
  P  P40  1  0.35663439  0.99935668  0.74948975  1
  P  P41  1  0.85896552  0.00315915  0.75061460  1
  P  P42  1  0.47628011  0.33494642  0.58307285  1
  P  P43  1  0.97833088  0.33680010  0.58533957  1
  P  P44  1  0.19035940  0.04331117  0.58472781  1
  P  P45  1  0.69096744  0.04824474  0.58386142  1
  P  P46  1  0.33128186  0.61829245  0.58497247  1
  P  P47  1  0.83310013  0.61890361  0.58359223  1
  P  P48  1  0.47861586  0.62115026  0.08562247  1
  P  P49  1  0.97653166  0.62213180  0.08368648  1
  P  P50  1  0.33364157  0.04605226  0.08395287  1
  P  P51  1  0.83250204  0.04262466  0.08549115  1
  P  P52  1  0.18910208  0.33142276  0.08437192  1
  P  P53  1  0.68917232  0.33594615  0.08494760  1
  P  P54  1  0.30915016  0.66478281  0.91624022  1
  P  P55  1  0.80982068  0.66445491  0.91608920  1
  P  P56  1  0.02258538  0.38024729  0.91618205  1
  P  P57  1  0.52313672  0.38181660  0.91606242  1
  P  P58  1  0.16834901  0.95484650  0.91649502  1
  P  P59  1  0.66712170  0.95373302  0.91581419  1
  P  P60  1  0.30928482  0.95393226  0.41582848  1
  P  P61  1  0.81023137  0.95346359  0.41647631  1
  P  P62  1  0.16551244  0.37960410  0.41635434  1
  P  P63  1  0.66799655  0.38132792  0.41651643  1
  P  P64  1  0.02390982  0.66818934  0.41678251  1
  P  P65  1  0.52298012  0.66481721  0.41600208  1
  O  O66  1  0.10213805  0.02861611  0.30498744  1
  O  O67  1  0.59551905  0.02035115  0.30479292  1
  O  O68  1  0.41561652  0.80791063  0.30545724  1
  O  O69  1  0.91065371  0.79578247  0.30422692  1
  O  O70  1  0.49017270  0.17074687  0.30460767  1
  O  O71  1  0.98564280  0.17616955  0.30523259  1
  O  O72  1  0.09544123  0.17058379  0.80480200  1
  O  O73  1  0.59574587  0.16977188  0.80517401  1
  O  O74  1  0.48892485  0.80817642  0.80525742  1
  O  O75  1  0.99024081  0.80983086  0.80465533  1
  O  O76  1  0.41444586  0.01843672  0.80441082  1
  O  O77  1  0.91527331  0.02330819  0.80560777  1
  O  O78  1  0.40490735  0.97894888  0.69489140  1
  O  O79  1  0.89943371  0.97093436  0.69599202  1
  O  O80  1  0.08492238  0.19133306  0.69522722  1
  O  O81  1  0.58574221  0.19993274  0.69557269  1
  O  O82  1  0.00995655  0.82895243  0.69486714  1
  O  O83  1  0.51499954  0.83020185  0.69597379  1
  O  O84  1  0.40041423  0.82857693  0.19596379  1
  O  O85  1  0.90449289  0.83008685  0.19448677  1
  O  O86  1  0.01429342  0.19958997  0.19545013  1
  O  O87  1  0.50987884  0.19063295  0.19484042  1
  O  O88  1  0.08623872  0.97264896  0.19505907  1
  O  O89  1  0.58492708  0.97901104  0.19522944  1
  O  O90  1  0.43963082  0.36938545  0.63768249  1
  O  O91  1  0.93485388  0.36166983  0.63870918  1
  O  O92  1  0.24567391  0.12939561  0.63834083  1
  O  O93  1  0.74535488  0.12114247  0.63828647  1
  O  O94  1  0.32001761  0.51013709  0.63894206  1
  O  O95  1  0.81461930  0.50786752  0.63760915  1
  O  O96  1  0.43493867  0.50721010  0.13828428  1
  O  O97  1  0.93993141  0.50922024  0.13684221  1
  O  O98  1  0.31444700  0.12136158  0.13697441  1
  O  O99  1  0.81908440  0.12896493  0.13827397  1
  O  O100  1  0.24607516  0.37175397  0.13741692  1
  O  O101  1  0.74557349  0.36182364  0.13774607  1
  O  O102  1  0.23445162  0.30564934  0.02867352  1
  O  O103  1  0.73413990  0.30584491  0.02890590  1
  O  O104  1  0.41904328  0.53061588  0.02950626  1
  O  O105  1  0.91816135  0.53265270  0.02799839  1
  O  O106  1  0.34779641  0.16300548  0.02839816  1
  O  O107  1  0.84635847  0.16248792  0.02915009  1
  O  O108  1  0.23382064  0.16227939  0.52908162  1
  O  O109  1  0.73305488  0.16290929  0.52907495  1
  O  O110  1  0.34714363  0.53254481  0.52952863  1
  O  O111  1  0.84830888  0.53313025  0.52875071  1
  O  O112  1  0.41806335  0.30281722  0.52832880  1
  O  O113  1  0.91937582  0.30596236  0.52982047  1
  O  O114  1  0.26686433  0.69312924  0.97120337  1
  O  O115  1  0.77252163  0.69879974  0.97044521  1
  O  O116  1  0.07990009  0.46677266  0.97112095  1
  O  O117  1  0.57680498  0.45482476  0.97073377  1
  O  O118  1  0.15375905  0.84019374  0.97125123  1
  O  O119  1  0.65022530  0.84655765  0.97051737  1
  O  O120  1  0.27386438  0.84879355  0.47104360  1
  O  O121  1  0.76134073  0.83796770  0.47157076  1
  O  O122  1  0.15603013  0.46358928  0.47140879  1
  O  O123  1  0.65318677  0.46652295  0.47144708  1
  O  O124  1  0.07675588  0.68953424  0.47138853  1
  O  O125  1  0.57929261  0.69252161  0.47135828  1
  O  O126  1  0.06675756  0.63256813  0.36178137  1
  O  O127  1  0.56028173  0.62797585  0.36192670  1
  O  O128  1  0.25180165  0.87040470  0.36121229  1
  O  O129  1  0.75179050  0.88006086  0.36299307  1
  O  O130  1  0.18410586  0.50105747  0.36171065  1
  O  O131  1  0.68543810  0.49126364  0.36211991  1
  O  O132  1  0.06046162  0.49209211  0.86219967  1
  O  O133  1  0.56618739  0.49719278  0.86119353  1
  O  O134  1  0.18596069  0.87986112  0.86220305  1
  O  O135  1  0.68208984  0.86670171  0.86118160  1
  O  O136  1  0.25406967  0.62862758  0.86195014  1
  O  O137  1  0.75122060  0.63576283  0.86125438  1
  O  O138  1  0.00891652  0.81924082  0.40759928  1
  O  O139  1  0.51174819  0.82788225  0.40798050  1
  O  O140  1  0.40242934  0.98035950  0.40343359  1
  O  O141  1  0.90012172  0.97638207  0.41333619  1
  O  O142  1  0.09026930  0.19825934  0.40707918  1
  O  O143  1  0.58613560  0.19583380  0.40830224  1
  O  O144  1  0.01173658  0.19500683  0.90802375  1
  O  O145  1  0.50988523  0.19608250  0.90383320  1
  O  O146  1  0.08634112  0.97651794  0.90830334  1
  O  O147  1  0.58769131  0.98033209  0.90329782  1
  O  O148  1  0.40225385  0.82780814  0.90822924  1
  O  O149  1  0.90215389  0.82445583  0.90337919  1
  O  O150  1  0.48821947  0.17123367  0.59209111  1
  O  O151  1  0.98406190  0.16538818  0.59335091  1
  O  O152  1  0.09833575  0.03061107  0.59246123  1
  O  O153  1  0.59769846  0.02523756  0.59288940  1
  O  O154  1  0.41724413  0.80369939  0.59321880  1
  O  O155  1  0.91444229  0.80419989  0.59222103  1
  O  O156  1  0.48391918  0.80231968  0.09266336  1
  O  O157  1  0.98862759  0.80652748  0.09091265  1
  O  O158  1  0.41449215  0.02405499  0.09134372  1
  O  O159  1  0.91752628  0.03123669  0.09249684  1
  O  O160  1  0.09769023  0.17060322  0.09147761  1
  O  O161  1  0.59792139  0.16532560  0.09207279  1
  O  O162  1  0.35171628  0.16687983  0.74634175  1
  O  O163  1  0.84597934  0.16073476  0.74690289  1
  O  O164  1  0.23274702  0.29893110  0.74665094  1
  O  O165  1  0.73351049  0.30633139  0.74652348  1
  O  O166  1  0.41977659  0.53300304  0.74683787  1
  O  O167  1  0.91658557  0.53487052  0.74628747  1
  O  O168  1  0.34715741  0.53272101  0.24665495  1
  O  O169  1  0.84657634  0.53013561  0.24264134  1
  O  O170  1  0.41689980  0.29840371  0.24602290  1
  O  O171  1  0.92102225  0.31395186  0.24338016  1
  O  O172  1  0.23585318  0.15798746  0.24277100  1
  O  O173  1  0.73241509  0.16538509  0.24665340  1
  O  O174  1  0.32318855  0.50481883  0.92750561  1
  O  O175  1  0.82140966  0.50056881  0.92288238  1
  O  O176  1  0.42907001  0.35728165  0.92301567  1
  O  O177  1  0.92908730  0.35374202  0.92779595  1
  O  O178  1  0.24805438  0.14254236  0.92799024  1
  O  O179  1  0.74925162  0.14121991  0.92279294  1
  O  O180  1  0.32199135  0.14304819  0.42349361  1
  O  O181  1  0.81902523  0.13877285  0.42888790  1
  O  O182  1  0.25218139  0.36398965  0.42446281  1
  O  O183  1  0.74785474  0.35440081  0.42798106  1
  O  O184  1  0.42956402  0.50463903  0.42792795  1
  O  O185  1  0.92991459  0.49496312  0.42424805  1
  O  O186  1  0.17748263  0.49258110  0.06962390  1
  O  O187  1  0.67602219  0.49149182  0.07586171  1
  O  O188  1  0.06900320  0.64560762  0.06941794  1
  O  O189  1  0.56949448  0.64728620  0.07617756  1
  O  O190  1  0.25369762  0.86187644  0.06960743  1
  O  O191  1  0.75439822  0.86101251  0.07598713  1
  O  O192  1  0.17633803  0.86040273  0.57666023  1
  O  O193  1  0.67636584  0.86152523  0.57099697  1
  O  O194  1  0.25460823  0.64912110  0.57733403  1
  O  O195  1  0.75373942  0.64548777  0.57015656  1
  O  O196  1  0.07011469  0.49159416  0.57735001  1
  O  O197  1  0.56897927  0.49200477  0.57004029  1
  O  O198  1  0.15105998  0.83221629  0.25941952  1
  O  O199  1  0.64796404  0.83171752  0.25369160  1
  O  O200  1  0.26734377  0.70117804  0.26075450  1
  O  O201  1  0.76513938  0.69916602  0.25131041  1
  O  O202  1  0.08395712  0.46940402  0.25893005  1
  O  O203  1  0.58342189  0.46485554  0.25390610  1
  O  O204  1  0.14886370  0.46459509  0.75409388  1
  O  O205  1  0.64943504  0.46562432  0.76100423  1
  O  O206  1  0.08316950  0.70184074  0.75401109  1
  O  O207  1  0.58349853  0.70100898  0.76110423  1
  O  O208  1  0.26774210  0.83323439  0.75380748  1
  O  O209  1  0.76708439  0.83353837  0.76118836  1
