# generated using pymatgen
data_NaH2N
_symmetry_space_group_name_H-M   'P 1'
_cell_length_a   6.78030192
_cell_length_b   6.40103256
_cell_length_c   5.95860669
_cell_angle_alpha   66.42778004
_cell_angle_beta   59.91553323
_cell_angle_gamma   53.65668673
_symmetry_Int_Tables_number   1
_chemical_formula_structural   NaH2N
_chemical_formula_sum   'Na4 H8 N4'
_cell_volume   178.27052343
_cell_formula_units_Z   4
loop_
 _symmetry_equiv_pos_site_id
 _symmetry_equiv_pos_as_xyz
  1  'x, y, z'
loop_
 _atom_site_type_symbol
 _atom_site_label
 _atom_site_symmetry_multiplicity
 _atom_site_fract_x
 _atom_site_fract_y
 _atom_site_fract_z
 _atom_site_occupancy
  Na  Na0  1  0.39678402  0.39678402  0.10321598  1
  Na  Na1  1  0.85321598  0.85321598  0.14678402  1
  Na  Na2  1  0.10321598  0.10321598  0.39678402  1
  Na  Na3  1  0.14678402  0.14678402  0.85321598  1
  H  H4  1  0.53723613  0.81914971  0.03142030  1
  H  H5  1  0.81914971  0.53723613  0.61219386  1
  H  H6  1  0.71276387  0.43085029  0.21857970  1
  H  H7  1  0.43085029  0.71276387  0.63780614  1
  H  H8  1  0.03142030  0.61219386  0.53723613  1
  H  H9  1  0.61219386  0.03142030  0.81914971  1
  H  H10  1  0.21857970  0.63780614  0.71276387  1
  H  H11  1  0.63780614  0.21857970  0.43085029  1
  N  N12  1  0.49125265  0.00874735  0.00874735  1
  N  N13  1  0.00874735  0.49125265  0.49125265  1
  N  N14  1  0.75874735  0.24125265  0.24125265  1
  N  N15  1  0.24125265  0.75874735  0.75874735  1
