# generated using pymatgen
data_PrCl3
_symmetry_space_group_name_H-M   'P 1'
_cell_length_a   7.49968091
_cell_length_b   7.49967979
_cell_length_c   4.30124389
_cell_angle_alpha   90.00000000
_cell_angle_beta   90.00000000
_cell_angle_gamma   120.00000461
_symmetry_Int_Tables_number   1
_chemical_formula_structural   PrCl3
_chemical_formula_sum   'Pr2 Cl6'
_cell_volume   209.51261969
_cell_formula_units_Z   2
loop_
 _symmetry_equiv_pos_site_id
 _symmetry_equiv_pos_as_xyz
  1  'x, y, z'
loop_
 _atom_site_type_symbol
 _atom_site_label
 _atom_site_symmetry_multiplicity
 _atom_site_fract_x
 _atom_site_fract_y
 _atom_site_fract_z
 _atom_site_occupancy
  Pr  Pr0  1  0.66666700  0.33333300  0.75000000  1
  Pr  Pr1  1  0.33333300  0.66666700  0.25000000  1
  Cl  Cl2  1  0.61076527  0.69661781  0.75000000  1
  Cl  Cl3  1  0.91414646  0.61076527  0.25000000  1
  Cl  Cl4  1  0.38923473  0.30338219  0.25000000  1
  Cl  Cl5  1  0.08585254  0.38923473  0.75000000  1
  Cl  Cl6  1  0.30338219  0.91414646  0.75000000  1
  Cl  Cl7  1  0.69661781  0.08585254  0.25000000  1
