# generated using pymatgen
data_MgTl4(MoO4)2
_symmetry_space_group_name_H-M   'P 1'
_cell_length_a   6.66094224
_cell_length_b   6.85163614
_cell_length_c   8.05885464
_cell_angle_alpha   90.00000221
_cell_angle_beta   89.99906407
_cell_angle_gamma   120.95163092
_symmetry_Int_Tables_number   1
_chemical_formula_structural   MgTl4(MoO4)2
_chemical_formula_sum   'Mg1 Tl4 Mo2 O8'
_cell_volume   315.41980619
_cell_formula_units_Z   1
loop_
 _symmetry_equiv_pos_site_id
 _symmetry_equiv_pos_as_xyz
  1  'x, y, z'
loop_
 _atom_site_type_symbol
 _atom_site_label
 _atom_site_symmetry_multiplicity
 _atom_site_fract_x
 _atom_site_fract_y
 _atom_site_fract_z
 _atom_site_occupancy
  Mg  Mg0  1  0.00000000  0.34381800  0.50000000  1
  Tl  Tl1  1  0.35796600  0.72489200  0.82318400  1
  Tl  Tl2  1  0.00000000  0.04617300  0.00000000  1
  Tl  Tl3  1  0.64203400  0.36692500  0.17681600  1
  Tl  Tl4  1  0.00000000  0.86146400  0.50000000  1
  Mo  Mo5  1  0.65160500  0.33998100  0.71515800  1
  Mo  Mo6  1  0.34839500  0.68837700  0.28484200  1
  O  O7  1  0.12336600  0.36573500  0.27007600  1
  O  O8  1  0.72538000  0.38984700  0.47919300  1
  O  O9  1  0.87663400  0.24236900  0.72992400  1
  O  O10  1  0.76377400  0.62148300  0.80122900  1
  O  O11  1  0.64152400  0.74643200  0.23473000  1
  O  O12  1  0.35847600  0.10490800  0.76527000  1
  O  O13  1  0.23622600  0.85770900  0.19877100  1
  O  O14  1  0.27462000  0.66446800  0.52080700  1
