# generated using pymatgen
data_Na6MgZr7Si6(SO8)6
_symmetry_space_group_name_H-M   'P 1'
_cell_length_a   18.11373971
_cell_length_b   9.04312564
_cell_length_c   23.48377701
_cell_angle_alpha   89.93747441
_cell_angle_beta   90.08003873
_cell_angle_gamma   119.94829866
_symmetry_Int_Tables_number   1
_chemical_formula_structural   Na6MgZr7Si6(SO8)6
_chemical_formula_sum   'Na18 Mg3 Zr21 Si18 S18 O144'
_cell_volume   3333.11900683
_cell_formula_units_Z   3
loop_
 _symmetry_equiv_pos_site_id
 _symmetry_equiv_pos_as_xyz
  1  'x, y, z'
loop_
 _atom_site_type_symbol
 _atom_site_label
 _atom_site_symmetry_multiplicity
 _atom_site_fract_x
 _atom_site_fract_y
 _atom_site_fract_z
 _atom_site_occupancy
  Na  Na0  1  0.68645964  0.37842324  0.25125806  1
  Na  Na1  1  0.99547928  0.64458265  0.25156849  1
  Na  Na2  1  0.99718341  0.35538839  0.75187714  1
  Na  Na3  1  0.49325968  0.35894955  0.74776980  1
  Na  Na4  1  0.19243216  0.01778902  0.75185642  1
  Na  Na5  1  0.68450855  0.00925900  0.74920056  1
  Na  Na6  1  0.99815022  0.99835833  0.49176078  1
  Na  Na7  1  0.50571668  0.00147573  0.49855549  1
  Na  Na8  1  0.00942828  0.01375628  0.99843662  1
  Na  Na9  1  0.50245031  0.99034339  0.99746657  1
  Na  Na10  1  0.33085724  0.33296106  0.82560170  1
  Na  Na11  1  0.82872058  0.32685084  0.82827144  1
  Na  Na12  1  0.33351748  0.33132914  0.32992544  1
  Na  Na13  1  0.83359497  0.33434949  0.33558791  1
  Na  Na14  1  0.17081017  0.66653193  0.16533589  1
  Na  Na15  1  0.66396978  0.66418371  0.17188789  1
  Na  Na16  1  0.17618662  0.66736096  0.66955428  1
  Na  Na17  1  0.66947591  0.66398011  0.66725833  1
  Mg  Mg18  1  0.33341512  0.33827587  0.69147465  1
  Mg  Mg19  1  0.82632519  0.32802246  0.68634881  1
  Mg  Mg20  1  0.83446887  0.33843682  0.18516715  1
  Zr  Zr21  1  0.99977037  0.98594095  0.35611637  1
  Zr  Zr22  1  0.50381778  0.01146920  0.35592193  1
  Zr  Zr23  1  0.00790245  0.02211130  0.85472965  1
  Zr  Zr24  1  0.50429747  0.99943465  0.84717667  1
  Zr  Zr25  1  0.99715006  0.00604295  0.64941962  1
  Zr  Zr26  1  0.49976335  0.00185055  0.65343499  1
  Zr  Zr27  1  0.00472633  0.99595611  0.15040285  1
  Zr  Zr28  1  0.50027128  0.00220307  0.14682443  1
  Zr  Zr29  1  0.33402067  0.33816110  0.18635466  1
  Zr  Zr30  1  0.32547208  0.33181033  0.98345830  1
  Zr  Zr31  1  0.83317913  0.32426219  0.97589939  1
  Zr  Zr32  1  0.33509883  0.34634817  0.47763618  1
  Zr  Zr33  1  0.83130997  0.33087406  0.47397515  1
  Zr  Zr34  1  0.15981428  0.65553854  0.01780875  1
  Zr  Zr35  1  0.65988488  0.67378255  0.02038529  1
  Zr  Zr36  1  0.16109007  0.65555062  0.51714545  1
  Zr  Zr37  1  0.66645262  0.66956679  0.51339997  1
  Zr  Zr38  1  0.16331126  0.66136631  0.31628178  1
  Zr  Zr39  1  0.66778247  0.66373717  0.31697333  1
  Zr  Zr40  1  0.17105363  0.67095671  0.81634449  1
  Zr  Zr41  1  0.67053577  0.67891966  0.80985594  1
  Si  Si42  1  0.14907306  0.00214471  0.25183809  1
  Si  Si43  1  0.85233194  0.70432389  0.24794549  1
  Si  Si44  1  0.49887634  0.29358355  0.24994585  1
  Si  Si45  1  0.14899307  0.29731652  0.74830238  1
  Si  Si46  1  0.65060048  0.29707507  0.74932502  1
  Si  Si47  1  0.49586867  0.70103970  0.74915148  1
  Si  Si48  1  0.35244147  0.99892889  0.75025828  1
  Si  Si49  1  0.85607168  0.00635461  0.75013631  1
  Si  Si50  1  0.47677997  0.62404564  0.08316300  1
  Si  Si51  1  0.18410082  0.33451093  0.08537188  1
  Si  Si52  1  0.02099842  0.37717040  0.91491822  1
  Si  Si53  1  0.16774799  0.96059413  0.91703237  1
  Si  Si54  1  0.66217723  0.95796300  0.91572518  1
  Si  Si55  1  0.81319263  0.95622098  0.41580795  1
  Si  Si56  1  0.16542086  0.37184451  0.41573590  1
  Si  Si57  1  0.66563046  0.37682194  0.41711560  1
  Si  Si58  1  0.02094974  0.66586313  0.41725281  1
  Si  Si59  1  0.52176167  0.66923135  0.41538376  1
  S  S60  1  0.64625185  0.00183637  0.24851048  1
  S  S61  1  0.35530772  0.71232131  0.25060686  1
  S  S62  1  0.99813574  0.28996715  0.24898816  1
  S  S63  1  0.99778723  0.70715629  0.74955874  1
  S  S64  1  0.47823840  0.33322907  0.58446577  1
  S  S65  1  0.97754569  0.33457106  0.58502629  1
  S  S66  1  0.18868781  0.04229495  0.58456430  1
  S  S67  1  0.68802866  0.04235633  0.58456904  1
  S  S68  1  0.33364317  0.62438842  0.58439835  1
  S  S69  1  0.83343161  0.62128135  0.58494947  1
  S  S70  1  0.97656260  0.62081423  0.08437690  1
  S  S71  1  0.33320396  0.04189106  0.08318797  1
  S  S72  1  0.83369246  0.04533788  0.08450597  1
  S  S73  1  0.68974959  0.33466441  0.08397676  1
  S  S74  1  0.31391934  0.66926141  0.91815503  1
  S  S75  1  0.81127092  0.66606978  0.91818492  1
  S  S76  1  0.52062270  0.37472950  0.91711660  1
  S  S77  1  0.31117458  0.95632915  0.41769735  1
  O  O78  1  0.10115433  0.02771002  0.30570227  1
  O  O79  1  0.60612506  0.02897098  0.29960304  1
  O  O80  1  0.40684267  0.79224471  0.30163060  1
  O  O81  1  0.91615930  0.79524457  0.30230846  1
  O  O82  1  0.48818360  0.16774598  0.30381987  1
  O  O83  1  0.98654091  0.19054411  0.30079542  1
  O  O84  1  0.10206334  0.17097452  0.80344288  1
  O  O85  1  0.60442883  0.17151964  0.80436495  1
  O  O86  1  0.48527654  0.79474410  0.80546175  1
  O  O87  1  0.98565481  0.78459333  0.80071888  1
  O  O88  1  0.41384130  0.03063643  0.80571190  1
  O  O89  1  0.91630202  0.02929962  0.80476439  1
  O  O90  1  0.39771968  0.96530430  0.69457559  1
  O  O91  1  0.89912860  0.96960793  0.69358217  1
  O  O92  1  0.08219308  0.19787012  0.69445916  1
  O  O93  1  0.58551638  0.20851203  0.69455636  1
  O  O94  1  0.01361139  0.81850781  0.69827886  1
  O  O95  1  0.52064181  0.83383224  0.69493798  1
  O  O96  1  0.39706647  0.81626446  0.19851032  1
  O  O97  1  0.90021539  0.82644033  0.19211477  1
  O  O98  1  0.01280479  0.21286990  0.19779150  1
  O  O99  1  0.51317393  0.19179753  0.19536559  1
  O  O100  1  0.08581196  0.96166999  0.19558991  1
  O  O101  1  0.59161645  0.97758562  0.19729253  1
  O  O102  1  0.43788139  0.35251710  0.63594851  1
  O  O103  1  0.94027317  0.35731994  0.63721706  1
  O  O104  1  0.23865851  0.12103085  0.63619427  1
  O  O105  1  0.73816053  0.12177071  0.63655123  1
  O  O106  1  0.32107000  0.51889924  0.63444529  1
  O  O107  1  0.82443030  0.51912549  0.63595938  1
  O  O108  1  0.43498501  0.50772045  0.13932877  1
  O  O109  1  0.93827619  0.51931826  0.13637790  1
  O  O110  1  0.32113593  0.12044652  0.13475824  1
  O  O111  1  0.82028434  0.12595167  0.13498228  1
  O  O112  1  0.24578865  0.35849612  0.13927310  1
  O  O113  1  0.73888872  0.35383084  0.13645657  1
  O  O114  1  0.22968328  0.30513480  0.02865445  1
  O  O115  1  0.73048281  0.31016381  0.03323413  1
  O  O116  1  0.42140320  0.53313535  0.02608593  1
  O  O117  1  0.92435522  0.53604571  0.03321692  1
  O  O118  1  0.34784913  0.14702126  0.03194829  1
  O  O119  1  0.84296909  0.14999934  0.03244738  1
  O  O120  1  0.22941490  0.14616445  0.53288924  1
  O  O121  1  0.73076599  0.14755523  0.53361452  1
  O  O122  1  0.34313362  0.54034293  0.53191660  1
  O  O123  1  0.84459420  0.54152702  0.53300690  1
  O  O124  1  0.42525195  0.31291456  0.53284042  1
  O  O125  1  0.92716084  0.31363240  0.53374290  1
  O  O126  1  0.27122842  0.68841049  0.96882103  1
  O  O127  1  0.76970866  0.68691842  0.96931999  1
  O  O128  1  0.07964759  0.46453485  0.97120812  1
  O  O129  1  0.57614135  0.46147243  0.96807462  1
  O  O130  1  0.15808600  0.84134986  0.97239025  1
  O  O131  1  0.65531066  0.84045446  0.97144171  1
  O  O132  1  0.27101329  0.85098199  0.46894310  1
  O  O133  1  0.76792420  0.83999722  0.47283147  1
  O  O134  1  0.15801462  0.47426088  0.47194653  1
  O  O135  1  0.65026501  0.46212528  0.47331024  1
  O  O136  1  0.08257865  0.69311041  0.47218347  1
  O  O137  1  0.57836859  0.69832218  0.47304466  1
  O  O138  1  0.06484023  0.63832548  0.35973583  1
  O  O139  1  0.56352413  0.63564415  0.35946844  1
  O  O140  1  0.25958388  0.87956157  0.36573104  1
  O  O141  1  0.75233084  0.87299265  0.36021468  1
  O  O142  1  0.18506222  0.49953814  0.36107805  1
  O  O143  1  0.68166468  0.48295149  0.35801095  1
  O  O144  1  0.06259130  0.48754105  0.85713232  1
  O  O145  1  0.56160019  0.47743148  0.86517105  1
  O  O146  1  0.18027549  0.87158264  0.85888201  1
  O  O147  1  0.68061899  0.87336860  0.86003983  1
  O  O148  1  0.26095315  0.64136240  0.86598654  1
  O  O149  1  0.75864875  0.63604365  0.86654475  1
  O  O150  1  0.01325289  0.83512810  0.41415939  1
  O  O151  1  0.50531079  0.83011415  0.40773603  1
  O  O152  1  0.39604158  0.97222854  0.41117995  1
  O  O153  1  0.90741420  0.98104213  0.40969117  1
  O  O154  1  0.08099776  0.18988713  0.41077748  1
  O  O155  1  0.58150616  0.18527485  0.41103612  1
  O  O156  1  0.00770006  0.18531199  0.91290677  1
  O  O157  1  0.51220370  0.20407077  0.91333287  1
  O  O158  1  0.08009014  0.96960271  0.91085584  1
  O  O159  1  0.57844982  0.97881781  0.91393038  1
  O  O160  1  0.39777222  0.82290744  0.91242040  1
  O  O161  1  0.89687214  0.81562588  0.91118521  1
  O  O162  1  0.48713557  0.17680067  0.58721658  1
  O  O163  1  0.98889232  0.18049557  0.58902371  1
  O  O164  1  0.10072254  0.01882859  0.58973130  1
  O  O165  1  0.60142520  0.02465552  0.58807617  1
  O  O166  1  0.41098706  0.79615056  0.58732441  1
  O  O167  1  0.91196746  0.79592565  0.59016067  1
  O  O168  1  0.49091695  0.81796595  0.09143715  1
  O  O169  1  0.98529760  0.79305802  0.08810277  1
  O  O170  1  0.41081980  0.02313716  0.09026207  1
  O  O171  1  0.90985722  0.02825733  0.08884036  1
  O  O172  1  0.08884532  0.16508192  0.09025466  1
  O  O173  1  0.60243820  0.17940375  0.08943751  1
  O  O174  1  0.34371010  0.16626106  0.74194544  1
  O  O175  1  0.84937293  0.17715662  0.74168532  1
  O  O176  1  0.23712941  0.30120023  0.74124795  1
  O  O177  1  0.74069671  0.30515652  0.74295282  1
  O  O178  1  0.41921449  0.51102804  0.74274391  1
  O  O179  1  0.92537672  0.53433141  0.74063034  1
  O  O180  1  0.34613757  0.54124146  0.24456860  1
  O  O181  1  0.84364905  0.51387196  0.24133288  1
  O  O182  1  0.41427220  0.30941417  0.24374164  1
  O  O183  1  0.92437568  0.31708535  0.24047245  1
  O  O184  1  0.24205291  0.16804392  0.24260688  1
  O  O185  1  0.73003725  0.15851100  0.24057109  1
  O  O186  1  0.32209090  0.51403490  0.92276832  1
  O  O187  1  0.82029445  0.51107698  0.92627102  1
  O  O188  1  0.43643006  0.36035966  0.92444967  1
  O  O189  1  0.92757654  0.36181728  0.92545804  1
  O  O190  1  0.25386140  0.14918690  0.92340573  1
  O  O191  1  0.74818752  0.14615900  0.92620589  1
  O  O192  1  0.32092305  0.12804644  0.42528036  1
  O  O193  1  0.82143947  0.14366558  0.42625360  1
  O  O194  1  0.25061556  0.35357611  0.42650330  1
  O  O195  1  0.74838784  0.35257414  0.42494384  1
  O  O196  1  0.42761983  0.49610533  0.42634458  1
  O  O197  1  0.92871627  0.49630765  0.42534273  1
  O  O198  1  0.17885650  0.50999707  0.07780646  1
  O  O199  1  0.67983084  0.48673100  0.07600984  1
  O  O200  1  0.06358363  0.64263369  0.07823008  1
  O  O201  1  0.57328336  0.64417554  0.07665454  1
  O  O202  1  0.25825063  0.86965320  0.07673312  1
  O  O203  1  0.75705132  0.87124766  0.07612310  1
  O  O204  1  0.17967487  0.86839589  0.57718511  1
  O  O205  1  0.67857702  0.86888356  0.57913372  1
  O  O206  1  0.25711857  0.64601843  0.57646748  1
  O  O207  1  0.75740626  0.64343813  0.57958677  1
  O  O208  1  0.06613030  0.48816680  0.57881383  1
  O  O209  1  0.56467422  0.48676082  0.57830543  1
  O  O210  1  0.15280732  0.82193316  0.25651327  1
  O  O211  1  0.65393068  0.84851051  0.25344408  1
  O  O212  1  0.26982047  0.69623473  0.25495828  1
  O  O213  1  0.75669963  0.68023268  0.25269866  1
  O  O214  1  0.07611235  0.46715668  0.25436955  1
  O  O215  1  0.58754871  0.47553700  0.25365452  1
  O  O216  1  0.14731579  0.47623494  0.75492468  1
  O  O217  1  0.65009458  0.47539387  0.75894609  1
  O  O218  1  0.07766713  0.69392072  0.75437411  1
  O  O219  1  0.58465362  0.69094870  0.75781124  1
  O  O220  1  0.25530350  0.83110504  0.75507073  1
  O  O221  1  0.76013821  0.83844654  0.75444271  1
