# generated using pymatgen
data_Na2Hf4Nb4Si7S5O48
_symmetry_space_group_name_H-M   'P 1'
_cell_length_a   17.86765650
_cell_length_b   8.94624821
_cell_length_c   23.16022567
_cell_angle_alpha   90.01158314
_cell_angle_beta   89.08014736
_cell_angle_gamma   120.05256095
_symmetry_Int_Tables_number   1
_chemical_formula_structural   Na2Hf4Nb4Si7S5O48
_chemical_formula_sum   'Na6 Hf12 Nb12 Si21 S15 O144'
_cell_volume   3203.89233356
_cell_formula_units_Z   3
loop_
 _symmetry_equiv_pos_site_id
 _symmetry_equiv_pos_as_xyz
  1  'x, y, z'
loop_
 _atom_site_type_symbol
 _atom_site_label
 _atom_site_symmetry_multiplicity
 _atom_site_fract_x
 _atom_site_fract_y
 _atom_site_fract_z
 _atom_site_occupancy
  Na  Na0  1  0.99286344  0.00477743  0.49803574  1
  Na  Na1  1  0.49220868  0.97849571  0.00378631  1
  Na  Na2  1  0.32494234  0.33126151  0.83944201  1
  Na  Na3  1  0.82357980  0.32835363  0.83824080  1
  Na  Na4  1  0.32736568  0.32140877  0.33498446  1
  Na  Na5  1  0.82262755  0.31574474  0.33784268  1
  Hf  Hf6  1  0.00378775  0.01170233  0.35771061  1
  Hf  Hf7  1  0.50530065  0.99740793  0.85880257  1
  Hf  Hf8  1  0.00090514  0.01394563  0.64403376  1
  Hf  Hf9  1  0.50116646  0.99680199  0.14712373  1
  Hf  Hf10  1  0.33372205  0.33749271  0.97998681  1
  Hf  Hf11  1  0.83431091  0.33538395  0.97894451  1
  Hf  Hf12  1  0.33665299  0.33655434  0.47686299  1
  Hf  Hf13  1  0.83470148  0.33131034  0.47774519  1
  Hf  Hf14  1  0.17292998  0.68091498  0.31099110  1
  Hf  Hf15  1  0.66951319  0.67344723  0.30935523  1
  Hf  Hf16  1  0.17415474  0.66638071  0.81177284  1
  Hf  Hf17  1  0.67185894  0.66428643  0.81175522  1
  Nb  Nb18  1  0.50527155  0.02457388  0.35822010  1
  Nb  Nb19  1  0.00684933  0.00217800  0.86161863  1
  Nb  Nb20  1  0.50299044  0.01853058  0.64129563  1
  Nb  Nb21  1  0.00317922  0.98755629  0.14118761  1
  Nb  Nb22  1  0.33208211  0.34434072  0.68567328  1
  Nb  Nb23  1  0.83501995  0.34937764  0.68521798  1
  Nb  Nb24  1  0.34056077  0.32113360  0.18915882  1
  Nb  Nb25  1  0.83177487  0.32039614  0.18643988  1
  Nb  Nb26  1  0.17390442  0.69317575  0.02487636  1
  Nb  Nb27  1  0.67258814  0.69234867  0.02446753  1
  Nb  Nb28  1  0.17306392  0.65298053  0.52305235  1
  Nb  Nb29  1  0.67183381  0.65218574  0.52191478  1
  Si  Si30  1  0.14365556  0.00218829  0.24989084  1
  Si  Si31  1  0.64276848  0.00143749  0.25033090  1
  Si  Si32  1  0.50377436  0.29028146  0.24957917  1
  Si  Si33  1  0.14347803  0.28504709  0.75019966  1
  Si  Si34  1  0.64381317  0.28639196  0.75004880  1
  Si  Si35  1  0.47638087  0.34376670  0.58182932  1
  Si  Si36  1  0.97797735  0.33872275  0.58127702  1
  Si  Si37  1  0.33823822  0.62781384  0.58232269  1
  Si  Si38  1  0.83772676  0.62821067  0.58061262  1
  Si  Si39  1  0.47683450  0.62165111  0.08190683  1
  Si  Si40  1  0.97593492  0.60945704  0.08204133  1
  Si  Si41  1  0.34029929  0.05245303  0.08163759  1
  Si  Si42  1  0.83852249  0.05019970  0.08274207  1
  Si  Si43  1  0.31055576  0.66496720  0.91723360  1
  Si  Si44  1  0.80906561  0.66272290  0.91615796  1
  Si  Si45  1  0.17231199  0.95586400  0.91492130  1
  Si  Si46  1  0.66955289  0.95732959  0.91486248  1
  Si  Si47  1  0.31040081  0.95405387  0.41610592  1
  Si  Si48  1  0.80966553  0.95302162  0.41568083  1
  Si  Si49  1  0.16871967  0.37923827  0.41420525  1
  Si  Si50  1  0.67182375  0.38493923  0.41406262  1
  S  S51  1  0.35680488  0.70744205  0.25089909  1
  S  S52  1  0.85911833  0.71221718  0.24916074  1
  S  S53  1  0.99907230  0.28710348  0.24937529  1
  S  S54  1  0.99926185  0.71273560  0.75092923  1
  S  S55  1  0.49896430  0.71128868  0.74938116  1
  S  S56  1  0.35850470  0.00574393  0.74936878  1
  S  S57  1  0.85753643  0.00597188  0.75094648  1
  S  S58  1  0.19030864  0.04581982  0.58370988  1
  S  S59  1  0.69017925  0.04514578  0.58490564  1
  S  S60  1  0.18924463  0.33712862  0.08458398  1
  S  S61  1  0.69010782  0.33533785  0.08341635  1
  S  S62  1  0.02389762  0.37985193  0.91591044  1
  S  S63  1  0.52352064  0.37975621  0.91654775  1
  S  S64  1  0.02441350  0.66840120  0.41674030  1
  S  S65  1  0.52521525  0.67166907  0.41669697  1
  O  O66  1  0.09663353  0.03150661  0.30551614  1
  O  O67  1  0.59408705  0.02882538  0.30717134  1
  O  O68  1  0.40923708  0.78561307  0.30196739  1
  O  O69  1  0.91170682  0.79125873  0.30032220  1
  O  O70  1  0.48325786  0.16356452  0.30754739  1
  O  O71  1  0.98072876  0.17686304  0.30177195  1
  O  O72  1  0.09339145  0.15921894  0.80700338  1
  O  O73  1  0.59785769  0.16219922  0.80542669  1
  O  O74  1  0.48081174  0.78506299  0.80174960  1
  O  O75  1  0.98223795  0.78941489  0.80309048  1
  O  O76  1  0.41028155  0.02991188  0.80053602  1
  O  O77  1  0.91049659  0.03039723  0.80174944  1
  O  O78  1  0.39982516  0.97997909  0.69671839  1
  O  O79  1  0.89733683  0.97866913  0.69808490  1
  O  O80  1  0.08728143  0.18849931  0.69467138  1
  O  O81  1  0.58437473  0.18104206  0.69367324  1
  O  O82  1  0.00936352  0.81349639  0.69865681  1
  O  O83  1  0.50980836  0.81558493  0.69759693  1
  O  O84  1  0.39596896  0.81215717  0.19786733  1
  O  O85  1  0.90156699  0.82063368  0.19645785  1
  O  O86  1  0.00978520  0.20407140  0.19752006  1
  O  O87  1  0.50960071  0.19351723  0.19307319  1
  O  O88  1  0.08299929  0.98545293  0.19353145  1
  O  O89  1  0.58873665  0.98098820  0.19328822  1
  O  O90  1  0.42564681  0.35575906  0.64081453  1
  O  O91  1  0.92665422  0.35503244  0.64002174  1
  O  O92  1  0.24356641  0.13075656  0.63600028  1
  O  O93  1  0.74389251  0.12959160  0.63647950  1
  O  O94  1  0.31858688  0.49958936  0.64061069  1
  O  O95  1  0.82020035  0.50211786  0.63966618  1
  O  O96  1  0.42648438  0.49883220  0.13951737  1
  O  O97  1  0.92613848  0.49617071  0.14046404  1
  O  O98  1  0.32122473  0.13783517  0.13992603  1
  O  O99  1  0.81860160  0.13906742  0.14041428  1
  O  O100  1  0.24185873  0.36374835  0.13563878  1
  O  O101  1  0.74355009  0.35815483  0.13527576  1
  O  O102  1  0.22499073  0.29890060  0.03237631  1
  O  O103  1  0.73038644  0.30608078  0.03135566  1
  O  O104  1  0.41678963  0.53235854  0.02671164  1
  O  O105  1  0.91606442  0.53409759  0.02708910  1
  O  O106  1  0.34628618  0.16284903  0.02574133  1
  O  O107  1  0.85210303  0.16797540  0.02766068  1
  O  O108  1  0.22844468  0.15589892  0.53211023  1
  O  O109  1  0.72604528  0.15454785  0.53314572  1
  O  O110  1  0.35197169  0.53514162  0.52816208  1
  O  O111  1  0.84823508  0.53071302  0.52639427  1
  O  O112  1  0.41454155  0.29550993  0.52806847  1
  O  O113  1  0.91577318  0.29980245  0.52761241  1
  O  O114  1  0.25789056  0.68206488  0.97411294  1
  O  O115  1  0.76082264  0.68751195  0.97315480  1
  O  O116  1  0.07439557  0.45086869  0.96760304  1
  O  O117  1  0.57511624  0.45573048  0.96813564  1
  O  O118  1  0.15348504  0.83459288  0.97327972  1
  O  O119  1  0.65578643  0.83718618  0.97386479  1
  O  O120  1  0.25848312  0.83234090  0.47352511  1
  O  O121  1  0.75767272  0.83300494  0.47423215  1
  O  O122  1  0.15498433  0.47216969  0.47406813  1
  O  O123  1  0.65402320  0.46983600  0.47386482  1
  O  O124  1  0.07515631  0.69352081  0.46853846  1
  O  O125  1  0.57531030  0.69418314  0.46879384  1
  O  O126  1  0.06404489  0.64388276  0.36384262  1
  O  O127  1  0.56403703  0.64095134  0.36460462  1
  O  O128  1  0.25060148  0.86693988  0.36008743  1
  O  O129  1  0.75225481  0.86533935  0.36005895  1
  O  O130  1  0.17557139  0.49421710  0.35877806  1
  O  O131  1  0.68300429  0.50091264  0.35907606  1
  O  O132  1  0.06366061  0.48485591  0.86323276  1
  O  O133  1  0.56377707  0.48402775  0.86355719  1
  O  O134  1  0.17750649  0.85886629  0.85803199  1
  O  O135  1  0.67656328  0.85811528  0.85861634  1
  O  O136  1  0.25246420  0.63899388  0.86040768  1
  O  O137  1  0.75095453  0.63397462  0.85944392  1
  O  O138  1  0.01295823  0.82169626  0.40976306  1
  O  O139  1  0.51335565  0.82210255  0.40827967  1
  O  O140  1  0.40194151  0.95705794  0.40559377  1
  O  O141  1  0.90338271  0.96216513  0.41115061  1
  O  O142  1  0.08076892  0.18841354  0.41269728  1
  O  O143  1  0.58230021  0.19419918  0.40874404  1
  O  O144  1  0.01219727  0.20222048  0.90672804  1
  O  O145  1  0.51245896  0.20390691  0.90883863  1
  O  O146  1  0.08185325  0.96913731  0.90668149  1
  O  O147  1  0.58174333  0.97317609  0.91259503  1
  O  O148  1  0.40314249  0.84319018  0.90995930  1
  O  O149  1  0.90328631  0.84063046  0.90157094  1
  O  O150  1  0.49051704  0.17605006  0.59691267  1
  O  O151  1  0.99298098  0.17481891  0.59080861  1
  O  O152  1  0.10288965  0.02434717  0.59247999  1
  O  O153  1  0.60194552  0.02479892  0.59505552  1
  O  O154  1  0.41940609  0.81249683  0.60171583  1
  O  O155  1  0.92039897  0.81351775  0.59349332  1
  O  O156  1  0.49353402  0.81508402  0.08954905  1
  O  O157  1  0.99069270  0.80576130  0.09585891  1
  O  O158  1  0.42053843  0.02242726  0.08899827  1
  O  O159  1  0.91943447  0.02699254  0.10121793  1
  O  O160  1  0.10035974  0.17981115  0.09386263  1
  O  O161  1  0.60402583  0.18025290  0.08976818  1
  O  O162  1  0.34765104  0.15869563  0.74145303  1
  O  O163  1  0.84755354  0.16050806  0.74335709  1
  O  O164  1  0.24029108  0.29978425  0.74264527  1
  O  O165  1  0.74010823  0.30243229  0.73885148  1
  O  O166  1  0.41875113  0.53311150  0.74275724  1
  O  O167  1  0.91855065  0.53439641  0.74486596  1
  O  O168  1  0.34479138  0.53154556  0.24333348  1
  O  O169  1  0.84933908  0.53807697  0.24114655  1
  O  O170  1  0.41342448  0.30500210  0.24409206  1
  O  O171  1  0.91870492  0.30422603  0.24283451  1
  O  O172  1  0.23757097  0.17832546  0.23821352  1
  O  O173  1  0.74023026  0.18495728  0.24175658  1
  O  O174  1  0.32262571  0.49810532  0.92240164  1
  O  O175  1  0.82645301  0.50265355  0.92253639  1
  O  O176  1  0.43617347  0.36031206  0.92141393  1
  O  O177  1  0.93581940  0.35664514  0.92097000  1
  O  O178  1  0.25212248  0.14735091  0.92209467  1
  O  O179  1  0.75376816  0.14624238  0.92283398  1
  O  O180  1  0.32500476  0.14672607  0.42377047  1
  O  O181  1  0.82378651  0.14619942  0.42363242  1
  O  O182  1  0.25298253  0.36037254  0.42342562  1
  O  O183  1  0.75256515  0.35601645  0.42361616  1
  O  O184  1  0.43711055  0.51381437  0.42269153  1
  O  O185  1  0.93675295  0.51248430  0.42168057  1
  O  O186  1  0.17605640  0.48396390  0.07496244  1
  O  O187  1  0.68223057  0.48957763  0.07597480  1
  O  O188  1  0.07018419  0.62780149  0.07210392  1
  O  O189  1  0.57021284  0.62682351  0.07064673  1
  O  O190  1  0.24994660  0.86099521  0.07501967  1
  O  O191  1  0.75187567  0.85916700  0.07552657  1
  O  O192  1  0.18193419  0.87536664  0.57709141  1
  O  O193  1  0.67900778  0.87334487  0.57793885  1
  O  O194  1  0.25200435  0.64606929  0.57559280  1
  O  O195  1  0.74966657  0.64165356  0.57460088  1
  O  O196  1  0.07046671  0.51625059  0.57206386  1
  O  O197  1  0.57015723  0.51346804  0.57296919  1
  O  O198  1  0.15189220  0.83189259  0.25665629  1
  O  O199  1  0.66058328  0.84625593  0.26013169  1
  O  O200  1  0.26989727  0.68997798  0.25711746  1
  O  O201  1  0.77341234  0.69526526  0.25401004  1
  O  O202  1  0.07342592  0.45831559  0.25713241  1
  O  O203  1  0.58252929  0.47762472  0.26128898  1
  O  O204  1  0.15467040  0.47253833  0.75997343  1
  O  O205  1  0.65335943  0.47386347  0.75636381  1
  O  O206  1  0.07352723  0.68832885  0.75880863  1
  O  O207  1  0.57353512  0.68856221  0.75711679  1
  O  O208  1  0.27157358  0.85021012  0.75467647  1
  O  O209  1  0.77059915  0.85141069  0.75694760  1
