# generated using pymatgen
data_Na3Mg3SnPS5O24
_symmetry_space_group_name_H-M   'P 1'
_cell_length_a   8.77059863
_cell_length_b   8.75080223
_cell_length_c   22.60427111
_cell_angle_alpha   90.29177185
_cell_angle_beta   89.80879959
_cell_angle_gamma   120.24035074
_symmetry_Int_Tables_number   1
_chemical_formula_structural   Na3Mg3SnPS5O24
_chemical_formula_sum   'Na9 Mg9 Sn3 P3 S15 O72'
_cell_volume   1498.77177083
_cell_formula_units_Z   3
loop_
 _symmetry_equiv_pos_site_id
 _symmetry_equiv_pos_as_xyz
  1  'x, y, z'
loop_
 _atom_site_type_symbol
 _atom_site_label
 _atom_site_symmetry_multiplicity
 _atom_site_fract_x
 _atom_site_fract_y
 _atom_site_fract_z
 _atom_site_occupancy
  Na  Na0  1  0.36187350  0.36195854  0.25191568  1
  Na  Na1  1  0.02430261  0.69690308  0.58573801  1
  Na  Na2  1  0.29998549  0.96646777  0.07905469  1
  Na  Na3  1  0.98955666  0.00071165  0.50134066  1
  Na  Na4  1  0.99935802  0.01007897  0.99108691  1
  Na  Na5  1  0.66733162  0.32682108  0.82958936  1
  Na  Na6  1  0.67889454  0.33235636  0.33212257  1
  Na  Na7  1  0.33325187  0.66662655  0.16798074  1
  Na  Na8  1  0.35385412  0.66362442  0.66487153  1
  Mg  Mg9  1  0.99640281  0.99679847  0.35160752  1
  Mg  Mg10  1  0.00630683  0.00553520  0.85248618  1
  Mg  Mg11  1  0.99281654  0.00046704  0.65071302  1
  Mg  Mg12  1  0.99222739  0.99757637  0.15054885  1
  Mg  Mg13  1  0.66224376  0.33653829  0.68600208  1
  Mg  Mg14  1  0.67444280  0.33465379  0.18598130  1
  Mg  Mg15  1  0.32885881  0.66155730  0.01436215  1
  Mg  Mg16  1  0.34441700  0.66567205  0.51852405  1
  Mg  Mg17  1  0.33378547  0.67411560  0.31717570  1
  Sn  Sn18  1  0.67128337  0.33119487  0.97896963  1
  Sn  Sn19  1  0.66577078  0.33665615  0.48382892  1
  Sn  Sn20  1  0.32845373  0.66782635  0.81697237  1
  P  P21  1  0.66605315  0.63015385  0.58581995  1
  P  P22  1  0.04174206  0.37020275  0.91815923  1
  P  P23  1  0.32811772  0.95912512  0.92002539  1
  S  S24  1  0.29242222  0.99780711  0.24868638  1
  S  S25  1  0.70571159  0.70641582  0.25043701  1
  S  S26  1  -0.00025901  0.29297309  0.25083222  1
  S  S27  1  0.29257445  0.29251872  0.75042612  1
  S  S28  1  -0.00044611  0.70734785  0.74961384  1
  S  S29  1  0.70666482  0.00038253  0.75110198  1
  S  S30  1  0.95969408  0.33076552  0.58399008  1
  S  S31  1  0.37194539  0.03902023  0.58468596  1
  S  S32  1  0.95911241  0.62654576  0.08486620  1
  S  S33  1  0.66866184  0.03825731  0.08486557  1
  S  S34  1  0.37468438  0.33683024  0.08565134  1
  S  S35  1  0.62748257  0.66916910  0.91788867  1
  S  S36  1  0.62752670  0.96176891  0.41720170  1
  S  S37  1  0.33127427  0.37091589  0.41543065  1
  S  S38  1  0.04120105  0.66771938  0.41780802  1
  O  O39  1  0.20712578  0.02877569  0.30002063  1
  O  O40  1  0.81192977  0.78801246  0.30338239  1
  O  O41  1  0.97499598  0.18561740  0.30353181  1
  O  O42  1  0.20947258  0.19242154  0.80386502  1
  O  O43  1  0.98208366  0.79454578  0.80203937  1
  O  O44  1  0.80790592  0.01911684  0.80438618  1
  O  O45  1  0.78201428  0.97094067  0.69727382  1
  O  O46  1  0.18686485  0.21452712  0.69690353  1
  O  O47  1  0.02641965  0.80892748  0.69469188  1
  O  O48  1  0.78530993  0.81066900  0.19665029  1
  O  O49  1  0.03197387  0.21357717  0.19743859  1
  O  O50  1  0.19042583  0.97365873  0.19347552  1
  O  O51  1  0.87243753  0.36016394  0.63428461  1
  O  O52  1  0.48714409  0.12443102  0.63465345  1
  O  O53  1  0.64240794  0.50996186  0.63694291  1
  O  O54  1  0.87168110  0.51590109  0.13584112  1
  O  O55  1  0.63661516  0.12485978  0.13552038  1
  O  O56  1  0.48132023  0.35892826  0.13879880  1
  O  O57  1  0.45702447  0.29938825  0.03211053  1
  O  O58  1  0.85110899  0.55027710  0.02942356  1
  O  O59  1  0.69992686  0.14700797  0.02967291  1
  O  O60  1  0.44591951  0.14357105  0.52771193  1
  O  O61  1  0.71342592  0.55515577  0.52668129  1
  O  O62  1  0.84951278  0.29286746  0.52770656  1
  O  O63  1  0.54413063  0.69068555  0.97051900  1
  O  O64  1  0.15004396  0.45694294  0.97270556  1
  O  O65  1  0.31430667  0.86071277  0.97724512  1
  O  O66  1  0.54406829  0.86047217  0.47055990  1
  O  O67  1  0.31278936  0.45729774  0.46797880  1
  O  O68  1  0.13862871  0.68573203  0.47289448  1
  O  O69  1  0.12394472  0.64090510  0.36549365  1
  O  O70  1  0.52163529  0.88500274  0.36359950  1
  O  O71  1  0.36045669  0.47480159  0.36074279  1
  O  O72  1  0.11851136  0.48343312  0.86055142  1
  O  O73  1  0.37181580  0.88051632  0.86432726  1
  O  O74  1  0.51733151  0.63144287  0.86319284  1
  O  O75  1  0.01697599  0.82217183  0.41188643  1
  O  O76  1  0.80638731  0.98678502  0.41144837  1
  O  O77  1  0.17601877  0.19160215  0.41014900  1
  O  O78  1  0.01250847  0.18526510  0.91029736  1
  O  O79  1  0.16508530  0.97390127  0.91131562  1
  O  O80  1  0.80228284  0.82282384  0.91003617  1
  O  O81  1  0.98434920  0.17832836  0.58982954  1
  O  O82  1  0.19539028  0.02106802  0.59031251  1
  O  O83  1  0.83643417  0.81284805  0.58986445  1
  O  O84  1  0.98212295  0.80669091  0.08978428  1
  O  O85  1  0.82541930  0.02084663  0.09088707  1
  O  O86  1  0.19858664  0.17306573  0.08969674  1
  O  O87  1  0.68113711  0.15455665  0.74513602  1
  O  O88  1  0.47119931  0.31568598  0.74528619  1
  O  O89  1  0.84549761  0.52653697  0.74509639  1
  O  O90  1  0.68098633  0.52399235  0.24475789  1
  O  O91  1  0.84315823  0.31372090  0.24413767  1
  O  O92  1  0.47060661  0.16196022  0.24364335  1
  O  O93  1  0.64317538  0.50474619  0.92240601  1
  O  O94  1  0.85557323  0.36066759  0.92094329  1
  O  O95  1  0.49846362  0.15115298  0.92200425  1
  O  O96  1  0.64553624  0.14622522  0.42174687  1
  O  O97  1  0.49630986  0.35295487  0.41998981  1
  O  O98  1  0.85830161  0.49957559  0.42031997  1
  O  O99  1  0.36022006  0.49447241  0.07777988  1
  O  O100  1  0.13675635  0.64610743  0.07883438  1
  O  O101  1  0.50610043  0.86299019  0.07794532  1
  O  O102  1  0.34669568  0.85896322  0.57663076  1
  O  O103  1  0.50174580  0.64527195  0.57670150  1
  O  O104  1  0.13139664  0.49663998  0.57541005  1
  O  O105  1  0.31294223  0.84127786  0.25550472  1
  O  O106  1  0.52375943  0.68170502  0.25602629  1
  O  O107  1  0.16293054  0.47187548  0.25668302  1
  O  O108  1  0.31369293  0.47843011  0.75457868  1
  O  O109  1  0.16632896  0.69168080  0.75323580  1
  O  O110  1  0.52226762  0.83207167  0.75518069  1
