# generated using pymatgen
data_Na8Ca3Si3Ge(SO8)3
_symmetry_space_group_name_H-M   'P 1'
_cell_length_a   9.41267645
_cell_length_b   9.43853378
_cell_length_c   22.68354882
_cell_angle_alpha   90.53413128
_cell_angle_beta   88.83261779
_cell_angle_gamma   120.65048179
_symmetry_Int_Tables_number   1
_chemical_formula_structural   Na8Ca3Si3Ge(SO8)3
_chemical_formula_sum   'Na24 Ca9 Si9 Ge3 S9 O72'
_cell_volume   1733.34363013
_cell_formula_units_Z   3
loop_
 _symmetry_equiv_pos_site_id
 _symmetry_equiv_pos_as_xyz
  1  'x, y, z'
loop_
 _atom_site_type_symbol
 _atom_site_label
 _atom_site_symmetry_multiplicity
 _atom_site_fract_x
 _atom_site_fract_y
 _atom_site_fract_z
 _atom_site_occupancy
  Na  Na0  1  0.63283381  0.99978517  0.26489419  1
  Na  Na1  1  0.36681130  0.36898658  0.23940923  1
  Na  Na2  1  0.99714885  0.62184269  0.25292713  1
  Na  Na3  1  0.62670369  0.64995607  0.73102897  1
  Na  Na4  1  0.98779232  0.34218160  0.75613504  1
  Na  Na5  1  0.36810446  0.00884888  0.73506750  1
  Na  Na6  1  0.32129670  0.33215800  0.58065818  1
  Na  Na7  1  0.04799903  0.72453843  0.56463539  1
  Na  Na8  1  0.64696914  0.93641029  0.57690350  1
  Na  Na9  1  0.27906165  0.95536088  0.06887727  1
  Na  Na10  1  0.66392926  0.67738839  0.08033114  1
  Na  Na11  1  0.06274886  0.35194538  0.07202834  1
  Na  Na12  1  0.98525509  0.67949375  0.92711162  1
  Na  Na13  1  0.70899094  0.04748206  0.90543673  1
  Na  Na14  1  0.31604252  0.30135562  0.92520319  1
  Na  Na15  1  0.97457065  0.32631112  0.41946929  1
  Na  Na16  1  0.33243193  0.00560502  0.43271370  1
  Na  Na17  1  0.69329291  0.67979757  0.44020760  1
  Na  Na18  1  0.99471675  0.98583393  0.49910287  1
  Na  Na19  1  0.02246340  0.00768153  0.99877281  1
  Na  Na20  1  0.66330855  0.31582052  0.83560166  1
  Na  Na21  1  0.67881332  0.33139220  0.34685439  1
  Na  Na22  1  0.31015369  0.64803771  0.15508943  1
  Na  Na23  1  0.36410605  0.69156321  0.65615148  1
  Ca  Ca24  1  0.99307232  0.99325988  0.35356516  1
  Ca  Ca25  1  0.00109411  0.00601726  0.84949232  1
  Ca  Ca26  1  0.97845766  0.98078078  0.64714839  1
  Ca  Ca27  1  0.00824521  0.99638123  0.14227127  1
  Ca  Ca28  1  0.66235724  0.32769101  0.68283036  1
  Ca  Ca29  1  0.66641804  0.33637799  0.18014721  1
  Ca  Ca30  1  0.33559962  0.66936494  0.01370109  1
  Ca  Ca31  1  0.33876964  0.67206547  0.51327461  1
  Ca  Ca32  1  0.32586921  0.68022631  0.33008700  1
  Si  Si33  1  0.67417097  0.98185900  0.75800793  1
  Si  Si34  1  0.36729178  0.03925174  0.58404313  1
  Si  Si35  1  0.66561464  0.62179269  0.58408672  1
  Si  Si36  1  0.95905348  0.62583059  0.08140413  1
  Si  Si37  1  0.37718375  0.33246243  0.08143042  1
  Si  Si38  1  0.03433898  0.38252624  0.91843108  1
  Si  Si39  1  0.34823915  0.98858514  0.92411624  1
  Si  Si40  1  0.64701216  0.99506401  0.41930613  1
  Si  Si41  1  0.00563812  0.65188278  0.41923835  1
  Ge  Ge42  1  0.67066400  0.33289454  0.98393154  1
  Ge  Ge43  1  0.66765753  0.33074482  0.48872879  1
  Ge  Ge44  1  0.32340966  0.70629649  0.82603359  1
  S  S45  1  0.30286978  0.99226307  0.24941413  1
  S  S46  1  0.68807200  0.69542393  0.25001030  1
  S  S47  1  0.00468906  0.30427285  0.24788235  1
  S  S48  1  0.30158162  0.31310824  0.75113541  1
  S  S49  1  0.01241174  0.69522387  0.75562337  1
  S  S50  1  0.95924178  0.32631436  0.58214548  1
  S  S51  1  0.67602962  0.04415300  0.08009916  1
  S  S52  1  0.62986491  0.65519769  0.91533682  1
  S  S53  1  0.34294173  0.35994434  0.41426157  1
  O  O54  1  0.21597839  0.00221291  0.30257259  1
  O  O55  1  0.78412783  0.78808896  0.30161157  1
  O  O56  1  0.00519268  0.21336797  0.30026280  1
  O  O57  1  0.22254891  0.21516033  0.80509767  1
  O  O58  1  0.99493979  0.77238498  0.80934953  1
  O  O59  1  0.78565598  0.00226295  0.81367462  1
  O  O60  1  0.73597007  0.93357400  0.69730111  1
  O  O61  1  0.20578528  0.22047904  0.69861099  1
  O  O62  1  0.03036185  0.79193809  0.70245445  1
  O  O63  1  0.77091727  0.78604182  0.19499987  1
  O  O64  1  0.00733924  0.21786729  0.19332252  1
  O  O65  1  0.21310396  0.98830808  0.19591921  1
  O  O66  1  0.88886122  0.34573331  0.63804894  1
  O  O67  1  0.45865326  0.11424882  0.64555564  1
  O  O68  1  0.66504203  0.54195574  0.64663693  1
  O  O69  1  0.88393062  0.53778537  0.14406100  1
  O  O70  1  0.65722163  0.11702274  0.13503895  1
  O  O71  1  0.45670991  0.33647418  0.14424790  1
  O  O72  1  0.48985610  0.31299885  0.02299142  1
  O  O73  1  0.83294273  0.51025729  0.02274999  1
  O  O74  1  0.68899247  0.14561197  0.02666452  1
  O  O75  1  0.48306982  0.16853944  0.52686611  1
  O  O76  1  0.67421008  0.50467607  0.52726533  1
  O  O77  1  0.85704215  0.31649088  0.53020860  1
  O  O78  1  0.56682662  0.67978914  0.97209626  1
  O  O79  1  0.13877355  0.44754866  0.97684224  1
  O  O80  1  0.32064414  0.87847955  0.98045517  1
  O  O81  1  0.56570705  0.85867780  0.47093576  1
  O  O82  1  0.31795425  0.43681325  0.46729409  1
  O  O83  1  0.13504472  0.68246049  0.47053342  1
  O  O84  1  0.06636436  0.60840065  0.35617898  1
  O  O85  1  0.53479739  0.92905499  0.35902731  1
  O  O86  1  0.35124572  0.45390950  0.36062947  1
  O  O87  1  0.14792484  0.52904676  0.86037989  1
  O  O88  1  0.37359909  0.89120487  0.86386953  1
  O  O89  1  0.52368388  0.64707975  0.86581269  1
  O  O90  1  0.97782129  0.80964534  0.41749609  1
  O  O91  1  0.84004358  0.04604704  0.41266228  1
  O  O92  1  0.20428440  0.18695693  0.41161769  1
  O  O93  1  0.00331764  0.20141534  0.90475755  1
  O  O94  1  0.19450947  0.01707669  0.91456011  1
  O  O95  1  0.80468688  0.79231716  0.90911215  1
  O  O96  1  0.96277354  0.17051674  0.58186960  1
  O  O97  1  0.19029096  0.03331933  0.57868046  1
  O  O98  1  0.83055997  0.80442612  0.57395504  1
  O  O99  1  0.96012258  0.79987227  0.07337641  1
  O  O100  1  0.83090886  0.03792662  0.07951553  1
  O  O101  1  0.19346625  0.16834778  0.07370320  1
  O  O102  1  0.65276606  0.14366912  0.75527661  1
  O  O103  1  0.47388280  0.34431838  0.74996074  1
  O  O104  1  0.87504338  0.52220435  0.75214596  1
  O  O105  1  0.67201260  0.52909572  0.25193063  1
  O  O106  1  0.85136897  0.31585362  0.25141297  1
  O  O107  1  0.47474938  0.13777115  0.24965979  1
  O  O108  1  0.62854597  0.49425196  0.91446608  1
  O  O109  1  0.84814729  0.37541492  0.92104347  1
  O  O110  1  0.53514365  0.17073566  0.92588080  1
  O  O111  1  0.64620598  0.17268373  0.43281953  1
  O  O112  1  0.50101339  0.35988070  0.41699409  1
  O  O113  1  0.82086976  0.47807815  0.43242944  1
  O  O114  1  0.37043826  0.50175309  0.07784357  1
  O  O115  1  0.14479363  0.65384222  0.07821350  1
  O  O116  1  0.53268734  0.87482417  0.07630202  1
  O  O117  1  0.34399968  0.85517229  0.57887442  1
  O  O118  1  0.49613008  0.62906940  0.57971666  1
  O  O119  1  0.12914879  0.46812732  0.57572469  1
  O  O120  1  0.31253975  0.83837294  0.24936275  1
  O  O121  1  0.51947375  0.67488061  0.25266277  1
  O  O122  1  0.15496931  0.47354917  0.24653860  1
  O  O123  1  0.30383276  0.47221196  0.75277254  1
  O  O124  1  0.17566539  0.69358107  0.75805843  1
  O  O125  1  0.47936336  0.79981115  0.76724202  1
