# generated using pymatgen
data_Na10Zr4Si9Sn4(SO16)3
_symmetry_space_group_name_H-M   'P 1'
_cell_length_a   18.16554628
_cell_length_b   9.09309639
_cell_length_c   22.94116523
_cell_angle_alpha   90.00839307
_cell_angle_beta   90.06065419
_cell_angle_gamma   119.88594663
_symmetry_Int_Tables_number   1
_chemical_formula_structural   Na10Zr4Si9Sn4(SO16)3
_chemical_formula_sum   'Na30 Zr12 Si27 Sn12 S9 O144'
_cell_volume   3285.51887113
_cell_formula_units_Z   3
loop_
 _symmetry_equiv_pos_site_id
 _symmetry_equiv_pos_as_xyz
  1  'x, y, z'
loop_
 _atom_site_type_symbol
 _atom_site_label
 _atom_site_symmetry_multiplicity
 _atom_site_fract_x
 _atom_site_fract_y
 _atom_site_fract_z
 _atom_site_occupancy
  Na  Na0  1  0.32192381  0.99970615  0.24936291  1
  Na  Na1  1  0.82086287  0.99868890  0.24945829  1
  Na  Na2  1  0.18356699  0.98914077  0.74755768  1
  Na  Na3  1  0.68421353  0.99496860  0.74726670  1
  Na  Na4  1  0.01701487  0.70356831  0.58098153  1
  Na  Na5  1  0.51742067  0.70562332  0.57989392  1
  Na  Na6  1  0.01605140  0.32935525  0.08061220  1
  Na  Na7  1  0.51723769  0.32761371  0.07983275  1
  Na  Na8  1  0.48369230  0.66596777  0.91369704  1
  Na  Na9  1  0.34977164  0.03106373  0.91541924  1
  Na  Na10  1  0.85138549  0.04121369  0.91340471  1
  Na  Na11  1  0.16519872  0.30623309  0.91931452  1
  Na  Na12  1  0.48508402  0.30542707  0.41437241  1
  Na  Na13  1  0.98432671  0.30435481  0.41400730  1
  Na  Na14  1  0.16569256  0.02834438  0.41872201  1
  Na  Na15  1  0.66608073  0.02726460  0.41896247  1
  Na  Na16  1  0.34896455  0.66731214  0.41669014  1
  Na  Na17  1  0.84992244  0.66815491  0.41535834  1
  Na  Na18  1  0.00033521  0.00082891  0.50163594  1
  Na  Na19  1  0.50183140  0.00184631  0.50092131  1
  Na  Na20  1  0.00493623  0.99838341  0.00205409  1
  Na  Na21  1  0.50626375  0.01040524  0.99792390  1
  Na  Na22  1  0.34316362  0.34259620  0.83198637  1
  Na  Na23  1  0.84459861  0.34583708  0.83319776  1
  Na  Na24  1  0.34013609  0.35154132  0.33152045  1
  Na  Na25  1  0.83927739  0.35109406  0.33064924  1
  Na  Na26  1  0.17208984  0.65881972  0.16496468  1
  Na  Na27  1  0.67360860  0.65847899  0.16681983  1
  Na  Na28  1  0.17627423  0.67590131  0.66690554  1
  Na  Na29  1  0.67698163  0.67538885  0.66583088  1
  Zr  Zr30  1  0.49538945  0.99595790  0.35165321  1
  Zr  Zr31  1  0.49332973  0.98449031  0.64801861  1
  Zr  Zr32  1  0.49731821  0.00905717  0.14607190  1
  Zr  Zr33  1  0.33314202  0.33385580  0.68655154  1
  Zr  Zr34  1  0.83485592  0.33490884  0.68737271  1
  Zr  Zr35  1  0.32983382  0.33600374  0.18499038  1
  Zr  Zr36  1  0.32719128  0.32156492  0.97943224  1
  Zr  Zr37  1  0.32712218  0.33071181  0.48174128  1
  Zr  Zr38  1  0.82928127  0.33404098  0.48200323  1
  Zr  Zr39  1  0.67494468  0.67759645  0.51873007  1
  Zr  Zr40  1  0.16483256  0.65321985  0.31339237  1
  Zr  Zr41  1  0.66632017  0.65435657  0.31370619  1
  Si  Si42  1  0.35237603  0.70306203  0.24975659  1
  Si  Si43  1  0.85608716  0.70532549  0.24901685  1
  Si  Si44  1  0.99855516  0.29490797  0.24844282  1
  Si  Si45  1  0.50001534  0.30026825  0.24947484  1
  Si  Si46  1  0.00060008  0.70562106  0.75209052  1
  Si  Si47  1  0.49930055  0.70474144  0.75206623  1
  Si  Si48  1  0.35148361  0.99622554  0.75318650  1
  Si  Si49  1  0.85399154  0.99539520  0.75222302  1
  Si  Si50  1  0.18259345  0.03464392  0.58519539  1
  Si  Si51  1  0.68448276  0.03819693  0.58513445  1
  Si  Si52  1  0.32815977  0.62377809  0.58251775  1
  Si  Si53  1  0.83235200  0.62769769  0.58442029  1
  Si  Si54  1  0.32791322  0.03162525  0.08331051  1
  Si  Si55  1  0.83051674  0.03693761  0.08416171  1
  Si  Si56  1  0.18275223  0.33160764  0.08256256  1
  Si  Si57  1  0.69000602  0.33748446  0.08208729  1
  Si  Si58  1  0.31192147  0.66710830  0.91460167  1
  Si  Si59  1  0.01997379  0.37897144  0.91740369  1
  Si  Si60  1  0.52513291  0.37792751  0.91713125  1
  Si  Si61  1  0.16119205  0.95026131  0.91648987  1
  Si  Si62  1  0.66688763  0.95979120  0.91665234  1
  Si  Si63  1  0.31174812  0.95865441  0.41478769  1
  Si  Si64  1  0.81473653  0.96283817  0.41329688  1
  Si  Si65  1  0.16351347  0.37317360  0.41778455  1
  Si  Si66  1  0.66552833  0.37304797  0.41805319  1
  Si  Si67  1  0.02229878  0.66930131  0.41765736  1
  Si  Si68  1  0.52100675  0.66511285  0.41803309  1
  Sn  Sn69  1  0.99569997  0.99674179  0.35121864  1
  Sn  Sn70  1  0.99874665  0.99780767  0.85172351  1
  Sn  Sn71  1  0.49735140  0.99835785  0.85395266  1
  Sn  Sn72  1  0.99492586  0.98140818  0.64923606  1
  Sn  Sn73  1  0.99641047  0.00769559  0.14715395  1
  Sn  Sn74  1  0.83187426  0.33717560  0.18494358  1
  Sn  Sn75  1  0.82987567  0.31986061  0.98194234  1
  Sn  Sn76  1  0.17188785  0.67052073  0.01695697  1
  Sn  Sn77  1  0.66882918  0.66870360  0.01941370  1
  Sn  Sn78  1  0.17224494  0.67529323  0.51777994  1
  Sn  Sn79  1  0.16574486  0.67057943  0.81677750  1
  Sn  Sn80  1  0.66485338  0.67479615  0.81382324  1
  S  S81  1  0.14378294  0.99964538  0.24953721  1
  S  S82  1  0.64743270  0.00156356  0.24984591  1
  S  S83  1  0.14363399  0.29172281  0.74931631  1
  S  S84  1  0.64484505  0.29396958  0.75117930  1
  S  S85  1  0.47992180  0.33317379  0.58304077  1
  S  S86  1  0.98117673  0.33012057  0.58352634  1
  S  S87  1  0.48029320  0.62530836  0.08241782  1
  S  S88  1  0.97888081  0.62642307  0.08273000  1
  S  S89  1  0.81253055  0.66396023  0.91613608  1
  O  O90  1  0.10711721  0.02622068  0.30403046  1
  O  O91  1  0.60823025  0.02311268  0.30334233  1
  O  O92  1  0.40739991  0.78739598  0.30963729  1
  O  O93  1  0.91123969  0.78362788  0.30983142  1
  O  O94  1  0.48658510  0.18053108  0.30694717  1
  O  O95  1  0.98055293  0.17486630  0.30723270  1
  O  O96  1  0.10803847  0.18924803  0.80385343  1
  O  O97  1  0.60687608  0.18580648  0.80375794  1
  O  O98  1  0.48894148  0.79484073  0.81076746  1
  O  O99  1  0.98543923  0.79853985  0.80802801  1
  O  O100  1  0.40957732  0.03375582  0.81204697  1
  O  O101  1  0.90887855  0.02931274  0.81269518  1
  O  O102  1  0.40111234  0.97803149  0.69667980  1
  O  O103  1  0.90045389  0.97395976  0.69465211  1
  O  O104  1  0.09036130  0.20904804  0.69787587  1
  O  O105  1  0.59311217  0.21634175  0.69868056  1
  O  O106  1  0.02424888  0.82679043  0.69316894  1
  O  O107  1  0.51782460  0.82781353  0.69459570  1
  O  O108  1  0.40423443  0.82959865  0.19533999  1
  O  O109  1  0.90206732  0.83142569  0.19335158  1
  O  O110  1  0.01665429  0.21460381  0.19015428  1
  O  O111  1  0.51283942  0.20759000  0.19157403  1
  O  O112  1  0.09095436  0.97623961  0.19761054  1
  O  O113  1  0.59500081  0.98189622  0.19764738  1
  O  O114  1  0.43694718  0.35663622  0.63422347  1
  O  O115  1  0.93846377  0.35604402  0.63464473  1
  O  O116  1  0.24180887  0.12464642  0.64235713  1
  O  O117  1  0.74281450  0.12871121  0.64276995  1
  O  O118  1  0.32157919  0.50589279  0.63819156  1
  O  O119  1  0.82590083  0.50884606  0.63950676  1
  O  O120  1  0.43841513  0.51627309  0.13370754  1
  O  O121  1  0.94084132  0.51747649  0.13526868  1
  O  O122  1  0.32055499  0.12830369  0.14149587  1
  O  O123  1  0.81820346  0.12566643  0.14288391  1
  O  O124  1  0.24427715  0.36112141  0.13818211  1
  O  O125  1  0.74874183  0.37205604  0.13977051  1
  O  O126  1  0.22732416  0.30946923  0.02372691  1
  O  O127  1  0.73390000  0.31357303  0.02352272  1
  O  O128  1  0.43025473  0.55092993  0.02899549  1
  O  O129  1  0.92541295  0.55046132  0.02992986  1
  O  O130  1  0.34834765  0.15713399  0.02650124  1
  O  O131  1  0.85490857  0.16026702  0.02622253  1
  O  O132  1  0.22755464  0.14616198  0.52622068  1
  O  O133  1  0.73118512  0.14912823  0.52629949  1
  O  O134  1  0.34889556  0.54442525  0.52441503  1
  O  O135  1  0.85113551  0.54633155  0.52575082  1
  O  O136  1  0.42907301  0.30724268  0.52944820  1
  O  O137  1  0.93047909  0.30518871  0.52976764  1
  O  O138  1  0.27390227  0.71293234  0.97173410  1
  O  O139  1  0.77475015  0.69709931  0.96874005  1
  O  O140  1  0.07867716  0.45260700  0.97640426  1
  O  O141  1  0.57942920  0.45981338  0.97738521  1
  O  O142  1  0.14533354  0.83271769  0.97331630  1
  O  O143  1  0.64784290  0.83143741  0.97208769  1
  O  O144  1  0.27326721  0.83354843  0.47102624  1
  O  O145  1  0.77109743  0.83720116  0.46934545  1
  O  O146  1  0.14078368  0.45400704  0.47373028  1
  O  O147  1  0.64555991  0.45874359  0.47337188  1
  O  O148  1  0.07945540  0.70662905  0.47748348  1
  O  O149  1  0.57779648  0.69894703  0.47713378  1
  O  O150  1  0.06717459  0.63386617  0.36257420  1
  O  O151  1  0.56725824  0.63269330  0.36263649  1
  O  O152  1  0.25309844  0.88123078  0.35674024  1
  O  O153  1  0.75536340  0.88383617  0.35587398  1
  O  O154  1  0.18624504  0.49684936  0.36120415  1
  O  O155  1  0.68666588  0.49613528  0.36123625  1
  O  O156  1  0.06320432  0.49005485  0.85935558  1
  O  O157  1  0.56907151  0.50289685  0.86097154  1
  O  O158  1  0.18584459  0.88433555  0.85741861  1
  O  O159  1  0.69114858  0.88633844  0.85821241  1
  O  O160  1  0.24798317  0.61841347  0.85881462  1
  O  O161  1  0.76039884  0.63586742  0.86348146  1
  O  O162  1  0.01463466  0.84199631  0.41020373  1
  O  O163  1  0.51273933  0.83574969  0.41089043  1
  O  O164  1  0.40719438  0.98086577  0.41072039  1
  O  O165  1  0.90877861  0.97822965  0.41157584  1
  O  O166  1  0.08133879  0.18244100  0.40852457  1
  O  O167  1  0.58424843  0.18341857  0.41021919  1
  O  O168  1  0.00795888  0.18293851  0.91108991  1
  O  O169  1  0.51064776  0.18556886  0.91131940  1
  O  O170  1  0.08164936  0.98969015  0.91058413  1
  O  O171  1  0.57985495  0.97000180  0.91016449  1
  O  O172  1  0.40675959  0.83606294  0.91103052  1
  O  O173  1  0.89699315  0.82347752  0.91203971  1
  O  O174  1  0.49043862  0.18326156  0.58966253  1
  O  O175  1  0.99128460  0.18032205  0.59040311  1
  O  O176  1  0.08821344  0.02123082  0.59015152  1
  O  O177  1  0.59025581  0.02182427  0.58886892  1
  O  O178  1  0.41602786  0.81053427  0.58848522  1
  O  O179  1  0.92018322  0.81466045  0.58735060  1
  O  O180  1  0.49194121  0.79773082  0.08953242  1
  O  O181  1  0.98932865  0.79787024  0.08969040  1
  O  O182  1  0.41683888  0.02158786  0.08752374  1
  O  O183  1  0.91806534  0.02288813  0.08719161  1
  O  O184  1  0.08863544  0.15589303  0.08843666  1
  O  O185  1  0.59474025  0.16800893  0.08797914  1
  O  O186  1  0.33583178  0.15959872  0.74590229  1
  O  O187  1  0.83664148  0.15616019  0.74605338  1
  O  O188  1  0.22806964  0.30300080  0.74432517  1
  O  O189  1  0.72963235  0.30563630  0.74600225  1
  O  O190  1  0.41599371  0.51782315  0.74487382  1
  O  O191  1  0.91671878  0.51869530  0.74512526  1
  O  O192  1  0.34129672  0.51514962  0.24444574  1
  O  O193  1  0.84480307  0.51558119  0.24380329  1
  O  O194  1  0.40993564  0.30001153  0.24439309  1
  O  O195  1  0.90753658  0.29584123  0.24298721  1
  O  O196  1  0.22989586  0.15183892  0.24488928  1
  O  O197  1  0.73353896  0.15507913  0.24625905  1
  O  O198  1  0.32448273  0.50152287  0.92188270  1
  O  O199  1  0.82454412  0.51569624  0.92275604  1
  O  O200  1  0.43070597  0.36272760  0.92270673  1
  O  O201  1  0.92345873  0.35480362  0.92368596  1
  O  O202  1  0.24720363  0.14164816  0.92267603  1
  O  O203  1  0.75374798  0.14599019  0.92186944  1
  O  O204  1  0.32457683  0.14850658  0.42320088  1
  O  O205  1  0.82713423  0.15166902  0.42289304  1
  O  O206  1  0.24790064  0.35222345  0.42344469  1
  O  O207  1  0.75097954  0.35533436  0.42293726  1
  O  O208  1  0.42654484  0.49587964  0.42300531  1
  O  O209  1  0.92844808  0.50074918  0.42377111  1
  O  O210  1  0.16590182  0.49392769  0.07854233  1
  O  O211  1  0.67219650  0.50026486  0.07757692  1
  O  O212  1  0.06254021  0.63634861  0.07728693  1
  O  O213  1  0.56433225  0.63437119  0.07951801  1
  O  O214  1  0.24227873  0.84658335  0.07908319  1
  O  O215  1  0.74540820  0.85026538  0.07699476  1
  O  O216  1  0.16688109  0.83920601  0.57962968  1
  O  O217  1  0.66884453  0.84394624  0.58076109  1
  O  O218  1  0.24233144  0.63728750  0.57891141  1
  O  O219  1  0.74713574  0.64196046  0.58089909  1
  O  O220  1  0.06426840  0.48968465  0.57951046  1
  O  O221  1  0.56283540  0.49011127  0.57940248  1
  O  O222  1  0.15486513  0.84985047  0.25378342  1
  O  O223  1  0.65772852  0.85092042  0.25325572  1
  O  O224  1  0.26244443  0.70471754  0.25262497  1
  O  O225  1  0.76538241  0.70431649  0.25365042  1
  O  O226  1  0.08048707  0.48413047  0.25397560  1
  O  O227  1  0.58333610  0.48775886  0.25258520  1
  O  O228  1  0.15363598  0.46279231  0.75403294  1
  O  O229  1  0.65626694  0.46599411  0.75755703  1
  O  O230  1  0.08791612  0.69257658  0.75651952  1
  O  O231  1  0.58851914  0.69614652  0.75371695  1
  O  O232  1  0.25673126  0.82426136  0.75571622  1
  O  O233  1  0.75896368  0.82085305  0.75617965  1
