# generated using pymatgen
data_Ba2Si3O8
_symmetry_space_group_name_H-M   'P 1'
_cell_length_a   4.70734364
_cell_length_b   12.52847138
_cell_length_c   14.02499766
_cell_angle_alpha   86.52366130
_cell_angle_beta   90.00000000
_cell_angle_gamma   90.00000000
_symmetry_Int_Tables_number   1
_chemical_formula_structural   Ba2Si3O8
_chemical_formula_sum   'Ba8 Si12 O32'
_cell_volume   825.61374644
_cell_formula_units_Z   4
loop_
 _symmetry_equiv_pos_site_id
 _symmetry_equiv_pos_as_xyz
  1  'x, y, z'
loop_
 _atom_site_type_symbol
 _atom_site_label
 _atom_site_symmetry_multiplicity
 _atom_site_fract_x
 _atom_site_fract_y
 _atom_site_fract_z
 _atom_site_occupancy
  Ba  Ba0  1  0.75222943  0.85589978  0.46785799  1
  Ba  Ba1  1  0.25222943  0.14410022  0.03214201  1
  Ba  Ba2  1  0.24777057  0.14410022  0.53214201  1
  Ba  Ba3  1  0.74777057  0.85589978  0.96785799  1
  Ba  Ba4  1  0.27177778  0.58243126  0.38885982  1
  Ba  Ba5  1  0.77177778  0.41756874  0.11114018  1
  Ba  Ba6  1  0.72822222  0.41756874  0.61114018  1
  Ba  Ba7  1  0.22822222  0.58243126  0.88885982  1
  Si  Si8  1  0.82089898  0.97362578  0.18783364  1
  Si  Si9  1  0.32089898  0.02637422  0.31216636  1
  Si  Si10  1  0.17910102  0.02637422  0.81216636  1
  Si  Si11  1  0.67910102  0.97362578  0.68783364  1
  Si  Si12  1  0.82125058  0.72390797  0.22277370  1
  Si  Si13  1  0.32125058  0.27609203  0.27722630  1
  Si  Si14  1  0.17874942  0.27609203  0.77722630  1
  Si  Si15  1  0.67874942  0.72390797  0.72277370  1
  Si  Si16  1  0.31472333  0.64945704  0.11061000  1
  Si  Si17  1  0.81472333  0.35054296  0.38939000  1
  Si  Si18  1  0.68527667  0.35054296  0.88939000  1
  Si  Si19  1  0.18527667  0.64945704  0.61061000  1
  O  O20  1  0.15116532  0.00128605  0.21415207  1
  O  O21  1  0.65116532  0.99871395  0.28584793  1
  O  O22  1  0.84883468  0.99871395  0.78584793  1
  O  O23  1  0.34883468  0.00128605  0.71415207  1
  O  O24  1  0.73555962  0.03497892  0.09003911  1
  O  O25  1  0.23555962  0.96502108  0.40996089  1
  O  O26  1  0.26444038  0.96502108  0.90996089  1
  O  O27  1  0.76444038  0.03497892  0.59003911  1
  O  O28  1  0.79648630  0.84524396  0.17329387  1
  O  O29  1  0.29648630  0.15475604  0.32670613  1
  O  O30  1  0.20351370  0.15475604  0.82670613  1
  O  O31  1  0.70351370  0.84524396  0.67329387  1
  O  O32  1  0.73880870  0.71266395  0.33225462  1
  O  O33  1  0.23880870  0.28733605  0.16774538  1
  O  O34  1  0.26119130  0.28733605  0.66774538  1
  O  O35  1  0.76119130  0.71266395  0.83225462  1
  O  O36  1  0.14790897  0.68187484  0.20926659  1
  O  O37  1  0.64790897  0.31812516  0.29073341  1
  O  O38  1  0.85209103  0.31812516  0.79073341  1
  O  O39  1  0.35209103  0.68187484  0.70926659  1
  O  O40  1  0.24832861  0.52895560  0.58421539  1
  O  O41  1  0.74832861  0.47104440  0.91578461  1
  O  O42  1  0.75167139  0.47104440  0.41578461  1
  O  O43  1  0.25167139  0.52895560  0.08421539  1
  O  O44  1  0.23300435  0.73423437  0.52194936  1
  O  O45  1  0.73300435  0.26576563  0.97805064  1
  O  O46  1  0.76699565  0.26576563  0.47805064  1
  O  O47  1  0.26699565  0.73423437  0.02194936  1
  O  O48  1  0.85177516  0.64883744  0.65018016  1
  O  O49  1  0.35177516  0.35116256  0.84981984  1
  O  O50  1  0.14822484  0.35116256  0.34981984  1
  O  O51  1  0.64822484  0.64883744  0.15018016  1
