# generated using pymatgen
data_Na14Mg5Zr3Si6(SO8)6
_symmetry_space_group_name_H-M   'P 1'
_cell_length_a   18.36570521
_cell_length_b   9.16519627
_cell_length_c   22.49626018
_cell_angle_alpha   90.03032791
_cell_angle_beta   90.21502781
_cell_angle_gamma   120.13687671
_symmetry_Int_Tables_number   1
_chemical_formula_structural   Na14Mg5Zr3Si6(SO8)6
_chemical_formula_sum   'Na42 Mg15 Zr9 Si18 S18 O144'
_cell_volume   3274.80110439
_cell_formula_units_Z   3
loop_
 _symmetry_equiv_pos_site_id
 _symmetry_equiv_pos_as_xyz
  1  'x, y, z'
loop_
 _atom_site_type_symbol
 _atom_site_label
 _atom_site_symmetry_multiplicity
 _atom_site_fract_x
 _atom_site_fract_y
 _atom_site_fract_z
 _atom_site_occupancy
  Na  Na0  1  0.19552807  0.36113231  0.24647493  1
  Na  Na1  1  0.68923142  0.35602530  0.24578686  1
  Na  Na2  1  0.99700866  0.64684196  0.25234722  1
  Na  Na3  1  0.49474650  0.63675111  0.24089139  1
  Na  Na4  1  0.31686606  0.63197678  0.74612497  1
  Na  Na5  1  0.81508843  0.62514504  0.73483716  1
  Na  Na6  1  0.19134447  0.02670706  0.74625422  1
  Na  Na7  1  0.69406784  0.02779908  0.74587774  1
  Na  Na8  1  0.15419388  0.32479407  0.57597207  1
  Na  Na9  1  0.66763806  0.34565546  0.57677474  1
  Na  Na10  1  0.01120924  0.69802245  0.57718250  1
  Na  Na11  1  0.52274777  0.70348086  0.57957896  1
  Na  Na12  1  0.32177423  0.97042604  0.59149962  1
  Na  Na13  1  0.82049877  0.95238101  0.58931301  1
  Na  Na14  1  0.15626109  0.98064830  0.07806456  1
  Na  Na15  1  0.64819826  0.96458851  0.07342697  1
  Na  Na16  1  0.82079554  0.67435968  0.09044296  1
  Na  Na17  1  0.02051246  0.34090252  0.07871841  1
  Na  Na18  1  0.52481950  0.35387400  0.08724955  1
  Na  Na19  1  0.49525527  0.68432795  0.92440576  1
  Na  Na20  1  0.98938207  0.67826201  0.91836230  1
  Na  Na21  1  0.84522338  0.03282143  0.90603590  1
  Na  Na22  1  0.16108127  0.27956313  0.90684066  1
  Na  Na23  1  0.66559815  0.27875221  0.91655537  1
  Na  Na24  1  0.49366541  0.30727503  0.41903697  1
  Na  Na25  1  0.98931493  0.29989985  0.42232077  1
  Na  Na26  1  0.16543307  0.05294055  0.41664621  1
  Na  Na27  1  0.66697317  0.05267610  0.41616272  1
  Na  Na28  1  0.34854129  0.65727260  0.40551673  1
  Na  Na29  1  0.84693202  0.65307626  0.41853388  1
  Na  Na30  1  0.00465528  0.99731546  0.49952591  1
  Na  Na31  1  0.51551373  0.01795923  0.49575166  1
  Na  Na32  1  0.00937916  0.00812731  0.99517858  1
  Na  Na33  1  0.50368547  0.99605699  0.99884201  1
  Na  Na34  1  0.33063513  0.30001230  0.82704283  1
  Na  Na35  1  0.82644810  0.30954177  0.82595679  1
  Na  Na36  1  0.32377577  0.32613499  0.32533544  1
  Na  Na37  1  0.81891345  0.32383589  0.32854302  1
  Na  Na38  1  0.18962147  0.68069804  0.16251219  1
  Na  Na39  1  0.66623214  0.67061777  0.16063250  1
  Na  Na40  1  0.16356071  0.66759383  0.66389177  1
  Na  Na41  1  0.67471183  0.66969612  0.66006981  1
  Mg  Mg42  1  0.00644566  0.00295599  0.34783917  1
  Mg  Mg43  1  0.50692009  0.00448639  0.34634508  1
  Mg  Mg44  1  0.00604569  0.01140029  0.84571053  1
  Mg  Mg45  1  0.50523573  0.01416273  0.84956987  1
  Mg  Mg46  1  0.32671643  0.30800015  0.68628358  1
  Mg  Mg47  1  0.82352307  0.31844212  0.68268464  1
  Mg  Mg48  1  0.32903998  0.34475959  0.18451889  1
  Mg  Mg49  1  0.82213662  0.33044139  0.18617200  1
  Mg  Mg50  1  0.81846719  0.31146129  0.98387158  1
  Mg  Mg51  1  0.32041834  0.32554860  0.48301220  1
  Mg  Mg52  1  0.81866941  0.33777185  0.48772893  1
  Mg  Mg53  1  0.17186861  0.67256057  0.01652016  1
  Mg  Mg54  1  0.65901693  0.66501180  0.01982248  1
  Mg  Mg55  1  0.16427172  0.66352484  0.51607534  1
  Mg  Mg56  1  0.67159345  0.66225713  0.51936934  1
  Zr  Zr57  1  0.00016328  0.00743592  0.64960686  1
  Zr  Zr58  1  0.50495660  0.01867140  0.65264322  1
  Zr  Zr59  1  0.00357693  0.99627976  0.15240247  1
  Zr  Zr60  1  0.50046825  0.98121647  0.14768001  1
  Zr  Zr61  1  0.32616074  0.32778646  0.98499233  1
  Zr  Zr62  1  0.17654649  0.67349253  0.31227989  1
  Zr  Zr63  1  0.67506575  0.67023543  0.31122343  1
  Zr  Zr64  1  0.17113583  0.67882284  0.81187577  1
  Zr  Zr65  1  0.67095834  0.67672464  0.81182227  1
  Si  Si66  1  0.15383280  0.00390721  0.25332421  1
  Si  Si67  1  0.65124682  0.00146512  0.25313962  1
  Si  Si68  1  0.35663699  0.70764617  0.25520395  1
  Si  Si69  1  0.85577415  0.70357725  0.25245724  1
  Si  Si70  1  0.15185254  0.30094693  0.75160099  1
  Si  Si71  1  0.65240044  0.30116950  0.75548746  1
  Si  Si72  1  0.35736039  0.00743637  0.75184381  1
  Si  Si73  1  0.85721068  0.01355888  0.75457169  1
  Si  Si74  1  0.18432720  0.02738056  0.58175919  1
  Si  Si75  1  0.68196588  0.02804935  0.58197738  1
  Si  Si76  1  0.83518680  0.63071100  0.58336605  1
  Si  Si77  1  0.48002399  0.62185692  0.08508837  1
  Si  Si78  1  0.18201883  0.34227236  0.08614741  1
  Si  Si79  1  0.68401992  0.33841086  0.08212674  1
  Si  Si80  1  0.16317598  0.96079479  0.92028349  1
  Si  Si81  1  0.66550142  0.96532923  0.91936473  1
  Si  Si82  1  0.16442669  0.36684729  0.42048524  1
  Si  Si83  1  0.66339827  0.36435656  0.41921725  1
  S  S84  1  0.99825900  0.29417677  0.25151618  1
  S  S85  1  0.49740355  0.29043114  0.25216081  1
  S  S86  1  0.99931262  0.70480524  0.75202469  1
  S  S87  1  0.49840389  0.70320685  0.75092127  1
  S  S88  1  0.47536773  0.33381935  0.58196365  1
  S  S89  1  0.97861063  0.33703275  0.58172804  1
  S  S90  1  0.33469973  0.62697845  0.58281429  1
  S  S91  1  0.97865615  0.62199040  0.08260443  1
  S  S92  1  0.33162845  0.03874085  0.08513392  1
  S  S93  1  0.83687400  0.04813661  0.08244037  1
  S  S94  1  0.31429557  0.66836684  0.91752577  1
  S  S95  1  0.81567341  0.66772512  0.91958410  1
  S  S96  1  0.01960836  0.37574186  0.91988658  1
  S  S97  1  0.51890917  0.37184235  0.91779735  1
  S  S98  1  0.31588263  0.96518685  0.42052456  1
  S  S99  1  0.81618579  0.96523975  0.41881310  1
  S  S100  1  0.01908960  0.66298559  0.41711291  1
  S  S101  1  0.51865087  0.66221770  0.41962360  1
  O  O102  1  0.10880752  0.03313921  0.30993221  1
  O  O103  1  0.60950525  0.03224851  0.31113879  1
  O  O104  1  0.40601797  0.79749619  0.31577690  1
  O  O105  1  0.91105886  0.80128087  0.30996741  1
  O  O106  1  0.49033743  0.19469856  0.30617533  1
  O  O107  1  0.98744314  0.19415567  0.30494931  1
  O  O108  1  0.11099738  0.18311906  0.80953480  1
  O  O109  1  0.60882269  0.18126637  0.81151947  1
  O  O110  1  0.48675168  0.77880333  0.80507144  1
  O  O111  1  0.98945144  0.78431568  0.80600274  1
  O  O112  1  0.41046853  0.00055499  0.80643199  1
  O  O113  1  0.90560389  0.01392535  0.81462843  1
  O  O114  1  0.39274821  0.96650600  0.68837082  1
  O  O115  1  0.89848362  0.97188285  0.69592860  1
  O  O116  1  0.09474771  0.21137899  0.69115308  1
  O  O117  1  0.59389960  0.21159441  0.69386124  1
  O  O118  1  0.01410031  0.81439378  0.69886315  1
  O  O119  1  0.51313961  0.81634841  0.69777659  1
  O  O120  1  0.40105577  0.82817548  0.19740862  1
  O  O121  1  0.89749099  0.81723770  0.19050620  1
  O  O122  1  0.01307749  0.21291200  0.19776363  1
  O  O123  1  0.51158489  0.21436718  0.19827699  1
  O  O124  1  0.08996601  0.96938803  0.19306908  1
  O  O125  1  0.58994911  0.96982897  0.19351171  1
  O  O126  1  0.43381913  0.35478757  0.63403990  1
  O  O127  1  0.93659528  0.35534171  0.63388134  1
  O  O128  1  0.24363107  0.11130786  0.64012539  1
  O  O129  1  0.73766551  0.10859457  0.64154486  1
  O  O130  1  0.32715899  0.52854984  0.63671893  1
  O  O131  1  0.82599665  0.51842321  0.64165098  1
  O  O132  1  0.43541475  0.50306047  0.14158521  1
  O  O133  1  0.93900968  0.52217588  0.13630236  1
  O  O134  1  0.31838075  0.11994615  0.13700560  1
  O  O135  1  0.82947355  0.13614739  0.13427410  1
  O  O136  1  0.23245497  0.35222258  0.14517491  1
  O  O137  1  0.74320247  0.37191252  0.14052083  1
  O  O138  1  0.22602813  0.30291522  0.02701540  1
  O  O139  1  0.72103259  0.29226314  0.02345256  1
  O  O140  1  0.42476180  0.53034129  0.02292997  1
  O  O141  1  0.92863977  0.54052207  0.02834796  1
  O  O142  1  0.34192440  0.14285695  0.03028618  1
  O  O143  1  0.85128683  0.14834886  0.02732326  1
  O  O144  1  0.22324598  0.14411655  0.52252415  1
  O  O145  1  0.71909613  0.14562013  0.52292966  1
  O  O146  1  0.34712570  0.54810149  0.52918997  1
  O  O147  1  0.85705325  0.55904887  0.52341964  1
  O  O148  1  0.42665685  0.31052510  0.52684123  1
  O  O149  1  0.93065763  0.31332024  0.52607809  1
  O  O150  1  0.27118252  0.68303881  0.96937531  1
  O  O151  1  0.77380434  0.68784347  0.97211745  1
  O  O152  1  0.07116888  0.45443884  0.97376465  1
  O  O153  1  0.56848391  0.45027426  0.97243963  1
  O  O154  1  0.15247688  0.84836753  0.97888763  1
  O  O155  1  0.65510710  0.84826274  0.97631718  1
  O  O156  1  0.27394818  0.86167602  0.47331076  1
  O  O157  1  0.77509941  0.86309365  0.47204322  1
  O  O158  1  0.15261699  0.45870758  0.47851494  1
  O  O159  1  0.64870405  0.45393275  0.47668478  1
  O  O160  1  0.07171207  0.68746335  0.47030069  1
  O  O161  1  0.57157029  0.68530244  0.47251661  1
  O  O162  1  0.06270199  0.65031505  0.36284765  1
  O  O163  1  0.55941653  0.64313962  0.36510937  1
  O  O164  1  0.26023590  0.88239370  0.36694251  1
  O  O165  1  0.76025112  0.88081442  0.36555631  1
  O  O166  1  0.17453285  0.49030982  0.36194135  1
  O  O167  1  0.67369790  0.48737947  0.36054378  1
  O  O168  1  0.06294870  0.47984828  0.86703904  1
  O  O169  1  0.56258306  0.48092132  0.86583732  1
  O  O170  1  0.17196103  0.86301565  0.86090916  1
  O  O171  1  0.67469049  0.86438139  0.85990507  1
  O  O172  1  0.26285266  0.64269366  0.86253862  1
  O  O173  1  0.76210229  0.64116943  0.86522692  1
  O  O174  1  0.00739047  0.81236080  0.41375135  1
  O  O175  1  0.50724394  0.81184779  0.41600963  1
  O  O176  1  0.39879829  0.97771508  0.41415756  1
  O  O177  1  0.89916640  0.97630930  0.41199057  1
  O  O178  1  0.07839230  0.17955011  0.41414293  1
  O  O179  1  0.57774192  0.17728283  0.41262385  1
  O  O180  1  0.00815426  0.20298508  0.91512908  1
  O  O181  1  0.50977349  0.20260497  0.91245447  1
  O  O182  1  0.07819304  0.97894201  0.91449179  1
  O  O183  1  0.57921126  0.97892719  0.91464115  1
  O  O184  1  0.40075233  0.81232506  0.91300220  1
  O  O185  1  0.90005679  0.82129660  0.91383513  1
  O  O186  1  0.48224765  0.17420709  0.58689761  1
  O  O187  1  0.98815580  0.18136347  0.58643129  1
  O  O188  1  0.08924192  0.00958959  0.58903289  1
  O  O189  1  0.58325651  0.00646984  0.58856899  1
  O  O190  1  0.41126348  0.80137955  0.58635749  1
  O  O191  1  0.91791284  0.82794283  0.58912134  1
  O  O192  1  0.48900061  0.81256085  0.08455472  1
  O  O193  1  0.98419600  0.79485793  0.08563542  1
  O  O194  1  0.41000379  0.03146681  0.08838355  1
  O  O195  1  0.91365860  0.02722327  0.08764000  1
  O  O196  1  0.08538031  0.16164613  0.08575392  1
  O  O197  1  0.58575908  0.17382462  0.09007198  1
  O  O198  1  0.34234723  0.16575153  0.74705934  1
  O  O199  1  0.84215111  0.17061694  0.74649716  1
  O  O200  1  0.24785382  0.33455516  0.74394623  1
  O  O201  1  0.74618611  0.32908258  0.74754205  1
  O  O202  1  0.42387630  0.53804629  0.74031896  1
  O  O203  1  0.92532308  0.53686431  0.74452492  1
  O  O204  1  0.34725320  0.52181974  0.24958208  1
  O  O205  1  0.84973466  0.52056598  0.24665123  1
  O  O206  1  0.42476338  0.31567184  0.24682381  1
  O  O207  1  0.92709725  0.32068731  0.24176684  1
  O  O208  1  0.24529549  0.16454403  0.24341415  1
  O  O209  1  0.74378958  0.16310115  0.24409587  1
  O  O210  1  0.31984389  0.50844906  0.92023306  1
  O  O211  1  0.82700613  0.51769106  0.92299439  1
  O  O212  1  0.43451344  0.36045154  0.92026500  1
  O  O213  1  0.93568036  0.36428114  0.92377835  1
  O  O214  1  0.24829337  0.15427787  0.92030679  1
  O  O215  1  0.75372692  0.14985329  0.91776359  1
  O  O216  1  0.32686185  0.13712283  0.42313632  1
  O  O217  1  0.82769085  0.13705075  0.42171472  1
  O  O218  1  0.25216045  0.35800045  0.41870348  1
  O  O219  1  0.75072163  0.35459117  0.41812186  1
  O  O220  1  0.43426467  0.50542510  0.42414000  1
  O  O221  1  0.93665206  0.50430778  0.41968688  1
  O  O222  1  0.16578465  0.49965169  0.07643972  1
  O  O223  1  0.67619854  0.50928959  0.07504109  1
  O  O224  1  0.06547594  0.65177649  0.07929626  1
  O  O225  1  0.57581463  0.65397108  0.08085385  1
  O  O226  1  0.25644418  0.86890912  0.07783427  1
  O  O227  1  0.76170332  0.87661118  0.07814291  1
  O  O228  1  0.17045865  0.83427902  0.57612656  1
  O  O229  1  0.66677868  0.83586463  0.57529826  1
  O  O230  1  0.25840359  0.64434114  0.57852606  1
  O  O231  1  0.75033148  0.64904678  0.57946895  1
  O  O232  1  0.06538042  0.48657381  0.57886733  1
  O  O233  1  0.56186173  0.48033699  0.57906695  1
  O  O234  1  0.14850473  0.81749121  0.25614348  1
  O  O235  1  0.64799879  0.81676636  0.25671965  1
  O  O236  1  0.25752314  0.67509233  0.25393642  1
  O  O237  1  0.75786913  0.67289204  0.25307149  1
  O  O238  1  0.07725660  0.46429509  0.25525833  1
  O  O239  1  0.57631332  0.46538031  0.25589800  1
  O  O240  1  0.15902534  0.48841554  0.75707930  1
  O  O241  1  0.65921008  0.48758132  0.75701721  1
  O  O242  1  0.07783508  0.69268435  0.75521918  1
  O  O243  1  0.57630226  0.69063224  0.75408821  1
  O  O244  1  0.25851611  0.83282599  0.75408163  1
  O  O245  1  0.75961703  0.83459416  0.75513990  1
