# generated using pymatgen
data_Na3Hf2SiGe2P5O24
_symmetry_space_group_name_H-M   'P 1'
_cell_length_a   8.68748015
_cell_length_b   8.66096700
_cell_length_c   22.33044837
_cell_angle_alpha   90.17461970
_cell_angle_beta   89.85779912
_cell_angle_gamma   119.98667691
_symmetry_Int_Tables_number   1
_chemical_formula_structural   Na3Hf2SiGe2P5O24
_chemical_formula_sum   'Na9 Hf6 Si3 Ge6 P15 O72'
_cell_volume   1455.27239240
_cell_formula_units_Z   3
loop_
 _symmetry_equiv_pos_site_id
 _symmetry_equiv_pos_as_xyz
  1  'x, y, z'
loop_
 _atom_site_type_symbol
 _atom_site_label
 _atom_site_symmetry_multiplicity
 _atom_site_fract_x
 _atom_site_fract_y
 _atom_site_fract_z
 _atom_site_occupancy
  Na  Na0  1  0.36344332  0.99904670  0.75071059  1
  Na  Na1  1  0.66402784  0.97090314  0.58362296  1
  Na  Na2  1  0.66933886  0.69456132  0.08308738  1
  Na  Na3  1  0.01090204  0.00058179  0.49764675  1
  Na  Na4  1  0.00845985  0.00590456  0.00187741  1
  Na  Na5  1  0.67473269  0.33830000  0.83372967  1
  Na  Na6  1  0.66660205  0.33321800  0.33286623  1
  Na  Na7  1  0.32336698  0.66563279  0.16755316  1
  Na  Na8  1  0.32849994  0.65580278  0.66641621  1
  Hf  Hf9  1  0.99505697  0.00066864  0.85698656  1
  Hf  Hf10  1  0.00228804  0.99947004  0.64846138  1
  Hf  Hf11  1  0.66893306  0.33097336  0.68441373  1
  Hf  Hf12  1  0.67298576  0.33629481  0.18832491  1
  Hf  Hf13  1  0.67039068  0.33740910  0.98012747  1
  Hf  Hf14  1  0.66207411  0.33198277  0.47537841  1
  Si  Si15  1  0.69894868  0.99122240  0.75181681  1
  Si  Si16  1  0.36667762  0.02970086  0.57986487  1
  Si  Si17  1  0.97308374  0.63657191  0.08409679  1
  Ge  Ge18  1  0.00053585  0.00017052  0.35334799  1
  Ge  Ge19  1  0.00586088  0.00067874  0.14975827  1
  Ge  Ge20  1  0.32655725  0.66659803  0.01942531  1
  Ge  Ge21  1  0.32904210  0.66630958  0.51636011  1
  Ge  Ge22  1  0.33294883  0.66662741  0.31300059  1
  Ge  Ge23  1  0.33684987  0.66609350  0.81478342  1
  P  P24  1  0.27899723  0.99224020  0.25298020  1
  P  P25  1  0.71247289  0.72191596  0.25268463  1
  P  P26  1  0.00848631  0.28447954  0.25257045  1
  P  P27  1  0.29150605  0.30201383  0.75285063  1
  P  P28  1  0.00437840  0.70438572  0.75354660  1
  P  P29  1  0.96908281  0.34365641  0.57971956  1
  P  P30  1  0.65837540  0.62362571  0.58028464  1
  P  P31  1  0.66759291  0.03650999  0.08379983  1
  P  P32  1  0.36529865  0.33008938  0.08378404  1
  P  P33  1  0.60861287  0.66465068  0.91797406  1
  P  P34  1  0.05821659  0.39212733  0.91673040  1
  P  P35  1  0.33409442  0.94595230  0.91690145  1
  P  P36  1  0.62114261  0.94410149  0.41340926  1
  P  P37  1  0.32391265  0.38216514  0.41352024  1
  P  P38  1  0.05615246  0.67593515  0.41320490  1
  O  O39  1  0.19584777  0.02884609  0.30853117  1
  O  O40  1  0.83348052  0.80538663  0.30762458  1
  O  O41  1  0.97187256  0.16639422  0.30836425  1
  O  O42  1  0.21163335  0.17640869  0.80658823  1
  O  O43  1  0.97571266  0.79309629  0.80787075  1
  O  O44  1  0.82709414  0.02989685  0.80835055  1
  O  O45  1  0.77808784  0.95872602  0.68988726  1
  O  O46  1  0.17920341  0.21784939  0.69614197  1
  O  O47  1  0.04477617  0.82413324  0.69743008  1
  O  O48  1  0.79117610  0.83109157  0.19387382  1
  O  O49  1  0.03894922  0.20240640  0.19471426  1
  O  O50  1  0.16616477  0.95983176  0.19541254  1
  O  O51  1  0.88816730  0.37607643  0.63705279  1
  O  O52  1  0.49048075  0.10971304  0.64069027  1
  O  O53  1  0.62919526  0.51313235  0.63747358  1
  O  O54  1  0.87815083  0.50799476  0.14151443  1
  O  O55  1  0.62895127  0.11746498  0.13907311  1
  O  O56  1  0.48926571  0.37113400  0.13841406  1
  O  O57  1  0.44798867  0.29432822  0.02784555  1
  O  O58  1  0.83717976  0.55149202  0.02699688  1
  O  O59  1  0.70065423  0.15292881  0.02794675  1
  O  O60  1  0.46688418  0.15984135  0.52423546  1
  O  O61  1  0.69669511  0.54177937  0.52576230  1
  O  O62  1  0.84492467  0.30434436  0.52613218  1
  O  O63  1  0.52908222  0.69463343  0.97607680  1
  O  O64  1  0.17023436  0.47232071  0.97346421  1
  O  O65  1  0.30514650  0.83227883  0.97298610  1
  O  O66  1  0.54282249  0.83576148  0.47240488  1
  O  O67  1  0.29389760  0.46367193  0.47160894  1
  O  O68  1  0.16766937  0.70712577  0.47105588  1
  O  O69  1  0.13876599  0.63876510  0.35788901  1
  O  O70  1  0.49972925  0.86036362  0.35885382  1
  O  O71  1  0.36068934  0.50046192  0.35808060  1
  O  O72  1  0.13886454  0.50338929  0.85950120  1
  O  O73  1  0.36188838  0.86561033  0.85831608  1
  O  O74  1  0.49721950  0.63506998  0.86115772  1
  O  O75  1  0.03495611  0.84447741  0.40741798  1
  O  O76  1  0.81026737  0.96522389  0.40743283  1
  O  O77  1  0.15679245  0.19198188  0.40791889  1
  O  O78  1  0.03919736  0.20592500  0.91332709  1
  O  O79  1  0.16847698  0.96558044  0.91330334  1
  O  O80  1  0.79559849  0.82992567  0.91435186  1
  O  O81  1  0.97812922  0.17176266  0.58781694  1
  O  O82  1  0.17464657  0.01145085  0.58632059  1
  O  O83  1  0.82065990  0.81245018  0.58709304  1
  O  O84  1  0.97838126  0.82810282  0.09442331  1
  O  O85  1  0.83454432  0.01706187  0.09269639  1
  O  O86  1  0.18038743  0.16565571  0.09311853  1
  O  O87  1  0.67260439  0.16522215  0.74700084  1
  O  O88  1  0.47605829  0.31844127  0.74450374  1
  O  O89  1  0.83689064  0.52218650  0.74579522  1
  O  O90  1  0.69062508  0.53394513  0.24637506  1
  O  O91  1  0.84095019  0.30312419  0.24635862  1
  O  O92  1  0.46477335  0.15838283  0.24598273  1
  O  O93  1  0.62781659  0.49670412  0.92132538  1
  O  O94  1  0.87014052  0.36979849  0.92132544  1
  O  O95  1  0.50176626  0.13239706  0.92130247  1
  O  O96  1  0.64342779  0.13194505  0.41893886  1
  O  O97  1  0.49097998  0.36319774  0.41909131  1
  O  O98  1  0.87039720  0.51013354  0.41936440  1
  O  O99  1  0.35850189  0.50492449  0.07482678  1
  O  O100  1  0.16506796  0.65128324  0.07454553  1
  O  O101  1  0.50509163  0.84599163  0.07493339  1
  O  O102  1  0.36133444  0.83866362  0.57157659  1
  O  O103  1  0.49153994  0.64247130  0.57245042  1
  O  O104  1  0.15366456  0.50748144  0.57229372  1
  O  O105  1  0.29919635  0.82324998  0.25904877  1
  O  O106  1  0.52358491  0.70087195  0.25904649  1
  O  O107  1  0.17557484  0.47424823  0.25853730  1
  O  O108  1  0.30518267  0.48332372  0.76025517  1
  O  O109  1  0.17307783  0.68907348  0.75974148  1
  O  O110  1  0.49987418  0.81768561  0.75988554  1
