# generated using pymatgen
data_Na6Nb3Ga5(PO4)12
_symmetry_space_group_name_H-M   'P 1'
_cell_length_a   17.39465908
_cell_length_b   8.69806257
_cell_length_c   22.36312000
_cell_angle_alpha   90.04575937
_cell_angle_beta   89.97576580
_cell_angle_gamma   120.00892399
_symmetry_Int_Tables_number   1
_chemical_formula_structural   Na6Nb3Ga5(PO4)12
_chemical_formula_sum   'Na18 Nb9 Ga15 P36 O144'
_cell_volume   2929.96393981
_cell_formula_units_Z   3
loop_
 _symmetry_equiv_pos_site_id
 _symmetry_equiv_pos_as_xyz
  1  'x, y, z'
loop_
 _atom_site_type_symbol
 _atom_site_label
 _atom_site_symmetry_multiplicity
 _atom_site_fract_x
 _atom_site_fract_y
 _atom_site_fract_z
 _atom_site_occupancy
  Na  Na0  1  0.68442200  0.36741153  0.24925581  1
  Na  Na1  1  0.99899412  0.63050594  0.24932479  1
  Na  Na2  1  0.99929404  0.36551630  0.74767663  1
  Na  Na3  1  0.49932696  0.36552188  0.74780481  1
  Na  Na4  1  0.18299646  0.99887926  0.74779022  1
  Na  Na5  1  0.68294717  0.99886257  0.74801759  1
  Na  Na6  1  0.00005195  0.99953849  0.50475458  1
  Na  Na7  1  0.49977374  0.99981936  0.50491633  1
  Na  Na8  1  0.99872842  0.99801931  0.00526245  1
  Na  Na9  1  0.50117149  0.00223406  0.00489763  1
  Na  Na10  1  0.33313050  0.34031342  0.83552469  1
  Na  Na11  1  0.83271855  0.33973939  0.83603638  1
  Na  Na12  1  0.33324259  0.33354998  0.33876983  1
  Na  Na13  1  0.83304228  0.32507426  0.33613248  1
  Na  Na14  1  0.16934829  0.66536606  0.17041830  1
  Na  Na15  1  0.66788059  0.67664782  0.17015425  1
  Na  Na16  1  0.17067104  0.66581612  0.66697640  1
  Na  Na17  1  0.67062081  0.66567945  0.66713762  1
  Nb  Nb18  1  0.99935723  0.00283336  0.35582885  1
  Nb  Nb19  1  0.50042819  0.99830085  0.35629006  1
  Nb  Nb20  1  0.99953810  0.99844476  0.85520360  1
  Nb  Nb21  1  0.49987297  0.99866008  0.85546262  1
  Nb  Nb22  1  0.33349890  0.33594604  0.18807963  1
  Nb  Nb23  1  0.16528009  0.66643848  0.02332253  1
  Nb  Nb24  1  0.66858097  0.66693658  0.02384987  1
  Nb  Nb25  1  0.16682668  0.66701256  0.52332340  1
  Nb  Nb26  1  0.66674535  0.66708342  0.52360514  1
  Ga  Ga27  1  0.99917700  0.99886328  0.64511203  1
  Ga  Ga28  1  0.49910603  0.99870212  0.64519973  1
  Ga  Ga29  1  0.99770160  0.99981813  0.14717052  1
  Ga  Ga30  1  0.50153366  0.99987739  0.14748705  1
  Ga  Ga31  1  0.33298432  0.33904542  0.68146016  1
  Ga  Ga32  1  0.83293383  0.33904276  0.68147826  1
  Ga  Ga33  1  0.83286495  0.32481327  0.18391266  1
  Ga  Ga34  1  0.33376270  0.33357425  0.98103454  1
  Ga  Ga35  1  0.83310506  0.33254372  0.98296335  1
  Ga  Ga36  1  0.33322059  0.33333524  0.48258144  1
  Ga  Ga37  1  0.83359516  0.33423102  0.48233328  1
  Ga  Ga38  1  0.16914420  0.66512245  0.31594874  1
  Ga  Ga39  1  0.66669213  0.67407210  0.31582124  1
  Ga  Ga40  1  0.16967332  0.66590279  0.81652794  1
  Ga  Ga41  1  0.66925953  0.66599276  0.81675912  1
  P  P42  1  0.14319281  0.99568347  0.24900271  1
  P  P43  1  0.64572836  0.99544681  0.24774585  1
  P  P44  1  0.35413631  0.71746408  0.24853305  1
  P  P45  1  0.85305856  0.71082377  0.24799367  1
  P  P46  1  0.00062769  0.29157756  0.24748295  1
  P  P47  1  0.50194795  0.29074471  0.24925550  1
  P  P48  1  0.14699439  0.29486307  0.74799940  1
  P  P49  1  0.64700459  0.29497444  0.74798678  1
  P  P50  1  0.99838741  0.70694411  0.74781671  1
  P  P51  1  0.49834513  0.70703589  0.74784009  1
  P  P52  1  0.35326779  0.99527464  0.74782145  1
  P  P53  1  0.85313901  0.99520074  0.74771621  1
  P  P54  1  0.47370022  0.32468972  0.58417176  1
  P  P55  1  0.97380309  0.32494843  0.58417725  1
  P  P56  1  0.18873076  0.05267673  0.58428843  1
  P  P57  1  0.68878181  0.05299062  0.58424092  1
  P  P58  1  0.33759697  0.62233922  0.58353232  1
  P  P59  1  0.83764646  0.62226824  0.58352574  1
  P  P60  1  0.47563501  0.62654235  0.08158855  1
  P  P61  1  0.97279949  0.62275717  0.08445000  1
  P  P62  1  0.33807951  0.04997039  0.08198869  1
  P  P63  1  0.83823999  0.05432004  0.08353847  1
  P  P64  1  0.18672695  0.32406905  0.08160592  1
  P  P65  1  0.68872755  0.32334518  0.08450393  1
  P  P66  1  0.30888353  0.65811930  0.91637589  1
  P  P67  1  0.80918124  0.65722781  0.91595929  1
  P  P68  1  0.01971833  0.38149038  0.91536995  1
  P  P69  1  0.52026878  0.38232790  0.91566487  1
  P  P70  1  0.17096499  0.96033320  0.91540482  1
  P  P71  1  0.67112568  0.95970429  0.91584866  1
  P  P72  1  0.30843636  0.95945590  0.41559844  1
  P  P73  1  0.80834414  0.95996114  0.41610684  1
  P  P74  1  0.17144174  0.38281343  0.41596220  1
  P  P75  1  0.67135357  0.38340502  0.41521342  1
  P  P76  1  0.02014769  0.65849540  0.41521476  1
  P  P77  1  0.52021675  0.65628818  0.41592282  1
  O  O78  1  0.10169729  0.03025719  0.30562696  1
  O  O79  1  0.60070361  0.03095086  0.30437916  1
  O  O80  1  0.41345046  0.79800834  0.30526273  1
  O  O81  1  0.91463196  0.79842013  0.30449610  1
  O  O82  1  0.48460046  0.17226895  0.30557227  1
  O  O83  1  0.98614892  0.17276468  0.30480082  1
  O  O84  1  0.10173041  0.17149948  0.80493796  1
  O  O85  1  0.60174348  0.17155349  0.80492016  1
  O  O86  1  0.48517955  0.79774509  0.80534277  1
  O  O87  1  0.98523028  0.79777254  0.80534944  1
  O  O88  1  0.41428033  0.02997187  0.80484133  1
  O  O89  1  0.91432265  0.03005178  0.80479151  1
  O  O90  1  0.39693717  0.96613781  0.69377605  1
  O  O91  1  0.89705056  0.96618797  0.69379932  1
  O  O92  1  0.08493566  0.20900307  0.69477360  1
  O  O93  1  0.58495789  0.20907557  0.69473201  1
  O  O94  1  0.01935444  0.83175695  0.69481644  1
  O  O95  1  0.51932434  0.83169318  0.69478566  1
  O  O96  1  0.39685469  0.82750653  0.19305073  1
  O  O97  1  0.89629824  0.82581688  0.19337902  1
  O  O98  1  0.01713743  0.20666657  0.19323204  1
  O  O99  1  0.51854243  0.20793370  0.19422757  1
  O  O100  1  0.08501037  0.96240911  0.19413686  1
  O  O101  1  0.58715650  0.96622422  0.19331617  1
  O  O102  1  0.43957473  0.36673018  0.64254502  1
  O  O103  1  0.93952051  0.36665870  0.64257592  1
  O  O104  1  0.24411602  0.12098947  0.64258569  1
  O  O105  1  0.74412432  0.12107559  0.64254895  1
  O  O106  1  0.31526653  0.50855656  0.64035176  1
  O  O107  1  0.81522573  0.50853579  0.64033450  1
  O  O108  1  0.43399896  0.50612664  0.13840474  1
  O  O109  1  0.93900022  0.51136807  0.14204316  1
  O  O110  1  0.31911618  0.13298138  0.13859870  1
  O  O111  1  0.81517975  0.12276097  0.13979185  1
  O  O112  1  0.24702007  0.36243146  0.13845331  1
  O  O113  1  0.74456498  0.36687209  0.14206280  1
  O  O114  1  0.23027919  0.30012651  0.02643273  1
  O  O115  1  0.73017462  0.29957258  0.02777427  1
  O  O116  1  0.41989914  0.53974151  0.02646076  1
  O  O117  1  0.91963274  0.53920064  0.02775447  1
  O  O118  1  0.34989802  0.15984072  0.02647429  1
  O  O119  1  0.85046617  0.15973985  0.02643405  1
  O  O120  1  0.23080410  0.16139645  0.52828159  1
  O  O121  1  0.73087503  0.16160514  0.52819910  1
  O  O122  1  0.35024542  0.54043215  0.52693514  1
  O  O123  1  0.85019010  0.54040808  0.52686814  1
  O  O124  1  0.41930657  0.30039322  0.52821636  1
  O  O125  1  0.91926866  0.30034107  0.52824621  1
  O  O126  1  0.26729550  0.69557868  0.97224731  1
  O  O127  1  0.76801508  0.69576588  0.97190144  1
  O  O128  1  0.08094854  0.46658061  0.97095020  1
  O  O129  1  0.58083340  0.46666504  0.97103007  1
  O  O130  1  0.15273815  0.83887699  0.97097554  1
  O  O131  1  0.65237390  0.83777433  0.97105273  1
  O  O132  1  0.26758901  0.83935373  0.47174293  1
  O  O133  1  0.76746445  0.83962218  0.47204441  1
  O  O134  1  0.15228132  0.46491988  0.47194553  1
  O  O135  1  0.65235673  0.46683588  0.47082146  1
  O  O136  1  0.08088082  0.69526674  0.47083134  1
  O  O137  1  0.58031661  0.69575318  0.47194342  1
  O  O138  1  0.06163496  0.63482572  0.35787450  1
  O  O139  1  0.56252746  0.63191551  0.35986747  1
  O  O140  1  0.25346471  0.87437906  0.35968560  1
  O  O141  1  0.75417514  0.87510305  0.36002050  1
  O  O142  1  0.18352594  0.49150032  0.35986328  1
  O  O143  1  0.68242211  0.48862893  0.35778829  1
  O  O144  1  0.06150736  0.48892495  0.85822117  1
  O  O145  1  0.56114895  0.48854140  0.85812180  1
  O  O146  1  0.18254332  0.87706748  0.85809414  1
  O  O147  1  0.68244578  0.87705829  0.85810580  1
  O  O148  1  0.25412963  0.63254196  0.86028290  1
  O  O149  1  0.75420281  0.63245864  0.86009335  1
  O  O150  1  0.01294765  0.83183050  0.40918632  1
  O  O151  1  0.51316556  0.83049829  0.40951465  1
  O  O152  1  0.40248135  0.97360298  0.40923602  1
  O  O153  1  0.90233007  0.97400240  0.40973411  1
  O  O154  1  0.08446372  0.19493947  0.40980309  1
  O  O155  1  0.58436405  0.19490706  0.40939051  1
  O  O156  1  0.01322215  0.19467353  0.90948822  1
  O  O157  1  0.51295097  0.19461746  0.90944680  1
  O  O158  1  0.08432804  0.97405560  0.90994264  1
  O  O159  1  0.58428842  0.97396820  0.90982184  1
  O  O160  1  0.40254982  0.83148877  0.90994547  1
  O  O161  1  0.90265057  0.83135075  0.90961245  1
  O  O162  1  0.48833882  0.16566302  0.59010564  1
  O  O163  1  0.98834600  0.16574885  0.59012943  1
  O  O164  1  0.09468227  0.02408247  0.59043592  1
  O  O165  1  0.59469826  0.02413917  0.59041404  1
  O  O166  1  0.41743109  0.81030468  0.58990679  1
  O  O167  1  0.91737175  0.81029678  0.58989132  1
  O  O168  1  0.48766799  0.81052332  0.08997522  1
  O  O169  1  0.98897631  0.81202859  0.09019769  1
  O  O170  1  0.41745752  0.02419316  0.09052954  1
  O  O171  1  0.91736863  0.02395519  0.08941817  1
  O  O172  1  0.09472785  0.16510055  0.09023139  1
  O  O173  1  0.59416578  0.16514849  0.09015498  1
  O  O174  1  0.34556189  0.16599830  0.74471556  1
  O  O175  1  0.84562469  0.16605249  0.74470713  1
  O  O176  1  0.23762452  0.30443006  0.74414554  1
  O  O177  1  0.73763012  0.30446381  0.74407892  1
  O  O178  1  0.41631539  0.52020120  0.74399445  1
  O  O179  1  0.91634406  0.52026345  0.74401703  1
  O  O180  1  0.34630235  0.52880810  0.24265007  1
  O  O181  1  0.84575798  0.52463621  0.24444878  1
  O  O182  1  0.41714530  0.30817171  0.24328709  1
  O  O183  1  0.91702134  0.31186983  0.24408257  1
  O  O184  1  0.23673453  0.16571145  0.24307098  1
  O  O185  1  0.73674089  0.16997002  0.24425512  1
  O  O186  1  0.32154991  0.49840879  0.92376295  1
  O  O187  1  0.82183835  0.49803002  0.92387439  1
  O  O188  1  0.42773148  0.35731893  0.92317438  1
  O  O189  1  0.92773875  0.35760500  0.92328303  1
  O  O190  1  0.25108662  0.14466872  0.92317161  1
  O  O191  1  0.75095180  0.14464956  0.92329082  1
  O  O192  1  0.32168112  0.14473016  0.42367051  1
  O  O193  1  0.82159981  0.14516165  0.42398255  1
  O  O194  1  0.25090538  0.35656962  0.42368057  1
  O  O195  1  0.75075813  0.35705177  0.42315736  1
  O  O196  1  0.42751803  0.49796316  0.42363353  1
  O  O197  1  0.92789489  0.49827697  0.42322701  1
  O  O198  1  0.17983811  0.49791013  0.07652072  1
  O  O199  1  0.67896326  0.49623386  0.07565173  1
  O  O200  1  0.06921899  0.64167945  0.07526880  1
  O  O201  1  0.56912803  0.64044110  0.07667818  1
  O  O202  1  0.25101751  0.86225252  0.07658861  1
  O  O203  1  0.75185273  0.86124847  0.07511850  1
  O  O204  1  0.17905645  0.86131130  0.57620812  1
  O  O205  1  0.67915395  0.86144008  0.57625979  1
  O  O206  1  0.25166307  0.64260188  0.57568008  1
  O  O207  1  0.75161662  0.64223864  0.57562603  1
  O  O208  1  0.06941704  0.49743344  0.57617028  1
  O  O209  1  0.56941809  0.49695780  0.57612470  1
  O  O210  1  0.15301452  0.83084213  0.25672733  1
  O  O211  1  0.65454935  0.83082026  0.25676356  1
  O  O212  1  0.26110958  0.69061218  0.25646705  1
  O  O213  1  0.75944002  0.68450503  0.25653805  1
  O  O214  1  0.08231282  0.47914532  0.25633565  1
  O  O215  1  0.58452788  0.47473158  0.25692686  1
  O  O216  1  0.15292882  0.47636459  0.75729833  1
  O  O217  1  0.65298062  0.47649744  0.75730303  1
  O  O218  1  0.08272414  0.68944725  0.75673315  1
  O  O219  1  0.58267461  0.68936803  0.75664803  1
  O  O220  1  0.25941343  0.83363458  0.75660785  1
  O  O221  1  0.75942557  0.83359302  0.75660110  1
