# generated using pymatgen
data_Na3Sc2Ti2P5SO24
_symmetry_space_group_name_H-M   'P 1'
_cell_length_a   8.76150255
_cell_length_b   8.74349809
_cell_length_c   22.57269979
_cell_angle_alpha   90.06809130
_cell_angle_beta   90.08051764
_cell_angle_gamma   119.70650157
_symmetry_Int_Tables_number   1
_chemical_formula_structural   Na3Sc2Ti2P5SO24
_chemical_formula_sum   'Na9 Sc6 Ti6 P15 S3 O72'
_cell_volume   1501.94259529
_cell_formula_units_Z   3
loop_
 _symmetry_equiv_pos_site_id
 _symmetry_equiv_pos_as_xyz
  1  'x, y, z'
loop_
 _atom_site_type_symbol
 _atom_site_label
 _atom_site_symmetry_multiplicity
 _atom_site_fract_x
 _atom_site_fract_y
 _atom_site_fract_z
 _atom_site_occupancy
  Na  Na0  1  0.00170272  0.36442680  0.75067096  1
  Na  Na1  1  0.66781740  0.96404239  0.58351903  1
  Na  Na2  1  0.03742118  0.33284004  0.08335935  1
  Na  Na3  1  0.00867639  0.99756669  0.49974322  1
  Na  Na4  1  0.00303605  0.99321720  0.99913649  1
  Na  Na5  1  0.65926547  0.32961881  0.83443455  1
  Na  Na6  1  0.67163490  0.33406468  0.33322746  1
  Na  Na7  1  0.34283511  0.67188054  0.16777243  1
  Na  Na8  1  0.33389645  0.66758906  0.66704867  1
  Sc  Sc9  1  0.00555764  0.99728502  0.64636177  1
  Sc  Sc10  1  0.99694564  0.99552403  0.14643654  1
  Sc  Sc11  1  0.33243572  0.67139808  0.01887150  1
  Sc  Sc12  1  0.32623757  0.66723118  0.51868696  1
  Sc  Sc13  1  0.32869153  0.66588872  0.31513459  1
  Sc  Sc14  1  0.33546532  0.67650068  0.81584245  1
  Ti  Ti15  1  0.97787052  0.98811866  0.35169637  1
  Ti  Ti16  1  0.01043568  0.00812411  0.85050590  1
  Ti  Ti17  1  0.66119301  0.33483023  0.68653155  1
  Ti  Ti18  1  0.67375634  0.34035228  0.18602740  1
  Ti  Ti19  1  0.66490894  0.32540091  0.98118127  1
  Ti  Ti20  1  0.67491294  0.33582171  0.48091388  1
  P  P21  1  0.70727382  0.70579791  0.24884581  1
  P  P22  1  0.99692679  0.28850890  0.24894375  1
  P  P23  1  0.29388391  0.29005295  0.74958232  1
  P  P24  1  0.99569556  0.70883927  0.75034047  1
  P  P25  1  0.70995747  0.99974105  0.74872269  1
  P  P26  1  0.95421360  0.33677783  0.58467817  1
  P  P27  1  0.38291969  0.05294003  0.58216751  1
  P  P28  1  0.66507680  0.61638485  0.58265025  1
  P  P29  1  0.94913181  0.61898439  0.08211498  1
  P  P30  1  0.66285473  0.04632258  0.08447350  1
  P  P31  1  0.38470659  0.33392498  0.08349546  1
  P  P32  1  0.03490008  0.36835156  0.91682157  1
  P  P33  1  0.33248437  0.96504364  0.91723160  1
  P  P34  1  0.62653027  0.96308211  0.41771953  1
  P  P35  1  0.03593443  0.66826847  0.41627632  1
  S  S36  1  0.29198297  0.00472765  0.25055711  1
  S  S37  1  0.63181452  0.66754151  0.91694978  1
  S  S38  1  0.33264485  0.36779938  0.41669605  1
  O  O39  1  0.20691154  0.02871300  0.30378481  1
  O  O40  1  0.82654359  0.79722268  0.30491337  1
  O  O41  1  0.97247576  0.16665919  0.30343800  1
  O  O42  1  0.20321607  0.17147629  0.80508522  1
  O  O43  1  0.97144908  0.80103305  0.80542359  1
  O  O44  1  0.83471387  0.03306308  0.80287325  1
  O  O45  1  0.78942460  0.97497675  0.69159537  1
  O  O46  1  0.17603280  0.20984687  0.69564810  1
  O  O47  1  0.02681764  0.81865346  0.69504963  1
  O  O48  1  0.79395189  0.81872920  0.19503103  1
  O  O49  1  0.02557957  0.21041357  0.19220222  1
  O  O50  1  0.18682648  0.97682817  0.19671957  1
  O  O51  1  0.86437677  0.35796550  0.64120580  1
  O  O52  1  0.50057743  0.14246531  0.63815293  1
  O  O53  1  0.64416441  0.50250482  0.63862302  1
  O  O54  1  0.86057993  0.50117124  0.13818990  1
  O  O55  1  0.64318695  0.14145205  0.13948346  1
  O  O56  1  0.49938204  0.35635783  0.13924118  1
  O  O57  1  0.47655248  0.31155777  0.02829640  1
  O  O58  1  0.83503626  0.52469825  0.02752240  1
  O  O59  1  0.69140888  0.16405523  0.02884560  1
  O  O60  1  0.47726671  0.16534672  0.52734372  1
  O  O61  1  0.68752620  0.52376463  0.52797341  1
  O  O62  1  0.83525083  0.30973672  0.52959773  1
  O  O63  1  0.55162938  0.69710686  0.96977918  1
  O  O64  1  0.14702435  0.44658251  0.97292620  1
  O  O65  1  0.29967057  0.85045798  0.97198044  1
  O  O66  1  0.55563114  0.85384724  0.47441576  1
  O  O67  1  0.30239942  0.44761199  0.46968536  1
  O  O68  1  0.14982158  0.70148431  0.47157302  1
  O  O69  1  0.11525133  0.63118460  0.36152556  1
  O  O70  1  0.51318547  0.87894609  0.36287650  1
  O  O71  1  0.36347582  0.47848781  0.36354800  1
  O  O72  1  0.11511565  0.47957723  0.86074898  1
  O  O73  1  0.36981781  0.88728204  0.86196854  1
  O  O74  1  0.52165365  0.63643592  0.86349857  1
  O  O75  1  0.01698018  0.83492420  0.40625875  1
  O  O76  1  0.81515554  0.98576401  0.40750281  1
  O  O77  1  0.17471559  0.19029120  0.40855105  1
  O  O78  1  0.01268306  0.18087344  0.90726883  1
  O  O79  1  0.16652218  0.98408241  0.90747544  1
  O  O80  1  0.80820025  0.82601192  0.90942178  1
  O  O81  1  0.96136048  0.16469759  0.58701924  1
  O  O82  1  0.20145805  0.03459578  0.58612984  1
  O  O83  1  0.82792511  0.80080402  0.58651875  1
  O  O84  1  0.96837277  0.80075190  0.08695904  1
  O  O85  1  0.83478951  0.03897696  0.08731887  1
  O  O86  1  0.20005353  0.17082335  0.08761486  1
  O  O87  1  0.69944823  0.17336419  0.74390510  1
  O  O88  1  0.47593424  0.30404931  0.74349668  1
  O  O89  1  0.82978186  0.52146589  0.74437223  1
  O  O90  1  0.69476049  0.52250558  0.24346993  1
  O  O91  1  0.82658157  0.30240638  0.24350825  1
  O  O92  1  0.46890882  0.16465958  0.24500700  1
  O  O93  1  0.65030619  0.50815084  0.92378679  1
  O  O94  1  0.84943677  0.34862391  0.92566307  1
  O  O95  1  0.49569328  0.15113005  0.92623104  1
  O  O96  1  0.65133475  0.15035543  0.42561108  1
  O  O97  1  0.49162225  0.34966090  0.42378581  1
  O  O98  1  0.85014951  0.50507808  0.42599627  1
  O  O99  1  0.36251240  0.49773766  0.07896760  1
  O  O100  1  0.12855143  0.62589923  0.07902344  1
  O  O101  1  0.50029030  0.86525899  0.07919014  1
  O  O102  1  0.37458988  0.87214151  0.57906035  1
  O  O103  1  0.50086011  0.63707846  0.57891143  1
  O  O104  1  0.13513697  0.50005097  0.57916439  1
  O  O105  1  0.31310230  0.84663299  0.25607120  1
  O  O106  1  0.52501224  0.68518009  0.25772122  1
  O  O107  1  0.15768029  0.47230811  0.25739095  1
  O  O108  1  0.31021143  0.47163484  0.75864843  1
  O  O109  1  0.15372372  0.67699797  0.75687619  1
  O  O110  1  0.52723202  0.83919144  0.75663310  1
