# generated using pymatgen
data_Na8ZnSi5Ge3SO24
_symmetry_space_group_name_H-M   'P 1'
_cell_length_a   8.92815918
_cell_length_b   8.91564891
_cell_length_c   21.69352713
_cell_angle_alpha   91.47483411
_cell_angle_beta   90.17743978
_cell_angle_gamma   120.21405034
_symmetry_Int_Tables_number   1
_chemical_formula_structural   Na8ZnSi5Ge3SO24
_chemical_formula_sum   'Na24 Zn3 Si15 Ge9 S3 O72'
_cell_volume   1491.47523369
_cell_formula_units_Z   3
loop_
 _symmetry_equiv_pos_site_id
 _symmetry_equiv_pos_as_xyz
  1  'x, y, z'
loop_
 _atom_site_type_symbol
 _atom_site_label
 _atom_site_symmetry_multiplicity
 _atom_site_fract_x
 _atom_site_fract_y
 _atom_site_fract_z
 _atom_site_occupancy
  Na  Na0  1  0.64187546  0.01535205  0.24707232  1
  Na  Na1  1  0.36824418  0.36417698  0.24252240  1
  Na  Na2  1  0.99168158  0.62187825  0.24535786  1
  Na  Na3  1  0.62831189  0.61524870  0.74875124  1
  Na  Na4  1  0.98732854  0.36874581  0.75187190  1
  Na  Na5  1  0.38615405  0.01033727  0.74829967  1
  Na  Na6  1  0.30922346  0.33458896  0.58960543  1
  Na  Na7  1  0.03141730  0.70134910  0.58332834  1
  Na  Na8  1  0.66358563  0.97023178  0.59205134  1
  Na  Na9  1  0.30972212  0.97099882  0.08001168  1
  Na  Na10  1  0.66364975  0.69358778  0.07901067  1
  Na  Na11  1  0.03212473  0.34473992  0.07929093  1
  Na  Na12  1  0.96198256  0.66642681  0.91452848  1
  Na  Na13  1  0.70246233  0.03602254  0.91361745  1
  Na  Na14  1  0.33401419  0.29700292  0.91476119  1
  Na  Na15  1  0.96084159  0.28347155  0.41370018  1
  Na  Na16  1  0.31898497  0.03319930  0.41791706  1
  Na  Na17  1  0.71554195  0.68002129  0.41817762  1
  Na  Na18  1  0.00064417  0.99783724  0.49755799  1
  Na  Na19  1  0.00067700  0.00035442  0.99509226  1
  Na  Na20  1  0.66669002  0.33291458  0.82871127  1
  Na  Na21  1  0.67683629  0.33291673  0.33198363  1
  Na  Na22  1  0.33175034  0.66559778  0.16163267  1
  Na  Na23  1  0.34074532  0.67251248  0.66997558  1
  Zn  Zn24  1  0.99772019  0.00813260  0.35784061  1
  Zn  Zn25  1  0.64796910  0.32882824  0.68924389  1
  Zn  Zn26  1  0.67980989  0.33526546  0.17091359  1
  Si  Si27  1  0.00245153  0.29589379  0.25303239  1
  Si  Si28  1  0.27585853  0.28340199  0.75319084  1
  Si  Si29  1  0.00658294  0.71210145  0.75321381  1
  Si  Si30  1  0.71412928  0.99366438  0.75219548  1
  Si  Si31  1  0.37399744  0.04007052  0.58236543  1
  Si  Si32  1  0.66459911  0.62844094  0.58395376  1
  Si  Si33  1  0.96550724  0.63205169  0.08432954  1
  Si  Si34  1  0.66157660  0.03892170  0.08231174  1
  Si  Si35  1  0.38078171  0.34069012  0.08300523  1
  Si  Si36  1  0.61989826  0.66465466  0.91605730  1
  Si  Si37  1  0.04541612  0.38064492  0.91562010  1
  Si  Si38  1  0.33476423  0.95417178  0.91682641  1
  Si  Si39  1  0.61436038  0.95525909  0.41667043  1
  Si  Si40  1  0.33819009  0.38301144  0.41991616  1
  Si  Si41  1  0.03816613  0.65691718  0.42018892  1
  Ge  Ge42  1  0.99904414  0.99970894  0.85444200  1
  Ge  Ge43  1  0.00072433  0.98014416  0.65349847  1
  Ge  Ge44  1  0.00972144  0.02435113  0.13743708  1
  Ge  Ge45  1  0.66765443  0.33521284  0.97961152  1
  Ge  Ge46  1  0.65406844  0.33733546  0.47778825  1
  Ge  Ge47  1  0.33468460  0.66871205  0.01665794  1
  Ge  Ge48  1  0.34704594  0.68163041  0.51670806  1
  Ge  Ge49  1  0.31502534  0.64366959  0.32443560  1
  Ge  Ge50  1  0.33411070  0.66538810  0.81266874  1
  S  S51  1  0.28915658  0.99535250  0.25055991  1
  S  S52  1  0.70542832  0.71072994  0.25015099  1
  S  S53  1  0.95923277  0.33468759  0.58145551  1
  O  O54  1  0.20611083  0.01193421  0.30678912  1
  O  O55  1  0.81211851  0.79040590  0.30663893  1
  O  O56  1  0.97133524  0.17983082  0.31151196  1
  O  O57  1  0.18927050  0.16161720  0.81284282  1
  O  O58  1  0.96705068  0.80321170  0.81260512  1
  O  O59  1  0.83577411  0.02834739  0.81371519  1
  O  O60  1  0.80121192  0.95599549  0.68924644  1
  O  O61  1  0.15255067  0.19496436  0.68893653  1
  O  O62  1  0.04938885  0.83050246  0.69006804  1
  O  O63  1  0.78860870  0.81296081  0.19440623  1
  O  O64  1  0.04418916  0.20631694  0.18946355  1
  O  O65  1  0.18175252  0.97085148  0.19335769  1
  O  O66  1  0.88460214  0.36312945  0.63715288  1
  O  O67  1  0.49889126  0.10816794  0.64208117  1
  O  O68  1  0.61809644  0.51014353  0.64290723  1
  O  O69  1  0.90429986  0.52283658  0.14593733  1
  O  O70  1  0.61377468  0.09909667  0.14610723  1
  O  O71  1  0.48839095  0.37796587  0.14665528  1
  O  O72  1  0.46826606  0.29492922  0.02414124  1
  O  O73  1  0.82872311  0.54355988  0.02513243  1
  O  O74  1  0.70991332  0.17376076  0.02527880  1
  O  O75  1  0.46099898  0.16897548  0.52156224  1
  O  O76  1  0.71060012  0.54225778  0.52232506  1
  O  O77  1  0.84808531  0.30696661  0.52464373  1
  O  O78  1  0.53569270  0.70447894  0.97690043  1
  O  O79  1  0.17115754  0.46484000  0.97709053  1
  O  O80  1  0.29368217  0.83064025  0.97647506  1
  O  O81  1  0.53302952  0.83673055  0.47648690  1
  O  O82  1  0.29963345  0.47751214  0.47775100  1
  O  O83  1  0.16772436  0.69316947  0.47838491  1
  O  O84  1  0.11699866  0.61344410  0.35663919  1
  O  O85  1  0.48021136  0.86009190  0.35481725  1
  O  O86  1  0.38196538  0.50440168  0.35786922  1
  O  O87  1  0.12845007  0.50616887  0.85661501  1
  O  O88  1  0.37949888  0.86953891  0.85671309  1
  O  O89  1  0.49236280  0.62127592  0.85554876  1
  O  O90  1  0.01869936  0.82569799  0.41456190  1
  O  O91  1  0.80288068  0.97511452  0.41476227  1
  O  O92  1  0.17388128  0.19097330  0.41789762  1
  O  O93  1  0.02560466  0.18541944  0.91281839  1
  O  O94  1  0.16192760  0.97689193  0.91266149  1
  O  O95  1  0.81473074  0.83975153  0.91285875  1
  O  O96  1  0.97624795  0.17779232  0.58161759  1
  O  O97  1  0.18022791  0.02427167  0.58771802  1
  O  O98  1  0.84438342  0.82567426  0.58791646  1
  O  O99  1  0.98146848  0.82846067  0.09272359  1
  O  O100  1  0.83907660  0.01934123  0.08763113  1
  O  O101  1  0.18413648  0.15949849  0.08489368  1
  O  O102  1  0.69579192  0.16341826  0.74944443  1
  O  O103  1  0.46605467  0.30609060  0.75204336  1
  O  O104  1  0.83827058  0.52226465  0.74747827  1
  O  O105  1  0.67855913  0.53188168  0.24676730  1
  O  O106  1  0.83771497  0.32385697  0.24718991  1
  O  O107  1  0.46288555  0.15391855  0.24876720  1
  O  O108  1  0.63868990  0.48961244  0.92238668  1
  O  O109  1  0.85119666  0.36073703  0.92332328  1
  O  O110  1  0.51156017  0.14909957  0.92333510  1
  O  O111  1  0.62843080  0.14752465  0.42216658  1
  O  O112  1  0.51805171  0.37291573  0.42120366  1
  O  O113  1  0.84840858  0.47616540  0.42456264  1
  O  O114  1  0.35233362  0.50740493  0.07538070  1
  O  O115  1  0.15851801  0.65632020  0.07410603  1
  O  O116  1  0.49272281  0.84298959  0.07355908  1
  O  O117  1  0.34393704  0.83895560  0.57475754  1
  O  O118  1  0.49133702  0.65147150  0.57479785  1
  O  O119  1  0.13630605  0.49226380  0.57751144  1
  O  O120  1  0.30575037  0.83647201  0.25037177  1
  O  O121  1  0.53307998  0.70192421  0.25286063  1
  O  O122  1  0.19266047  0.49409812  0.25660005  1
  O  O123  1  0.28807095  0.47535826  0.75513796  1
  O  O124  1  0.18706676  0.70384231  0.75699401  1
  O  O125  1  0.52276108  0.81294761  0.75527721  1
