# generated using pymatgen
data_Ge(BrF5)2
_symmetry_space_group_name_H-M   'P 1'
_cell_length_a   13.30659415
_cell_length_b   5.00576621
_cell_length_c   6.41789916
_cell_angle_alpha   64.67071122
_cell_angle_beta   90.00000000
_cell_angle_gamma   90.00000000
_symmetry_Int_Tables_number   1
_chemical_formula_structural   Ge(BrF5)2
_chemical_formula_sum   'Ge2 Br4 F20'
_cell_volume   386.39672611
_cell_formula_units_Z   2
loop_
 _symmetry_equiv_pos_site_id
 _symmetry_equiv_pos_as_xyz
  1  'x, y, z'
loop_
 _atom_site_type_symbol
 _atom_site_label
 _atom_site_symmetry_multiplicity
 _atom_site_fract_x
 _atom_site_fract_y
 _atom_site_fract_z
 _atom_site_occupancy
  Ge  Ge0  1  0.00000000  0.00000000  0.00000000  1
  Ge  Ge1  1  0.50000000  0.00000000  0.50000000  1
  Br  Br2  1  0.36405502  0.67970613  0.16477543  1
  Br  Br3  1  0.86405502  0.32029387  0.33522457  1
  Br  Br4  1  0.13594498  0.67970613  0.66477543  1
  Br  Br5  1  0.63594498  0.32029387  0.83522457  1
  F  F6  1  0.67732475  0.00265361  0.07340794  1
  F  F7  1  0.17732475  -0.00265361  0.42659206  1
  F  F8  1  0.32267525  -0.00265361  0.92659206  1
  F  F9  1  0.82267525  0.00265361  0.57340794  1
  F  F10  1  0.71719706  0.54436534  0.90747539  1
  F  F11  1  0.21719706  0.45563466  0.59252461  1
  F  F12  1  0.96418305  0.01117530  0.27454993  1
  F  F13  1  0.46418305  0.98882470  0.22545007  1
  F  F14  1  0.03581695  0.98882470  0.72545007  1
  F  F15  1  0.53581695  0.01117530  0.77454993  1
  F  F16  1  0.89933491  0.72835760  0.04015806  1
  F  F17  1  0.39933491  0.27164240  0.45984194  1
  F  F18  1  0.10066509  0.27164240  0.95984194  1
  F  F19  1  0.60066509  0.72835760  0.54015806  1
  F  F20  1  0.91645637  0.28785757  0.84753003  1
  F  F21  1  0.41645637  0.71214243  0.65246997  1
  F  F22  1  0.08354363  0.71214243  0.15246997  1
  F  F23  1  0.58354363  0.28785757  0.34753003  1
  F  F24  1  0.78280294  0.54436534  0.40747539  1
  F  F25  1  0.28280294  0.45563466  0.09252461  1
