# generated using pymatgen
data_MgAlCrO4
_symmetry_space_group_name_H-M   'P 1'
_cell_length_a   5.10731515
_cell_length_b   5.95725362
_cell_length_c   5.17567672
_cell_angle_alpha   103.52530315
_cell_angle_beta   74.80882583
_cell_angle_gamma   150.48540446
_symmetry_Int_Tables_number   1
_chemical_formula_structural   MgAlCrO4
_chemical_formula_sum   'Mg1 Al1 Cr1 O4'
_cell_volume   74.86181384
_cell_formula_units_Z   1
loop_
 _symmetry_equiv_pos_site_id
 _symmetry_equiv_pos_as_xyz
  1  'x, y, z'
loop_
 _atom_site_type_symbol
 _atom_site_label
 _atom_site_symmetry_multiplicity
 _atom_site_fract_x
 _atom_site_fract_y
 _atom_site_fract_z
 _atom_site_occupancy
  Mg  Mg0  1  0.80216680  0.01168131  0.80100922  1
  Al  Al1  1  0.46130044  0.98942300  0.46918506  1
  Cr  Cr2  1  0.61200990  0.51991432  0.08142394  1
  O  O3  1  0.18786568  0.99645918  0.80109367  1
  O  O4  1  0.14272437  0.50115328  0.64349592  1
  O  O5  1  0.81310880  0.00275235  0.19304031  1
  O  O6  1  0.79811601  0.47451856  0.32149089  1
