# generated using pymatgen
data_Na18Nb20Zn4Si27(SO16)9
_symmetry_space_group_name_H-M   'P 1'
_cell_length_a   17.92609315
_cell_length_b   8.95527328
_cell_length_c   22.84099403
_cell_angle_alpha   90.06633708
_cell_angle_beta   89.79434283
_cell_angle_gamma   120.02782580
_symmetry_Int_Tables_number   1
_chemical_formula_structural   Na18Nb20Zn4Si27(SO16)9
_chemical_formula_sum   'Na18 Nb20 Zn4 Si27 S9 O144'
_cell_volume   3174.57336337
_cell_formula_units_Z   1
loop_
 _symmetry_equiv_pos_site_id
 _symmetry_equiv_pos_as_xyz
  1  'x, y, z'
loop_
 _atom_site_type_symbol
 _atom_site_label
 _atom_site_symmetry_multiplicity
 _atom_site_fract_x
 _atom_site_fract_y
 _atom_site_fract_z
 _atom_site_occupancy
  Na  Na0  1  0.31638528  0.01588359  0.24275798  1
  Na  Na1  1  0.81621404  0.01260407  0.24953148  1
  Na  Na2  1  0.99375882  0.62090923  0.24312990  1
  Na  Na3  1  0.31668478  0.61981285  0.75099741  1
  Na  Na4  1  0.81634754  0.61788436  0.74632601  1
  Na  Na5  1  0.49359330  0.36688614  0.74470951  1
  Na  Na6  1  0.99599062  0.99672791  0.49546006  1
  Na  Na7  1  0.50037937  0.00162459  0.49881978  1
  Na  Na8  1  0.00044391  0.99985557  0.00046481  1
  Na  Na9  1  0.49523883  0.99157790  0.99793040  1
  Na  Na10  1  0.32730396  0.32335403  0.82892047  1
  Na  Na11  1  0.83268525  0.32930384  0.82671392  1
  Na  Na12  1  0.33394651  0.33774895  0.32327557  1
  Na  Na13  1  0.82772888  0.33048025  0.32400066  1
  Na  Na14  1  0.16590826  0.66409627  0.16117058  1
  Na  Na15  1  0.65797810  0.65543050  0.16859670  1
  Na  Na16  1  0.16286022  0.66635068  0.67233343  1
  Na  Na17  1  0.66402974  0.66544617  0.66305604  1
  Nb  Nb18  1  0.99895133  0.00008411  0.35496926  1
  Nb  Nb19  1  0.50653049  0.01245509  0.35640155  1
  Nb  Nb20  1  0.00724307  0.99966589  0.85823781  1
  Nb  Nb21  1  0.49852017  0.99659241  0.85599363  1
  Nb  Nb22  1  0.00226333  0.99227147  0.64758755  1
  Nb  Nb23  1  0.50088274  0.01217056  0.65005487  1
  Nb  Nb24  1  0.00163517  0.99096040  0.14920024  1
  Nb  Nb25  1  0.50249938  0.00373747  0.14319094  1
  Nb  Nb26  1  0.34019658  0.33922681  0.97795259  1
  Nb  Nb27  1  0.83932265  0.34890561  0.97445917  1
  Nb  Nb28  1  0.34009848  0.33198839  0.47398099  1
  Nb  Nb29  1  0.83337161  0.34254144  0.47470954  1
  Nb  Nb30  1  0.16671046  0.67447083  0.01974638  1
  Nb  Nb31  1  0.66207826  0.66777906  0.01776949  1
  Nb  Nb32  1  0.16683744  0.66447421  0.51569187  1
  Nb  Nb33  1  0.66618134  0.65895152  0.51970981  1
  Nb  Nb34  1  0.16325758  0.66047532  0.31345067  1
  Nb  Nb35  1  0.66371493  0.66521003  0.31048015  1
  Nb  Nb36  1  0.16468276  0.66419363  0.81266378  1
  Nb  Nb37  1  0.66264377  0.66528335  0.81501362  1
  Zn  Zn38  1  0.33684786  0.32977723  0.69127423  1
  Zn  Zn39  1  0.83136534  0.34797441  0.68655957  1
  Zn  Zn40  1  0.34045410  0.32348512  0.18375756  1
  Zn  Zn41  1  0.83591114  0.34313934  0.19018559  1
  Si  Si42  1  0.14893970  0.00968141  0.25225449  1
  Si  Si43  1  0.64534506  0.00353430  0.24843904  1
  Si  Si44  1  0.85288387  0.70722068  0.25160569  1
  Si  Si45  1  0.00219275  0.28822389  0.24901434  1
  Si  Si46  1  0.49995543  0.29098186  0.25029891  1
  Si  Si47  1  0.14530264  0.28882534  0.74900131  1
  Si  Si48  1  0.64788750  0.28920621  0.75306406  1
  Si  Si49  1  0.00010282  0.70368010  0.75242696  1
  Si  Si50  1  0.50292439  0.71647603  0.74892941  1
  Si  Si51  1  0.35255336  0.99856863  0.75234820  1
  Si  Si52  1  0.47720959  0.33265670  0.58659012  1
  Si  Si53  1  0.83343951  0.62563832  0.58538239  1
  Si  Si54  1  0.47735006  0.62009166  0.08659149  1
  Si  Si55  1  0.97738202  0.62078707  0.08679839  1
  Si  Si56  1  0.33238119  0.04302874  0.08586752  1
  Si  Si57  1  0.30925993  0.66368884  0.91650067  1
  Si  Si58  1  0.81022155  0.67216960  0.91608294  1
  Si  Si59  1  0.02535952  0.37878249  0.91731974  1
  Si  Si60  1  0.52159186  0.37275949  0.91707214  1
  Si  Si61  1  0.17112892  0.95848453  0.91642684  1
  Si  Si62  1  0.66728702  0.96081073  0.91670387  1
  Si  Si63  1  0.31185106  0.95195668  0.41436798  1
  Si  Si64  1  0.80962630  0.95252873  0.41646651  1
  Si  Si65  1  0.16711259  0.37323790  0.41631709  1
  Si  Si66  1  0.66729878  0.38356012  0.41525133  1
  Si  Si67  1  0.02246814  0.67038607  0.41681316  1
  Si  Si68  1  0.52616482  0.67369499  0.41702244  1
  S  S69  1  0.35686431  0.71265849  0.25062822  1
  S  S70  1  0.85713313  0.00251178  0.75002267  1
  S  S71  1  0.97893436  0.33422628  0.58378843  1
  S  S72  1  0.18873623  0.04215648  0.58323780  1
  S  S73  1  0.68957887  0.04545979  0.58405642  1
  S  S74  1  0.33242970  0.62355154  0.58328922  1
  S  S75  1  0.83344200  0.04265090  0.08341365  1
  S  S76  1  0.18826198  0.33305777  0.08409946  1
  S  S77  1  0.69031907  0.33678556  0.08320480  1
  O  O78  1  0.09476021  0.01876802  0.30845374  1
  O  O79  1  0.59389264  0.01991069  0.30646001  1
  O  O80  1  0.40855447  0.79664994  0.30375015  1
  O  O81  1  0.91639499  0.81046733  0.30728965  1
  O  O82  1  0.48867405  0.16292993  0.30685435  1
  O  O83  1  0.99073763  0.16810620  0.30646135  1
  O  O84  1  0.09258707  0.16502731  0.80541153  1
  O  O85  1  0.59460981  0.17123408  0.80848680  1
  O  O86  1  0.49078126  0.81337229  0.80582654  1
  O  O87  1  0.98517995  0.80856393  0.80613817  1
  O  O88  1  0.41652503  0.02271649  0.80704915  1
  O  O89  1  0.90832600  0.02385295  0.80271758  1
  O  O90  1  0.40206537  0.96758075  0.69348513  1
  O  O91  1  0.89827746  0.97039731  0.69642577  1
  O  O92  1  0.08131140  0.19149622  0.69127127  1
  O  O93  1  0.58261537  0.20222643  0.69438280  1
  O  O94  1  0.01165006  0.83189198  0.69356433  1
  O  O95  1  0.51721472  0.83892225  0.69050594  1
  O  O96  1  0.39598658  0.82317543  0.19741920  1
  O  O97  1  0.90216026  0.83714239  0.19355037  1
  O  O98  1  0.01699197  0.19573423  0.19107607  1
  O  O99  1  0.51139554  0.18815301  0.19337697  1
  O  O100  1  0.08235671  0.96280189  0.19452272  1
  O  O101  1  0.58227436  0.97206148  0.19183481  1
  O  O102  1  0.43890784  0.36393329  0.64522023  1
  O  O103  1  0.94128486  0.36019983  0.63682843  1
  O  O104  1  0.23822558  0.11617874  0.63649222  1
  O  O105  1  0.74072402  0.12056197  0.63693373  1
  O  O106  1  0.31673953  0.52555116  0.63743454  1
  O  O107  1  0.81638633  0.52186626  0.64504108  1
  O  O108  1  0.43851415  0.51023889  0.14393954  1
  O  O109  1  0.93922668  0.51422210  0.14569578  1
  O  O110  1  0.31010269  0.10085156  0.14632960  1
  O  O111  1  0.81866144  0.11067935  0.13763287  1
  O  O112  1  0.23763105  0.35856263  0.13717239  1
  O  O113  1  0.73933612  0.35961098  0.13619980  1
  O  O114  1  0.22842849  0.30770956  0.03058928  1
  O  O115  1  0.72964240  0.30929476  0.02978210  1
  O  O116  1  0.41912902  0.53075937  0.02656843  1
  O  O117  1  0.91466070  0.52150663  0.02847862  1
  O  O118  1  0.34570858  0.16828049  0.02840449  1
  O  O119  1  0.84280660  0.15076864  0.03122087  1
  O  O120  1  0.22735606  0.14616254  0.52992421  1
  O  O121  1  0.73225589  0.15285659  0.53095570  1
  O  O122  1  0.34134139  0.53439113  0.53102567  1
  O  O123  1  0.84673740  0.52439140  0.52817282  1
  O  O124  1  0.41449234  0.30782426  0.52834402  1
  O  O125  1  0.92706167  0.31095783  0.53041562  1
  O  O126  1  0.26181508  0.69290276  0.97251575  1
  O  O127  1  0.76328468  0.69415962  0.97368390  1
  O  O128  1  0.08298740  0.46591760  0.97458427  1
  O  O129  1  0.58300469  0.47294086  0.97322478  1
  O  O130  1  0.15177170  0.83539214  0.97358654  1
  O  O131  1  0.65327358  0.83526876  0.97331266  1
  O  O132  1  0.26237923  0.83266108  0.47275873  1
  O  O133  1  0.76186200  0.83037916  0.47313079  1
  O  O134  1  0.15418077  0.47387469  0.47383646  1
  O  O135  1  0.65203805  0.46779675  0.47408879  1
  O  O136  1  0.08320531  0.69067735  0.47380874  1
  O  O137  1  0.58349201  0.69891530  0.47478104  1
  O  O138  1  0.06675866  0.63593348  0.35899495  1
  O  O139  1  0.56764478  0.63408348  0.35983528  1
  O  O140  1  0.25174495  0.86566779  0.35707180  1
  O  O141  1  0.75169410  0.87124108  0.35754584  1
  O  O142  1  0.18266278  0.50149430  0.36056691  1
  O  O143  1  0.68405280  0.50243632  0.35850290  1
  O  O144  1  0.06691935  0.49997453  0.85934432  1
  O  O145  1  0.56713434  0.49652145  0.85855899  1
  O  O146  1  0.18250353  0.86392651  0.85875377  1
  O  O147  1  0.68286545  0.86477156  0.85987717  1
  O  O148  1  0.25145510  0.63592769  0.85702563  1
  O  O149  1  0.75189646  0.63889240  0.85672484  1
  O  O150  1  0.01263426  0.83770667  0.41282717  1
  O  O151  1  0.50995320  0.83459971  0.40856946  1
  O  O152  1  0.40583749  0.97207182  0.40987050  1
  O  O153  1  0.90536881  0.97542834  0.41017670  1
  O  O154  1  0.08126986  0.18836668  0.41153236  1
  O  O155  1  0.58288474  0.19035829  0.41058027  1
  O  O156  1  0.00984705  0.18511468  0.90750132  1
  O  O157  1  0.51318766  0.18658334  0.91195198  1
  O  O158  1  0.08310460  0.97391509  0.90997473  1
  O  O159  1  0.58154626  0.97412469  0.91034260  1
  O  O160  1  0.40474885  0.83441176  0.90939749  1
  O  O161  1  0.90558140  0.83887106  0.90813365  1
  O  O162  1  0.48790797  0.15674336  0.58832457  1
  O  O163  1  0.99014294  0.17904268  0.58769430  1
  O  O164  1  0.09915017  0.02214299  0.58769814  1
  O  O165  1  0.60190134  0.02873853  0.58730566  1
  O  O166  1  0.41099587  0.79867008  0.58552052  1
  O  O167  1  0.92125045  0.82363820  0.59009866  1
  O  O168  1  0.49117273  0.81834383  0.09038626  1
  O  O169  1  0.98758249  0.81796502  0.08863988  1
  O  O170  1  0.42051188  0.02441727  0.09067563  1
  O  O171  1  0.91298142  0.02711115  0.08584988  1
  O  O172  1  0.09895784  0.17356376  0.08779020  1
  O  O173  1  0.60108200  0.17850177  0.08650802  1
  O  O174  1  0.34866262  0.17108017  0.74877388  1
  O  O175  1  0.84646748  0.15180168  0.74153316  1
  O  O176  1  0.24022025  0.31744056  0.74287045  1
  O  O177  1  0.74116644  0.30992622  0.74901901  1
  O  O178  1  0.41795454  0.52984686  0.74737224  1
  O  O179  1  0.91483708  0.52033949  0.74746241  1
  O  O180  1  0.34385041  0.53998564  0.24518741  1
  O  O181  1  0.84887729  0.52671245  0.24888381  1
  O  O182  1  0.41425823  0.30265190  0.25101346  1
  O  O183  1  0.91781064  0.30639902  0.24807646  1
  O  O184  1  0.24183442  0.17436544  0.24780131  1
  O  O185  1  0.74109972  0.16342564  0.24389561  1
  O  O186  1  0.31822836  0.49272106  0.92599738  1
  O  O187  1  0.81920902  0.49780482  0.92473260  1
  O  O188  1  0.42853669  0.36132729  0.92268587  1
  O  O189  1  0.92825447  0.35787784  0.92593019  1
  O  O190  1  0.25237173  0.14924733  0.92542028  1
  O  O191  1  0.75305179  0.14672376  0.92825093  1
  O  O192  1  0.31877444  0.14062091  0.42528102  1
  O  O193  1  0.82079745  0.14455377  0.43036496  1
  O  O194  1  0.25283567  0.35999991  0.42926435  1
  O  O195  1  0.75091850  0.35594482  0.42549074  1
  O  O196  1  0.42877310  0.49929134  0.42632052  1
  O  O197  1  0.92927744  0.49399418  0.42580647  1
  O  O198  1  0.17604818  0.48592348  0.07654232  1
  O  O199  1  0.67859793  0.49020403  0.07600359  1
  O  O200  1  0.07358299  0.64606267  0.07471707  1
  O  O201  1  0.57653104  0.64795253  0.07456680  1
  O  O202  1  0.25104254  0.84533147  0.07329912  1
  O  O203  1  0.75659652  0.86389711  0.07535887  1
  O  O204  1  0.17544713  0.86279610  0.57598261  1
  O  O205  1  0.67786824  0.86907704  0.57678233  1
  O  O206  1  0.25449236  0.64780837  0.57502891  1
  O  O207  1  0.75124903  0.65613490  0.57404724  1
  O  O208  1  0.06831664  0.49177511  0.57625794  1
  O  O209  1  0.57372478  0.50096310  0.57463380  1
  O  O210  1  0.15320493  0.82631366  0.25777645  1
  O  O211  1  0.65179436  0.82666199  0.25634404  1
  O  O212  1  0.27068103  0.70716054  0.25582295  1
  O  O213  1  0.76255845  0.70896062  0.25507654  1
  O  O214  1  0.08963622  0.48244663  0.25590836  1
  O  O215  1  0.58919177  0.47639665  0.25652385  1
  O  O216  1  0.15139889  0.47730590  0.75572511  1
  O  O217  1  0.65420216  0.48216509  0.75673725  1
  O  O218  1  0.08986694  0.70229939  0.75523976  1
  O  O219  1  0.58990554  0.69638170  0.75539860  1
  O  O220  1  0.26231339  0.81572610  0.75460187  1
  O  O221  1  0.77157197  0.83733348  0.75367558  1
