# generated using pymatgen
data_Cs3Cr2Br9
_symmetry_space_group_name_H-M   'P 1'
_cell_length_a   7.62323495
_cell_length_b   7.62327647
_cell_length_c   19.09839660
_cell_angle_alpha   90.00298197
_cell_angle_beta   89.99842621
_cell_angle_gamma   119.99949748
_symmetry_Int_Tables_number   1
_chemical_formula_structural   Cs3Cr2Br9
_chemical_formula_sum   'Cs6 Cr4 Br18'
_cell_volume   961.19325162
_cell_formula_units_Z   2
loop_
 _symmetry_equiv_pos_site_id
 _symmetry_equiv_pos_as_xyz
  1  'x, y, z'
loop_
 _atom_site_type_symbol
 _atom_site_label
 _atom_site_symmetry_multiplicity
 _atom_site_fract_x
 _atom_site_fract_y
 _atom_site_fract_z
 _atom_site_occupancy
  Cs  Cs0  1  0.66665121  0.33333281  0.92749526  1
  Cs  Cs1  1  0.33332636  0.66665200  0.42748886  1
  Cs  Cs2  1  0.66665899  0.33331739  0.57248683  1
  Cs  Cs3  1  0.33332279  0.66666322  0.07249471  1
  Cs  Cs4  1  -0.00000624  -0.00000484  0.74999838  1
  Cs  Cs5  1  -0.00000006  -0.00000278  0.24999137  1
  Cr  Cr6  1  0.33333274  0.66663460  0.66214484  1
  Cr  Cr7  1  0.66668060  0.33338321  0.16222170  1
  Cr  Cr8  1  0.66666939  0.33334267  0.33786780  1
  Cr  Cr9  1  0.33333765  0.66665460  0.83778699  1
  Br  Br10  1  0.82298954  0.64593758  0.40744420  1
  Br  Br11  1  0.17702439  0.35407072  0.90742417  1
  Br  Br12  1  0.17703169  0.82297413  0.90742301  1
  Br  Br13  1  0.17707022  0.35406211  0.59255622  1
  Br  Br14  1  0.64591714  0.82296106  0.90742758  1
  Br  Br15  1  0.35408287  0.17704453  0.40744700  1
  Br  Br16  1  0.03161776  0.51579637  0.74996556  1
  Br  Br17  1  0.82295101  0.17704575  0.40741185  1
  Br  Br18  1  0.51576026  0.03158509  0.25005201  1
  Br  Br19  1  0.48416604  0.51577790  0.74996833  1
  Br  Br20  1  0.51579503  0.48422878  0.25002895  1
  Br  Br21  1  0.96843898  0.48425567  0.25007679  1
  Br  Br22  1  0.35405921  0.17702970  0.09255427  1
  Br  Br23  1  0.48419797  0.96839414  0.74996153  1
  Br  Br24  1  0.82297590  0.64595267  0.09258344  1
  Br  Br25  1  0.17704047  0.82291770  0.59258004  1
  Br  Br26  1  0.64592068  0.82293792  0.59255772  1
  Br  Br27  1  0.82298443  0.17705531  0.09256060  1
