# generated using pymatgen
data_NaTaIn(PO4)3
_symmetry_space_group_name_H-M   'P 1'
_cell_length_a   8.80893750
_cell_length_b   8.80893722
_cell_length_c   23.00741059
_cell_angle_alpha   90.00000000
_cell_angle_beta   90.00000000
_cell_angle_gamma   120.00000106
_symmetry_Int_Tables_number   1
_chemical_formula_structural   NaTaIn(PO4)3
_chemical_formula_sum   'Na6 Ta6 In6 P18 O72'
_cell_volume   1546.12788693
_cell_formula_units_Z   6
loop_
 _symmetry_equiv_pos_site_id
 _symmetry_equiv_pos_as_xyz
  1  'x, y, z'
loop_
 _atom_site_type_symbol
 _atom_site_label
 _atom_site_symmetry_multiplicity
 _atom_site_fract_x
 _atom_site_fract_y
 _atom_site_fract_z
 _atom_site_occupancy
  Na  Na0  1  0.00000000  -0.00000000  0.49574273  1
  Na  Na1  1  0.00000000  -0.00000000  0.99574273  1
  Na  Na2  1  0.66666700  0.33333300  0.82907573  1
  Na  Na3  1  0.66666700  0.33333300  0.32907573  1
  Na  Na4  1  0.33333300  0.66666700  0.16240973  1
  Na  Na5  1  0.33333300  0.66666700  0.66240973  1
  Ta  Ta6  1  0.00000000  -0.00000000  0.64568887  1
  Ta  Ta7  1  0.00000000  -0.00000000  0.14568887  1
  Ta  Ta8  1  0.66666700  0.33333300  0.97902187  1
  Ta  Ta9  1  0.66666700  0.33333300  0.47902187  1
  Ta  Ta10  1  0.33333300  0.66666700  0.31235587  1
  Ta  Ta11  1  0.33333300  0.66666700  0.81235587  1
  In  In12  1  0.00000000  -0.00000000  0.35181620  1
  In  In13  1  0.00000000  -0.00000000  0.85181620  1
  In  In14  1  0.66666700  0.33333300  0.68514920  1
  In  In15  1  0.66666700  0.33333300  0.18514920  1
  In  In16  1  0.33333300  0.66666700  0.01848320  1
  In  In17  1  0.33333300  0.66666700  0.51848320  1
  P  P18  1  0.29009771  -0.00040879  0.25054732  1
  P  P19  1  0.70949350  0.70990229  0.25054732  1
  P  P20  1  0.00040879  0.29050650  0.25054732  1
  P  P21  1  0.29009771  0.29050650  0.75054732  1
  P  P22  1  0.00040879  0.70990229  0.75054732  1
  P  P23  1  0.70949350  -0.00040879  0.75054732  1
  P  P24  1  0.95676471  0.33292421  0.58388032  1
  P  P25  1  0.37616050  0.04323529  0.58388032  1
  P  P26  1  0.66707579  0.62383950  0.58388032  1
  P  P27  1  0.95676471  0.62383950  0.08388032  1
  P  P28  1  0.66707579  0.04323529  0.08388032  1
  P  P29  1  0.37616050  0.33292421  0.08388032  1
  P  P30  1  0.62343071  0.66625821  0.91721432  1
  P  P31  1  0.04282650  0.37656929  0.91721432  1
  P  P32  1  0.33374179  0.95717350  0.91721432  1
  P  P33  1  0.62343071  0.95717350  0.41721432  1
  P  P34  1  0.33374179  0.37656929  0.41721432  1
  P  P35  1  0.04282650  0.66625821  0.41721432  1
  O  O36  1  0.21318096  0.02730221  0.30505136  1
  O  O37  1  0.81412126  0.78681904  0.30505136  1
  O  O38  1  0.97269779  0.18587874  0.30505136  1
  O  O39  1  0.21318096  0.18587874  0.80505136  1
  O  O40  1  0.97269779  0.78681904  0.80505136  1
  O  O41  1  0.81412126  0.02730221  0.80505136  1
  O  O42  1  0.80065256  0.97017371  0.69555991  1
  O  O43  1  0.16952115  0.19934744  0.69555991  1
  O  O44  1  0.02982629  0.83047885  0.69555991  1
  O  O45  1  0.80065256  0.83047885  0.19555991  1
  O  O46  1  0.02982629  0.19934744  0.19555991  1
  O  O47  1  0.16952115  0.97017371  0.19555991  1
  O  O48  1  0.87984796  0.36063521  0.63838436  1
  O  O49  1  0.48078826  0.12015204  0.63838436  1
  O  O50  1  0.63936479  0.51921174  0.63838436  1
  O  O51  1  0.87984796  0.51921174  0.13838436  1
  O  O52  1  0.63936479  0.12015204  0.13838436  1
  O  O53  1  0.48078826  0.36063521  0.13838436  1
  O  O54  1  0.46731956  0.30350671  0.02889291  1
  O  O55  1  0.83618815  0.53268044  0.02889291  1
  O  O56  1  0.69649329  0.16381185  0.02889291  1
  O  O57  1  0.46731956  0.16381185  0.52889291  1
  O  O58  1  0.69649329  0.53268044  0.52889291  1
  O  O59  1  0.83618815  0.30350671  0.52889291  1
  O  O60  1  0.54651396  0.69396921  0.97171836  1
  O  O61  1  0.14745426  0.45348604  0.97171836  1
  O  O62  1  0.30603079  0.85254574  0.97171836  1
  O  O63  1  0.54651396  0.85254574  0.47171836  1
  O  O64  1  0.30603079  0.45348604  0.47171836  1
  O  O65  1  0.14745426  0.69396921  0.47171836  1
  O  O66  1  0.13398556  0.63684071  0.36222691  1
  O  O67  1  0.50285415  0.86601444  0.36222691  1
  O  O68  1  0.36315929  0.49714585  0.36222691  1
  O  O69  1  0.13398556  0.49714585  0.86222691  1
  O  O70  1  0.36315929  0.86601444  0.86222691  1
  O  O71  1  0.50285415  0.63684071  0.86222691  1
  O  O72  1  0.01297776  0.82026360  0.41037229  1
  O  O73  1  0.80728585  0.98702224  0.41037229  1
  O  O74  1  0.17973640  0.19271415  0.41037229  1
  O  O75  1  0.01297776  0.19271415  0.91037229  1
  O  O76  1  0.17973640  0.98702224  0.91037229  1
  O  O77  1  0.80728585  0.82026360  0.91037229  1
  O  O78  1  0.96714060  0.15908111  0.59071985  1
  O  O79  1  0.19194051  0.03285940  0.59071985  1
  O  O80  1  0.84091889  0.80805949  0.59071985  1
  O  O81  1  0.96714060  0.80805949  0.09071985  1
  O  O82  1  0.84091889  0.03285940  0.09071985  1
  O  O83  1  0.19194051  0.15908111  0.09071985  1
  O  O84  1  0.67964476  0.15359660  0.74370529  1
  O  O85  1  0.47395285  0.32035524  0.74370529  1
  O  O86  1  0.84640340  0.52604715  0.74370529  1
  O  O87  1  0.67964476  0.52604715  0.24370529  1
  O  O88  1  0.84640340  0.32035524  0.24370529  1
  O  O89  1  0.47395285  0.15359660  0.24370529  1
  O  O90  1  0.63380760  0.49241411  0.92405285  1
  O  O91  1  0.85860751  0.36619240  0.92405285  1
  O  O92  1  0.50758589  0.14139249  0.92405285  1
  O  O93  1  0.63380760  0.14139249  0.42405285  1
  O  O94  1  0.50758589  0.36619240  0.42405285  1
  O  O95  1  0.85860751  0.49241411  0.42405285  1
  O  O96  1  0.34631076  0.48693060  0.07703929  1
  O  O97  1  0.14061885  0.65368924  0.07703929  1
  O  O98  1  0.51306940  0.85938115  0.07703929  1
  O  O99  1  0.34631076  0.85938115  0.57703929  1
  O  O100  1  0.51306940  0.65368924  0.57703929  1
  O  O101  1  0.14061885  0.48693060  0.57703929  1
  O  O102  1  0.30047360  0.82574811  0.25738685  1
  O  O103  1  0.52527351  0.69952640  0.25738685  1
  O  O104  1  0.17425189  0.47472649  0.25738685  1
  O  O105  1  0.30047360  0.47472649  0.75738685  1
  O  O106  1  0.17425189  0.69952640  0.75738685  1
  O  O107  1  0.52527351  0.82574811  0.75738685  1
