# generated using pymatgen
data_MgMnCo3O8
_symmetry_space_group_name_H-M   'P 1'
_cell_length_a   5.67486932
_cell_length_b   5.64760921
_cell_length_c   5.72043689
_cell_angle_alpha   75.82784426
_cell_angle_beta   59.85912600
_cell_angle_gamma   59.95431490
_symmetry_Int_Tables_number   1
_chemical_formula_structural   MgMnCo3O8
_chemical_formula_sum   'Mg1 Mn1 Co3 O8'
_cell_volume   137.23846506
_cell_formula_units_Z   1
loop_
 _symmetry_equiv_pos_site_id
 _symmetry_equiv_pos_as_xyz
  1  'x, y, z'
loop_
 _atom_site_type_symbol
 _atom_site_label
 _atom_site_symmetry_multiplicity
 _atom_site_fract_x
 _atom_site_fract_y
 _atom_site_fract_z
 _atom_site_occupancy
  Mg  Mg0  1  0.24589961  0.51375328  0.50495222  1
  Mn  Mn1  1  0.98786424  0.01180504  0.00502076  1
  Co  Co2  1  0.49652742  0.01203541  0.00458165  1
  Co  Co3  1  0.97693858  0.51499437  0.02937079  1
  Co  Co4  1  0.50488931  0.50856771  0.98029260  1
  O  O5  1  0.25360165  0.18915476  0.80997373  1
  O  O6  1  0.76159949  0.16847501  0.79990758  1
  O  O7  1  0.25188591  0.67322638  0.79823242  1
  O  O8  1  0.77479035  0.67512095  0.80209931  1
  O  O9  1  0.23328193  0.34861620  0.20742427  1
  O  O10  1  0.70413065  0.35055028  0.21172520  1
  O  O11  1  0.23358900  0.83494948  0.19950526  1
  O  O12  1  0.71041887  0.85500114  0.20941422  1
