# generated using pymatgen
data_MgNb2In2O8
_symmetry_space_group_name_H-M   'P 1'
_cell_length_a   5.33621605
_cell_length_b   5.38805213
_cell_length_c   6.75395176
_cell_angle_alpha   89.35039052
_cell_angle_beta   93.60297082
_cell_angle_gamma   99.04218227
_symmetry_Int_Tables_number   1
_chemical_formula_structural   MgNb2In2O8
_chemical_formula_sum   'Mg1 Nb2 In2 O8'
_cell_volume   191.39588253
_cell_formula_units_Z   1
loop_
 _symmetry_equiv_pos_site_id
 _symmetry_equiv_pos_as_xyz
  1  'x, y, z'
loop_
 _atom_site_type_symbol
 _atom_site_label
 _atom_site_symmetry_multiplicity
 _atom_site_fract_x
 _atom_site_fract_y
 _atom_site_fract_z
 _atom_site_occupancy
  Mg  Mg0  1  0.66703055  0.97385094  0.36673322  1
  Nb  Nb1  1  0.02762299  0.74279979  0.12796097  1
  Nb  Nb2  1  0.97707620  0.22433632  0.83570507  1
  In  In3  1  0.45992403  0.69925423  0.80045044  1
  In  In4  1  0.41206313  0.38218948  0.33136721  1
  O  O5  1  0.18819545  0.41008965  0.65071239  1
  O  O6  1  0.71287030  0.01154699  0.67107209  1
  O  O7  1  0.79457670  0.64994829  0.32322908  1
  O  O8  1  0.30977643  0.80024510  0.31844601  1
  O  O9  1  0.23642408  0.47923600  0.02955722  1
  O  O10  1  0.86929869  0.06349311  0.11085177  1
  O  O11  1  0.78172954  0.51955228  0.90332854  1
  O  O12  1  0.20091191  0.95595783  0.88475300  1
