# generated using pymatgen
data_Na21Mg8Nb4Si3(P5O24)3
_symmetry_space_group_name_H-M   'P 1'
_cell_length_a   9.00446276
_cell_length_b   9.00434013
_cell_length_c   22.19576148
_cell_angle_alpha   89.85308547
_cell_angle_beta   90.10519532
_cell_angle_gamma   119.90783230
_symmetry_Int_Tables_number   1
_chemical_formula_structural   Na21Mg8Nb4Si3(P5O24)3
_chemical_formula_sum   'Na21 Mg8 Nb4 Si3 P15 O72'
_cell_volume   1559.95280980
_cell_formula_units_Z   1
loop_
 _symmetry_equiv_pos_site_id
 _symmetry_equiv_pos_as_xyz
  1  'x, y, z'
loop_
 _atom_site_type_symbol
 _atom_site_label
 _atom_site_symmetry_multiplicity
 _atom_site_fract_x
 _atom_site_fract_y
 _atom_site_fract_z
 _atom_site_occupancy
  Na  Na0  1  0.64832750  0.01102081  0.24442637  1
  Na  Na1  1  0.99048295  0.63474332  0.24428126  1
  Na  Na2  1  0.64602604  0.63647916  0.74689326  1
  Na  Na3  1  0.98863986  0.35129523  0.74789106  1
  Na  Na4  1  0.36514798  0.01031187  0.74730645  1
  Na  Na5  1  0.29665979  0.33364958  0.58541717  1
  Na  Na6  1  0.04055886  0.70532573  0.58219931  1
  Na  Na7  1  0.66409069  0.95866817  0.58274670  1
  Na  Na8  1  0.29560764  0.96257072  0.08494991  1
  Na  Na9  1  0.66630350  0.70238673  0.08456783  1
  Na  Na10  1  0.04117069  0.33631844  0.08201151  1
  Na  Na11  1  0.97327207  0.67508012  0.91521524  1
  Na  Na12  1  0.97284612  0.29331116  0.41009176  1
  Na  Na13  1  0.31771240  0.02223384  0.41232148  1
  Na  Na14  1  0.71048430  0.68679985  0.41256205  1
  Na  Na15  1  0.99525229  0.99461779  0.49693887  1
  Na  Na16  1  0.00168751  0.01600382  0.99509448  1
  Na  Na17  1  0.65853881  0.32281437  0.83166833  1
  Na  Na18  1  0.65631918  0.33454030  0.32368819  1
  Na  Na19  1  0.33347493  0.65422870  0.16151410  1
  Na  Na20  1  0.33519723  0.66846907  0.66258892  1
  Mg  Mg21  1  0.99890580  0.99872629  0.34920133  1
  Mg  Mg22  1  0.00008309  0.00774591  0.85245794  1
  Mg  Mg23  1  0.99906859  0.00048003  0.65051786  1
  Mg  Mg24  1  0.00201047  0.00323564  0.14997365  1
  Mg  Mg25  1  0.66710689  0.33308549  0.68450413  1
  Mg  Mg26  1  0.66168071  0.33372764  0.18470135  1
  Mg  Mg27  1  0.33287078  0.66347804  0.01696792  1
  Mg  Mg28  1  0.33509910  0.66938633  0.51713172  1
  Nb  Nb29  1  0.66484006  0.32852908  0.97920817  1
  Nb  Nb30  1  0.66917571  0.33287094  0.47987091  1
  Nb  Nb31  1  0.33181351  0.66733719  0.31280368  1
  Nb  Nb32  1  0.33159480  0.66392533  0.81828162  1
  Si  Si33  1  0.03849174  0.36246423  0.92226337  1
  Si  Si34  1  0.62879853  0.95679452  0.41993072  1
  Si  Si35  1  0.04346352  0.67255724  0.42012378  1
  P  P36  1  0.29510197  0.00527697  0.25062046  1
  P  P37  1  0.70594946  0.70441934  0.25013598  1
  P  P38  1  0.00076998  0.29357452  0.24985831  1
  P  P39  1  0.29368660  0.29223940  0.74922691  1
  P  P40  1  0.00056537  0.70687919  0.75032734  1
  P  P41  1  0.70605617  -0.00101349  0.74874497  1
  P  P42  1  0.96251854  0.33367709  0.58590823  1
  P  P43  1  0.37240510  0.03910099  0.58579504  1
  P  P44  1  0.66528458  0.62632224  0.58551818  1
  P  P45  1  0.96020246  0.62684832  0.08523451  1
  P  P46  1  0.66550455  0.03870035  0.08577309  1
  P  P47  1  0.37557388  0.33485670  0.08489954  1
  P  P48  1  0.62872694  0.66867227  0.92003995  1
  P  P49  1  0.33201705  0.95925903  0.91914677  1
  P  P50  1  0.33233609  0.37572014  0.41962156  1
  O  O51  1  0.21235045  0.01946442  0.30862248  1
  O  O52  1  0.81117499  0.78774154  0.30711705  1
  O  O53  1  0.97721098  0.18821529  0.30684380  1
  O  O54  1  0.20681588  0.17578195  0.80230737  1
  O  O55  1  0.97530413  0.78836854  0.80644691  1
  O  O56  1  0.82109398  0.02521830  0.80196592  1
  O  O57  1  0.77408989  0.96099230  0.69008597  1
  O  O58  1  0.18629569  0.22804487  0.69064236  1
  O  O59  1  0.03673409  0.81741246  0.69302612  1
  O  O60  1  0.77910201  0.81848963  0.19380142  1
  O  O61  1  0.02767392  0.21680007  0.19249284  1
  O  O62  1  0.18244512  0.96438074  0.19436862  1
  O  O63  1  0.87568090  0.35928031  0.64047424  1
  O  O64  1  0.48297298  0.12661957  0.64079950  1
  O  O65  1  0.64314368  0.51670249  0.64084968  1
  O  O66  1  0.87583183  0.51478519  0.14050842  1
  O  O67  1  0.63899545  0.12161137  0.14153431  1
  O  O68  1  0.49027006  0.36150835  0.13850767  1
  O  O69  1  0.47289819  0.31326001  0.02769973  1
  O  O70  1  0.84162649  0.52953876  0.02791588  1
  O  O71  1  0.68517565  0.16107610  0.02948424  1
  O  O72  1  0.47000478  0.15673970  0.52839531  1
  O  O73  1  0.68481277  0.52812111  0.52815779  1
  O  O74  1  0.84288630  0.31373741  0.52816596  1
  O  O75  1  0.54632503  0.69129957  0.97569753  1
  O  O76  1  0.14369557  0.46201188  0.97987863  1
  O  O77  1  0.31098350  0.85272370  0.97486894  1
  O  O78  1  0.54687026  0.84369380  0.47871432  1
  O  O79  1  0.30465942  0.45199211  0.47649434  1
  O  O80  1  0.15236912  0.69443382  0.47917756  1
  O  O81  1  0.13208320  0.63042786  0.36061925  1
  O  O82  1  0.49831211  0.86427651  0.36054484  1
  O  O83  1  0.36639931  0.49806455  0.36449765  1
  O  O84  1  0.13728859  0.50077323  0.86125588  1
  O  O85  1  0.36285245  0.86932811  0.86173239  1
  O  O86  1  0.50958754  0.64305000  0.86252259  1
  O  O87  1  0.01449585  0.83319471  0.41087012  1
  O  O88  1  0.82125647  0.99507602  0.41028828  1
  O  O89  1  0.18118127  0.19602174  0.40989843  1
  O  O90  1  0.01111642  0.17770212  0.91082538  1
  O  O91  1  0.17205931  0.97091706  0.90849403  1
  O  O92  1  0.80992870  0.81396483  0.90964203  1
  O  O93  1  0.97009048  0.16654185  0.58509107  1
  O  O94  1  0.19608437  0.02862110  0.58554899  1
  O  O95  1  0.83073477  0.80228000  0.58499895  1
  O  O96  1  0.96909010  0.80267180  0.08569159  1
  O  O97  1  0.83137192  0.02957679  0.08540930  1
  O  O98  1  0.19898860  0.16962486  0.08577939  1
  O  O99  1  0.67804732  0.15513819  0.74428725  1
  O  O100  1  0.47832698  0.32322425  0.74423775  1
  O  O101  1  0.84682163  0.52277502  0.74489713  1
  O  O102  1  0.68800066  0.52690623  0.24477522  1
  O  O103  1  0.84476634  0.32227174  0.24638037  1
  O  O104  1  0.48089075  0.15004097  0.24602645  1
  O  O105  1  0.63812125  0.49801484  0.92181799  1
  O  O106  1  0.84928958  0.36516731  0.92236007  1
  O  O107  1  0.49777988  0.13965085  0.92179369  1
  O  O108  1  0.63411082  0.14827735  0.42341063  1
  O  O109  1  0.50161229  0.36390654  0.42299258  1
  O  O110  1  0.84824226  0.49140757  0.42335928  1
  O  O111  1  0.35777898  0.49592648  0.07850290  1
  O  O112  1  0.14088014  0.64957536  0.07919257  1
  O  O113  1  0.50573963  0.86107458  0.07776323  1
  O  O114  1  0.35543438  0.86097438  0.58042134  1
  O  O115  1  0.50299102  0.64113762  0.57960875  1
  O  O116  1  0.14064860  0.49250936  0.57890885  1
  O  O117  1  0.30975004  0.82983387  0.25699431  1
  O  O118  1  0.52166632  0.68809676  0.25832810  1
  O  O119  1  0.16554824  0.48055587  0.25688925  1
  O  O120  1  0.31478729  0.48026960  0.75831287  1
  O  O121  1  0.16992565  0.68967606  0.75657707  1
  O  O122  1  0.51965696  0.83305096  0.75691005  1
