# generated using pymatgen
data_MgV4O5F7
_symmetry_space_group_name_H-M   'P 1'
_cell_length_a   5.47287851
_cell_length_b   5.34743658
_cell_length_c   8.75618614
_cell_angle_alpha   75.60313613
_cell_angle_beta   91.30528871
_cell_angle_gamma   61.35542905
_symmetry_Int_Tables_number   1
_chemical_formula_structural   MgV4O5F7
_chemical_formula_sum   'Mg1 V4 O5 F7'
_cell_volume   214.77222078
_cell_formula_units_Z   1
loop_
 _symmetry_equiv_pos_site_id
 _symmetry_equiv_pos_as_xyz
  1  'x, y, z'
loop_
 _atom_site_type_symbol
 _atom_site_label
 _atom_site_symmetry_multiplicity
 _atom_site_fract_x
 _atom_site_fract_y
 _atom_site_fract_z
 _atom_site_occupancy
  Mg  Mg0  1  0.84319200  0.24440200  0.59269600  1
  V  V1  1  0.72214700  0.52857800  0.23292100  1
  V  V2  1  0.50804600  0.98713200  0.49903600  1
  V  V3  1  0.30013500  0.50851200  0.74529600  1
  V  V4  1  0.01859900  0.99924000  0.01498400  1
  O  O5  1  0.89647400  0.31382200  0.10638400  1
  O  O6  1  0.63529000  0.64810100  0.41555200  1
  O  O7  1  0.36939500  0.81323000  0.09205900  1
  O  O8  1  0.42895300  0.74266400  0.68998400  1
  O  O9  1  0.46692100  0.25746600  0.61962600  1
  F  F10  1  0.93690200  0.81124500  0.58667300  1
  F  F11  1  0.90726000  0.77623300  0.18218100  1
  F  F12  1  0.56703200  0.25096000  0.31565700  1
  F  F13  1  0.59694500  0.20150800  0.91998200  1
  F  F14  1  0.05974700  0.70813000  0.89418800  1
  F  F15  1  0.02668100  0.25200200  0.79278300  1
  F  F16  1  0.09127900  0.19427600  0.42142800  1
