# generated using pymatgen
data_MgMn3V2O10
_symmetry_space_group_name_H-M   'P 1'
_cell_length_a   5.28692499
_cell_length_b   5.26326895
_cell_length_c   7.69549827
_cell_angle_alpha   109.80942962
_cell_angle_beta   99.55060746
_cell_angle_gamma   102.00156846
_symmetry_Int_Tables_number   1
_chemical_formula_structural   MgMn3V2O10
_chemical_formula_sum   'Mg1 Mn3 V2 O10'
_cell_volume   190.45120282
_cell_formula_units_Z   1
loop_
 _symmetry_equiv_pos_site_id
 _symmetry_equiv_pos_as_xyz
  1  'x, y, z'
loop_
 _atom_site_type_symbol
 _atom_site_label
 _atom_site_symmetry_multiplicity
 _atom_site_fract_x
 _atom_site_fract_y
 _atom_site_fract_z
 _atom_site_occupancy
  Mg  Mg0  1  0.53616800  0.79131000  0.41664900  1
  Mn  Mn1  1  0.00794100  0.50487100  0.99937000  1
  Mn  Mn2  1  0.70279800  0.89067400  0.89959700  1
  Mn  Mn3  1  0.30852600  0.12169000  0.09866800  1
  V  V4  1  0.10521200  0.72710100  0.68630000  1
  V  V5  1  0.88902300  0.27726200  0.32096900  1
  O  O6  1  0.07736200  0.08919600  0.85634700  1
  O  O7  1  0.31472300  0.74310900  0.95365400  1
  O  O8  1  0.08781400  0.31244000  0.52966400  1
  O  O9  1  0.22288200  0.47111800  0.22818300  1
  O  O10  1  0.44251600  0.84563200  0.66355500  1
  O  O11  1  0.55685800  0.11130900  0.32587200  1
  O  O12  1  0.81189200  0.55858100  0.78229100  1
  O  O13  1  0.86746300  0.65903300  0.44638700  1
  O  O14  1  0.69751100  0.27589400  0.04962000  1
  O  O15  1  0.93381200  0.94220800  0.15120500  1
