# generated using pymatgen
data_Na4HfMg3P2(SO6)4
_symmetry_space_group_name_H-M   'P 1'
_cell_length_a   8.83990974
_cell_length_b   8.83303291
_cell_length_c   22.60555534
_cell_angle_alpha   90.06895117
_cell_angle_beta   90.20835631
_cell_angle_gamma   120.00793627
_symmetry_Int_Tables_number   1
_chemical_formula_structural   Na4HfMg3P2(SO6)4
_chemical_formula_sum   'Na12 Hf3 Mg9 P6 S12 O72'
_cell_volume   1528.49224109
_cell_formula_units_Z   3
loop_
 _symmetry_equiv_pos_site_id
 _symmetry_equiv_pos_as_xyz
  1  'x, y, z'
loop_
 _atom_site_type_symbol
 _atom_site_label
 _atom_site_symmetry_multiplicity
 _atom_site_fract_x
 _atom_site_fract_y
 _atom_site_fract_z
 _atom_site_occupancy
  Na  Na0  1  0.63344530  0.99666396  0.25458812  1
  Na  Na1  1  0.36363090  0.36334805  0.25011569  1
  Na  Na2  1  0.30944412  0.34030851  0.59199772  1
  Na  Na3  1  0.66687219  0.95741085  0.58267696  1
  Na  Na4  1  0.97879759  0.67999006  0.91242144  1
  Na  Na5  1  0.32254858  0.29759317  0.90884655  1
  Na  Na6  1  0.98355664  0.97857639  0.49636008  1
  Na  Na7  1  0.98925812  0.00057855  0.99666144  1
  Na  Na8  1  0.65741716  0.32154141  0.82273793  1
  Na  Na9  1  0.67878527  0.33625452  0.33465700  1
  Na  Na10  1  0.32110019  0.66602878  0.16077259  1
  Na  Na11  1  0.32906715  0.65977988  0.66826936  1
  Hf  Hf12  1  0.66664242  0.32791381  0.98053169  1
  Hf  Hf13  1  0.66948056  0.33819969  0.47963347  1
  Hf  Hf14  1  0.33553778  0.66164699  0.81389677  1
  Mg  Mg15  1  0.99073143  0.99537339  0.35421598  1
  Mg  Mg16  1  0.99962788  0.00663668  0.84902039  1
  Mg  Mg17  1  0.99876349  0.99204731  0.65463043  1
  Mg  Mg18  1  0.00024032  0.99693547  0.14701097  1
  Mg  Mg19  1  0.65940628  0.34337244  0.68805123  1
  Mg  Mg20  1  0.67537161  0.34070862  0.18031377  1
  Mg  Mg21  1  0.33574626  0.66855283  0.01537587  1
  Mg  Mg22  1  0.34218165  0.67340949  0.51368639  1
  Mg  Mg23  1  0.33142553  0.67547213  0.32193067  1
  P  P24  1  0.29386621  0.28882909  0.74933499  1
  P  P25  1  0.66792356  0.62982001  0.58467709  1
  P  P26  1  0.63031614  0.67430011  0.91975046  1
  P  P27  1  0.04419765  0.37291245  0.91881033  1
  P  P28  1  0.32897268  0.95407541  0.91809528  1
  P  P29  1  0.63182522  0.96130572  0.41631272  1
  S  S30  1  0.28983373  0.99833825  0.24969369  1
  S  S31  1  0.70816304  0.70546379  0.24958294  1
  S  S32  1  0.00136362  0.29329021  0.24974683  1
  S  S33  1  0.99845664  0.70533815  0.75088636  1
  S  S34  1  0.70851016  0.00450208  0.74836607  1
  S  S35  1  0.96174562  0.33697600  0.58472126  1
  S  S36  1  0.37315939  0.03863984  0.58403380  1
  S  S37  1  0.96452408  0.63025440  0.08468601  1
  S  S38  1  0.66588842  0.03508054  0.08692897  1
  S  S39  1  0.36948479  0.33388397  0.08584675  1
  S  S40  1  0.32811504  0.37049232  0.41572178  1
  S  S41  1  0.04529043  0.67083386  0.41662631  1
  O  O42  1  0.21023509  0.02810613  0.30231906  1
  O  O43  1  0.81282574  0.78546990  0.30277875  1
  O  O44  1  0.97137877  0.18289737  0.30234591  1
  O  O45  1  0.20784279  0.18778742  0.80598078  1
  O  O46  1  0.97661341  0.78335262  0.80563560  1
  O  O47  1  0.81158754  0.02130228  0.80097445  1
  O  O48  1  0.78042122  0.97406799  0.69342940  1
  O  O49  1  0.18794390  0.21232767  0.69179566  1
  O  O50  1  0.02406414  0.81146770  0.69835418  1
  O  O51  1  0.78804405  0.81593018  0.19700655  1
  O  O52  1  0.03100440  0.21306284  0.19659100  1
  O  O53  1  0.18626126  0.97700484  0.19611213  1
  O  O54  1  0.87666391  0.35776342  0.63688492  1
  O  O55  1  0.48714474  0.11962577  0.63571332  1
  O  O56  1  0.63504046  0.50872282  0.63658050  1
  O  O57  1  0.87638273  0.52074483  0.13612424  1
  O  O58  1  0.64521220  0.11917304  0.14064766  1
  O  O59  1  0.47585521  0.35393829  0.13930598  1
  O  O60  1  0.45980298  0.31270367  0.03199544  1
  O  O61  1  0.85585441  0.54319554  0.02959308  1
  O  O62  1  0.68733174  0.14955931  0.03402079  1
  O  O63  1  0.46004402  0.15243667  0.53027860  1
  O  O64  1  0.68931465  0.53680740  0.52816964  1
  O  O65  1  0.84760531  0.30822400  0.53072910  1
  O  O66  1  0.54621351  0.69661916  0.97414030  1
  O  O67  1  0.15696805  0.45627116  0.97300244  1
  O  O68  1  0.29915603  0.84302837  0.97231605  1
  O  O69  1  0.54538632  0.85740083  0.47246658  1
  O  O70  1  0.30748935  0.45192197  0.46951002  1
  O  O71  1  0.14542004  0.68755855  0.47021543  1
  O  O72  1  0.11765390  0.63733335  0.36315734  1
  O  O73  1  0.52447675  0.88662975  0.35891327  1
  O  O74  1  0.35621312  0.47594548  0.36175867  1
  O  O75  1  0.12463463  0.49447329  0.86352473  1
  O  O76  1  0.36248877  0.87270159  0.86238319  1
  O  O77  1  0.50857326  0.63168941  0.86422155  1
  O  O78  1  0.02418969  0.82514833  0.41048266  1
  O  O79  1  0.81522122  0.98478211  0.41141698  1
  O  O80  1  0.17767194  0.19329129  0.40962560  1
  O  O81  1  0.02117138  0.19209652  0.90978835  1
  O  O82  1  0.17125597  0.98174957  0.91037192  1
  O  O83  1  0.81585150  0.82281424  0.90957340  1
  O  O84  1  0.97716045  0.17611778  0.58725461  1
  O  O85  1  0.20234611  0.02996914  0.58820221  1
  O  O86  1  0.82834752  0.81538403  0.58848445  1
  O  O87  1  0.97560733  0.80217388  0.08882004  1
  O  O88  1  0.82636934  0.02351014  0.08976002  1
  O  O89  1  0.19726230  0.17351419  0.08903660  1
  O  O90  1  0.68894113  0.16033506  0.74269067  1
  O  O91  1  0.47798474  0.31264442  0.74598462  1
  O  O92  1  0.84681309  0.52734502  0.74476910  1
  O  O93  1  0.68127884  0.52467207  0.24296436  1
  O  O94  1  0.84084725  0.30867446  0.24279715  1
  O  O95  1  0.47096804  0.15912925  0.24422445  1
  O  O96  1  0.64269664  0.49959438  0.92570898  1
  O  O97  1  0.86128848  0.36306379  0.92485207  1
  O  O98  1  0.49379372  0.14376733  0.92468706  1
  O  O99  1  0.64886899  0.14900736  0.42399239  1
  O  O100  1  0.49210373  0.35592500  0.42179895  1
  O  O101  1  0.86368296  0.50946432  0.42215442  1
  O  O102  1  0.35513117  0.49182255  0.07970861  1
  O  O103  1  0.13719650  0.64536398  0.07890494  1
  O  O104  1  0.50812037  0.86350409  0.07959913  1
  O  O105  1  0.35439031  0.86423004  0.57551907  1
  O  O106  1  0.49954080  0.64496902  0.57712396  1
  O  O107  1  0.13697578  0.49037550  0.57604556  1
  O  O108  1  0.31565927  0.84404799  0.25496418  1
  O  O109  1  0.52752130  0.68443961  0.25492915  1
  O  O110  1  0.16067269  0.46919247  0.25697962  1
  O  O111  1  0.31225970  0.47814669  0.75519301  1
  O  O112  1  0.16208811  0.69104025  0.75570865  1
  O  O113  1  0.52825841  0.84347029  0.75468265  1
