# generated using pymatgen
data_Na4Mg3ZrP2(SO6)4
_symmetry_space_group_name_H-M   'P 1'
_cell_length_a   8.88052121
_cell_length_b   8.86421896
_cell_length_c   22.74180380
_cell_angle_alpha   90.11996226
_cell_angle_beta   90.20045653
_cell_angle_gamma   119.97174946
_symmetry_Int_Tables_number   1
_chemical_formula_structural   Na4Mg3ZrP2(SO6)4
_chemical_formula_sum   'Na12 Mg9 Zr3 P6 S12 O72'
_cell_volume   1550.78325730
_cell_formula_units_Z   3
loop_
 _symmetry_equiv_pos_site_id
 _symmetry_equiv_pos_as_xyz
  1  'x, y, z'
loop_
 _atom_site_type_symbol
 _atom_site_label
 _atom_site_symmetry_multiplicity
 _atom_site_fract_x
 _atom_site_fract_y
 _atom_site_fract_z
 _atom_site_occupancy
  Na  Na0  1  0.63342157  0.99703842  0.25382732  1
  Na  Na1  1  0.36389462  0.36372912  0.25005787  1
  Na  Na2  1  0.30868593  0.33937751  0.59071026  1
  Na  Na3  1  0.66693812  0.95880957  0.58286192  1
  Na  Na4  1  0.97724837  0.67867093  0.91299109  1
  Na  Na5  1  0.32332959  0.29780305  0.91000422  1
  Na  Na6  1  0.98590628  0.98153299  0.49672389  1
  Na  Na7  1  0.99088717  0.00046657  0.99716958  1
  Na  Na8  1  0.65876108  0.32323488  0.82366126  1
  Na  Na9  1  0.67709436  0.33612940  0.33439637  1
  Na  Na10  1  0.32272171  0.66603667  0.16138094  1
  Na  Na11  1  0.32956556  0.66110763  0.66792374  1
  Mg  Mg12  1  0.99094501  0.99557463  0.35426901  1
  Mg  Mg13  1  -0.00016067  0.00648400  0.84899677  1
  Mg  Mg14  1  0.99880793  0.99250908  0.65443333  1
  Mg  Mg15  1  0.00029608  0.99711785  0.14745241  1
  Mg  Mg16  1  0.65942436  0.34301348  0.68815337  1
  Mg  Mg17  1  0.67527881  0.34089759  0.18019681  1
  Mg  Mg18  1  0.33551860  0.66860536  0.01518250  1
  Mg  Mg19  1  0.34179726  0.67358575  0.51388819  1
  Mg  Mg20  1  0.33128874  0.67476415  0.32144015  1
  Zr  Zr21  1  0.66692819  0.32742201  0.98069571  1
  Zr  Zr22  1  0.67014132  0.33858977  0.47921597  1
  Zr  Zr23  1  0.33540400  0.66127805  0.81288241  1
  P  P24  1  0.29276210  0.28536896  0.74898853  1
  P  P25  1  0.66792302  0.63016556  0.58522769  1
  P  P26  1  0.63053596  0.67604686  0.91960772  1
  P  P27  1  0.04530589  0.37235418  0.91866946  1
  P  P28  1  0.32740531  0.95298647  0.91813178  1
  P  P29  1  0.63006602  0.95760335  0.41600409  1
  S  S30  1  0.28908965  0.99825183  0.24976521  1
  S  S31  1  0.70931496  0.70643721  0.24965501  1
  S  S32  1  0.00102827  0.29240247  0.24979421  1
  S  S33  1  0.99627540  0.70649811  0.75024079  1
  S  S34  1  0.71160110  0.00649284  0.74813270  1
  S  S35  1  0.96225503  0.33670072  0.58513586  1
  S  S36  1  0.37229948  0.03798869  0.58449223  1
  S  S37  1  0.96507507  0.63093436  0.08528121  1
  S  S38  1  0.66598876  0.03427903  0.08718947  1
  S  S39  1  0.36866034  0.33378851  0.08613490  1
  S  S40  1  0.32670238  0.37165587  0.41540619  1
  S  S41  1  0.04807546  0.67268433  0.41618231  1
  O  O42  1  0.21077079  0.02934108  0.30221696  1
  O  O43  1  0.81383587  0.78617341  0.30257501  1
  O  O44  1  0.97080794  0.18235359  0.30222320  1
  O  O45  1  0.20839305  0.18617917  0.80566859  1
  O  O46  1  0.97502116  0.78404104  0.80506724  1
  O  O47  1  0.81326667  0.02315331  0.80098494  1
  O  O48  1  0.78389142  0.97569667  0.69377376  1
  O  O49  1  0.18635935  0.21010182  0.69211508  1
  O  O50  1  0.02262817  0.81278008  0.69819657  1
  O  O51  1  0.78808838  0.81682457  0.19735189  1
  O  O52  1  0.03093556  0.21242280  0.19694174  1
  O  O53  1  0.18550148  0.97624550  0.19655952  1
  O  O54  1  0.87729399  0.35850626  0.63663519  1
  O  O55  1  0.48674938  0.11939032  0.63565156  1
  O  O56  1  0.63460505  0.50831691  0.63643598  1
  O  O57  1  0.87653494  0.51998269  0.13600895  1
  O  O58  1  0.64404412  0.11938919  0.14017720  1
  O  O59  1  0.47687264  0.35529276  0.13896477  1
  O  O60  1  0.45535136  0.30997240  0.03223284  1
  O  O61  1  0.85702065  0.54691187  0.03017421  1
  O  O62  1  0.68980126  0.14750658  0.03422069  1
  O  O63  1  0.45619677  0.15066399  0.53078945  1
  O  O64  1  0.69073428  0.53894099  0.52892581  1
  O  O65  1  0.84948633  0.30562833  0.53111810  1
  O  O66  1  0.54513695  0.69656607  0.97354852  1
  O  O67  1  0.15710288  0.45661438  0.97261251  1
  O  O68  1  0.29915158  0.84301611  0.97202514  1
  O  O69  1  0.54498427  0.85526036  0.47209173  1
  O  O70  1  0.30649310  0.45251024  0.46933910  1
  O  O71  1  0.14690231  0.68937643  0.46983088  1
  O  O72  1  0.12070935  0.63932097  0.36315475  1
  O  O73  1  0.52256252  0.88338995  0.35921299  1
  O  O74  1  0.35494573  0.47741142  0.36184155  1
  O  O75  1  0.12287492  0.49222388  0.86361601  1
  O  O76  1  0.36222892  0.87425369  0.86252614  1
  O  O77  1  0.51068108  0.63200738  0.86422130  1
  O  O78  1  0.02620170  0.82639787  0.40995032  1
  O  O79  1  0.81289510  0.98187360  0.41076071  1
  O  O80  1  0.17598951  0.19509919  0.40916781  1
  O  O81  1  0.02319590  0.19205795  0.90997861  1
  O  O82  1  0.16980095  0.97996429  0.91066796  1
  O  O83  1  0.81554033  0.82459283  0.90980276  1
  O  O84  1  0.97874059  0.17627804  0.58833907  1
  O  O85  1  0.20113606  0.02793076  0.58919737  1
  O  O86  1  0.82748055  0.81557665  0.58928648  1
  O  O87  1  0.97698858  0.80284682  0.09026469  1
  O  O88  1  0.82559586  0.02208251  0.09104147  1
  O  O89  1  0.19673833  0.17432697  0.09039750  1
  O  O90  1  0.69144183  0.16152916  0.74233256  1
  O  O91  1  0.47649028  0.31037910  0.74528373  1
  O  O92  1  0.84494005  0.52909869  0.74409022  1
  O  O93  1  0.68166263  0.52553967  0.24278410  1
  O  O94  1  0.84083917  0.30796711  0.24263515  1
  O  O95  1  0.47029880  0.15912326  0.24394412  1
  O  O96  1  0.64417016  0.50242767  0.92535754  1
  O  O97  1  0.86277542  0.36188966  0.92439515  1
  O  O98  1  0.49072350  0.14253373  0.92431912  1
  O  O99  1  0.64736660  0.14487998  0.42360730  1
  O  O100  1  0.48949199  0.35630428  0.42108926  1
  O  O101  1  0.86701230  0.51143597  0.42133446  1
  O  O102  1  0.35468966  0.49160824  0.07963221  1
  O  O103  1  0.13697892  0.64555924  0.07898835  1
  O  O104  1  0.50856672  0.86333433  0.07951093  1
  O  O105  1  0.35450364  0.86385452  0.57585332  1
  O  O106  1  0.50016778  0.64496646  0.57716166  1
  O  O107  1  0.13763514  0.48977743  0.57623361  1
  O  O108  1  0.31579284  0.84470857  0.25528703  1
  O  O109  1  0.52849516  0.68527094  0.25520896  1
  O  O110  1  0.16031261  0.46824603  0.25713339  1
  O  O111  1  0.31148084  0.47429196  0.75456964  1
  O  O112  1  0.15910790  0.69122663  0.75486740  1
  O  O113  1  0.53170017  0.84553578  0.75394169  1
