# generated using pymatgen
data_MgCd2Te2(MoO6)2
_symmetry_space_group_name_H-M   'P 1'
_cell_length_a   5.21198309
_cell_length_b   5.21198309
_cell_length_c   9.40943689
_cell_angle_alpha   90.00000000
_cell_angle_beta   90.00000000
_cell_angle_gamma   89.71196149
_symmetry_Int_Tables_number   1
_chemical_formula_structural   MgCd2Te2(MoO6)2
_chemical_formula_sum   'Mg1 Cd2 Te2 Mo2 O12'
_cell_volume   255.60193719
_cell_formula_units_Z   1
loop_
 _symmetry_equiv_pos_site_id
 _symmetry_equiv_pos_as_xyz
  1  'x, y, z'
loop_
 _atom_site_type_symbol
 _atom_site_label
 _atom_site_symmetry_multiplicity
 _atom_site_fract_x
 _atom_site_fract_y
 _atom_site_fract_z
 _atom_site_occupancy
  Mg  Mg0  1  0.00000000  0.50000000  0.59723073  1
  Cd  Cd1  1  0.00000000  0.00000000  0.46519845  1
  Cd  Cd2  1  0.50000000  0.50000000  0.46519845  1
  Te  Te3  1  0.00000000  0.50000000  0.22727705  1
  Te  Te4  1  0.50000000  0.00000000  0.74875441  1
  Mo  Mo5  1  0.50000000  0.00000000  0.11708668  1
  Mo  Mo6  1  0.00000000  0.50000000  0.89983856  1
  O  O7  1  0.25589370  0.24410630  0.06255441  1
  O  O8  1  0.24303796  0.74303796  0.94989751  1
  O  O9  1  0.74410630  0.75589370  0.06255441  1
  O  O10  1  0.75696204  0.25696204  0.94989751  1
  O  O11  1  0.29409962  0.79409962  0.25714795  1
  O  O12  1  0.19478137  0.30521863  0.74521351  1
  O  O13  1  0.70590038  0.20590038  0.25714795  1
  O  O14  1  0.80521863  0.69478137  0.74521351  1
  O  O15  1  0.16464595  0.33535405  0.39460903  1
  O  O16  1  0.30608916  0.80608916  0.60528542  1
  O  O17  1  0.83535405  0.66464595  0.39460903  1
  O  O18  1  0.69391084  0.19391084  0.60528542  1
