# generated using pymatgen
data_Na3Mg2Ta10Si3(P5O24)3
_symmetry_space_group_name_H-M   'P 1'
_cell_length_a   8.76507023
_cell_length_b   8.76704708
_cell_length_c   22.66326736
_cell_angle_alpha   89.91111027
_cell_angle_beta   89.99849718
_cell_angle_gamma   120.01237072
_symmetry_Int_Tables_number   1
_chemical_formula_structural   Na3Mg2Ta10Si3(P5O24)3
_chemical_formula_sum   'Na3 Mg2 Ta10 Si3 P15 O72'
_cell_volume   1508.01976453
_cell_formula_units_Z   1
loop_
 _symmetry_equiv_pos_site_id
 _symmetry_equiv_pos_as_xyz
  1  'x, y, z'
loop_
 _atom_site_type_symbol
 _atom_site_label
 _atom_site_symmetry_multiplicity
 _atom_site_fract_x
 _atom_site_fract_y
 _atom_site_fract_z
 _atom_site_occupancy
  Na  Na0  1  0.00041048  0.00051718  0.00145631  1
  Na  Na1  1  0.66720998  0.33411055  0.83785113  1
  Na  Na2  1  0.66737236  0.33384578  0.33857357  1
  Mg  Mg3  1  0.66670923  0.33336110  0.98033464  1
  Mg  Mg4  1  0.66675107  0.33337919  0.47899815  1
  Ta  Ta5  1  0.99434936  0.99812500  0.35840578  1
  Ta  Ta6  1  0.99840724  0.99567588  0.85549325  1
  Ta  Ta7  1  0.00159194  0.99670279  0.64174838  1
  Ta  Ta8  1  0.99773383  0.00134678  0.14729723  1
  Ta  Ta9  1  0.66932078  0.33582386  0.68489895  1
  Ta  Ta10  1  0.66864294  0.33549221  0.18810375  1
  Ta  Ta11  1  0.33351138  0.66602911  0.02497769  1
  Ta  Ta12  1  0.33242449  0.66672327  0.52144087  1
  Ta  Ta13  1  0.33295240  0.66437343  0.31033438  1
  Ta  Ta14  1  0.33137355  0.66627940  0.81069662  1
  Si  Si15  1  0.71274238  0.71280677  0.25106187  1
  Si  Si16  1  0.99951114  0.28680106  0.25096580  1
  Si  Si17  1  0.99770021  0.71036549  0.74920415  1
  P  P18  1  0.28557666  0.00004047  0.25087162  1
  P  P19  1  0.28677958  0.28538126  0.74957157  1
  P  P20  1  0.71422208  0.00092348  0.74956000  1
  P  P21  1  0.95312713  0.33337242  0.58049162  1
  P  P22  1  0.38310855  0.04806868  0.58074604  1
  P  P23  1  0.66496723  0.61850127  0.58038984  1
  P  P24  1  0.95053462  0.62035900  0.08103495  1
  P  P25  1  0.66917748  0.05014069  0.08123505  1
  P  P26  1  0.38041302  0.32962427  0.08113734  1
  P  P27  1  0.61855259  0.66074207  0.91712124  1
  P  P28  1  0.04189954  0.38012087  0.91724373  1
  P  P29  1  0.33953097  0.95817753  0.91717566  1
  P  P30  1  0.61864560  0.95873597  0.41675064  1
  P  P31  1  0.33849536  0.37926923  0.41686383  1
  P  P32  1  0.04136894  0.66188920  0.41655799  1
  O  O33  1  0.20324320  0.03414034  0.30524332  1
  O  O34  1  0.83900594  0.80276407  0.30772408  1
  O  O35  1  0.96747688  0.16195769  0.30768692  1
  O  O36  1  0.19985342  0.17013856  0.80510790  1
  O  O37  1  0.96804631  0.80474289  0.80717182  1
  O  O38  1  0.83046931  0.03256984  0.80511864  1
  O  O39  1  0.79973627  0.97152172  0.69525091  1
  O  O40  1  0.17083084  0.20223773  0.69519681  1
  O  O41  1  0.02938864  0.83657393  0.69305744  1
  O  O42  1  0.80447355  0.83282383  0.19259603  1
  O  O43  1  0.03209998  0.19797692  0.19254618  1
  O  O44  1  0.17276165  0.97041580  0.19488670  1
  O  O45  1  0.86772404  0.36309637  0.63849347  1
  O  O46  1  0.49397647  0.13115836  0.63882385  1
  O  O47  1  0.63668731  0.50499881  0.63850663  1
  O  O48  1  0.86954747  0.50624388  0.13805500  1
  O  O49  1  0.63651626  0.12901888  0.13813550  1
  O  O50  1  0.49236346  0.36253830  0.13812320  1
  O  O51  1  0.45672129  0.29883631  0.02714857  1
  O  O52  1  0.84206872  0.54398826  0.02736485  1
  O  O53  1  0.70212563  0.15789534  0.02722707  1
  O  O54  1  0.45856992  0.16070269  0.52835725  1
  O  O55  1  0.70306543  0.54246446  0.52849487  1
  O  O56  1  0.83957997  0.29756495  0.52851529  1
  O  O57  1  0.53328249  0.69862107  0.97144845  1
  O  O58  1  0.16544061  0.46701304  0.97139021  1
  O  O59  1  0.30065444  0.83461200  0.97140678  1
  O  O60  1  0.53138134  0.83487691  0.47165182  1
  O  O61  1  0.30342645  0.46850736  0.47150748  1
  O  O62  1  0.16504941  0.69590945  0.47152370  1
  O  O63  1  0.13807683  0.64290070  0.36214916  1
  O  O64  1  0.50445034  0.86315485  0.36219921  1
  O  O65  1  0.35829204  0.49673345  0.36226037  1
  O  O66  1  0.13949185  0.49457890  0.86162178  1
  O  O67  1  0.35632138  0.86134439  0.86169563  1
  O  O68  1  0.50696624  0.64467733  0.86156965  1
  O  O69  1  0.03499564  0.83451010  0.40767255  1
  O  O70  1  0.79985147  0.96685280  0.40842065  1
  O  O71  1  0.16820146  0.19909563  0.40725723  1
  O  O72  1  0.03153323  0.19693728  0.90805757  1
  O  O73  1  0.16617413  0.97031521  0.90826581  1
  O  O74  1  0.80312458  0.83640873  0.90872394  1
  O  O75  1  0.97910971  0.17484057  0.59644025  1
  O  O76  1  0.19640769  0.02334861  0.59496689  1
  O  O77  1  0.82435885  0.80529866  0.59545282  1
  O  O78  1  0.98295281  0.80964480  0.09233040  1
  O  O79  1  0.82898879  0.01950168  0.09170438  1
  O  O80  1  0.19151575  0.17044650  0.09180137  1
  O  O81  1  0.69022383  0.16322240  0.74195255  1
  O  O82  1  0.47142022  0.30556934  0.74194436  1
  O  O83  1  0.82478835  0.51512869  0.74158259  1
  O  O84  1  0.68844447  0.51740469  0.24051879  1
  O  O85  1  0.82535124  0.30576398  0.24048730  1
  O  O86  1  0.47051805  0.16348499  0.24063671  1
  O  O87  1  0.64283876  0.50466712  0.92176050  1
  O  O88  1  0.86268746  0.35913597  0.92151391  1
  O  O89  1  0.49641905  0.13804343  0.92144890  1
  O  O90  1  0.64138457  0.13838243  0.42260537  1
  O  O91  1  0.49792330  0.36048938  0.42244079  1
  O  O92  1  0.86262187  0.50336294  0.42262137  1
  O  O93  1  0.35687082  0.49597055  0.07367772  1
  O  O94  1  0.13946776  0.64231297  0.07380891  1
  O  O95  1  0.50379203  0.86021001  0.07368709  1
  O  O96  1  0.35588669  0.85918657  0.57474700  1
  O  O97  1  0.50218908  0.64340696  0.57482545  1
  O  O98  1  0.14060725  0.49727652  0.57479057  1
  O  O99  1  0.30773831  0.83916924  0.25980485  1
  O  O100  1  0.52170641  0.69325246  0.26055086  1
  O  O101  1  0.16776191  0.48022172  0.26049384  1
  O  O102  1  0.30961686  0.46931762  0.76051101  1
  O  O103  1  0.16965946  0.69041059  0.76079579  1
  O  O104  1  0.53192270  0.83767023  0.76051570  1
