# generated using pymatgen
data_Na3Si2SnGePO12
_symmetry_space_group_name_H-M   'P 1'
_cell_length_a   15.31516819
_cell_length_b   8.87089689
_cell_length_c   8.98374743
_cell_angle_alpha   89.78360620
_cell_angle_beta   125.41072025
_cell_angle_gamma   90.29719920
_symmetry_Int_Tables_number   1
_chemical_formula_structural   Na3Si2SnGePO12
_chemical_formula_sum   'Na12 Si8 Sn4 Ge4 P4 O48'
_cell_volume   994.73807702
_cell_formula_units_Z   4
loop_
 _symmetry_equiv_pos_site_id
 _symmetry_equiv_pos_as_xyz
  1  'x, y, z'
loop_
 _atom_site_type_symbol
 _atom_site_label
 _atom_site_symmetry_multiplicity
 _atom_site_fract_x
 _atom_site_fract_y
 _atom_site_fract_z
 _atom_site_occupancy
  Na  Na0  1  0.24896859  0.77034845  0.00116098  1
  Na  Na1  1  0.74244167  0.72957657  0.49142767  1
  Na  Na2  1  0.74087737  0.27227338  0.99128456  1
  Na  Na3  1  0.24920959  0.23333339  0.50123416  1
  Na  Na4  1  0.50196941  0.11786755  0.75041478  1
  Na  Na5  1  0.49972736  0.87734026  0.24986678  1
  Na  Na6  1  0.00022898  0.60856359  0.74668998  1
  Na  Na7  1  0.00191924  0.39990738  0.25316045  1
  Na  Na8  1  0.80709610  0.93313257  0.21435116  1
  Na  Na9  1  0.80870995  0.06500137  0.71832071  1
  Na  Na10  1  0.31775694  0.43610734  0.23714721  1
  Na  Na11  1  0.31166581  0.56959969  0.71652784  1
  Si  Si12  1  0.35478840  0.88904427  0.74854623  1
  Si  Si13  1  0.64132798  0.89487863  0.74374017  1
  Si  Si14  1  0.64387859  0.10113070  0.24464802  1
  Si  Si15  1  0.35930681  0.10174625  0.26144638  1
  Si  Si16  1  0.84835050  0.39135480  0.75098911  1
  Si  Si17  1  0.14748469  0.40039196  0.74272097  1
  Si  Si18  1  0.15124449  0.61305989  0.25341572  1
  Si  Si19  1  0.85188519  0.61012125  0.25307005  1
  Sn  Sn20  1  0.89624508  0.74588633  0.93422307  1
  Sn  Sn21  1  0.89494339  0.25365288  0.43376474  1
  Sn  Sn22  1  0.10502295  0.25019707  0.06377962  1
  Sn  Sn23  1  0.39585347  0.24479740  0.93682371  1
  Ge  Ge24  1  0.10503208  0.74680416  0.56147632  1
  Ge  Ge25  1  0.60450626  0.24524423  0.55759113  1
  Ge  Ge26  1  0.39671734  0.75868056  0.44178661  1
  Ge  Ge27  1  0.60350268  0.75377007  0.05801822  1
  P  P28  1  0.00541478  0.95548141  0.74521348  1
  P  P29  1  0.00614987  0.03509109  0.25530888  1
  P  P30  1  0.50683098  0.47087422  0.74819215  1
  P  P31  1  0.50491062  0.53742358  0.25445454  1
  O  O32  1  0.14882543  0.58683423  0.73264874  1
  O  O33  1  0.84595190  0.57506149  0.75051626  1
  O  O34  1  0.84642836  0.42575154  0.25201431  1
  O  O35  1  0.15520200  0.42632134  0.25123629  1
  O  O36  1  0.64419914  0.08228443  0.73229150  1
  O  O37  1  0.35167239  0.07337010  0.75077082  1
  O  O38  1  0.35634111  0.91702282  0.27317940  1
  O  O39  1  0.64398720  0.91409087  0.23379367  1
  O  O40  1  0.43326370  0.56477773  0.57123251  1
  O  O41  1  0.57241015  0.56937514  0.92216570  1
  O  O42  1  0.57068975  0.43183018  0.42079995  1
  O  O43  1  0.42666133  0.44803197  0.07527190  1
  O  O44  1  0.93391855  0.04886481  0.57007878  1
  O  O45  1  0.06996493  0.05159888  0.91892841  1
  O  O46  1  0.06539650  0.93112679  0.42287692  1
  O  O47  1  0.93570448  0.94999822  0.07142077  1
  O  O48  1  0.25053303  0.81175687  0.72745949  1
  O  O49  1  0.74695623  0.83838632  0.75526508  1
  O  O50  1  0.74972285  0.15777635  0.25753593  1
  O  O51  1  0.26069605  0.18565491  0.24846052  1
  O  O52  1  0.74555643  0.30755823  0.72746617  1
  O  O53  1  0.25123197  0.33931286  0.75288882  1
  O  O54  1  0.26022745  0.67258817  0.27533068  1
  O  O55  1  0.74898436  0.69202262  0.23140782  1
  O  O56  1  0.36228572  0.85082600  0.57950505  1
  O  O57  1  0.64079136  0.86844097  0.92540825  1
  O  O58  1  0.64007350  0.13260272  0.42136383  1
  O  O59  1  0.35895786  0.12631782  0.08189088  1
  O  O60  1  0.85756904  0.35225139  0.58543696  1
  O  O61  1  0.14784890  0.37313139  0.92334641  1
  O  O62  1  0.13952199  0.64253724  0.42181371  1
  O  O63  1  0.85654324  0.64334191  0.08081505  1
  O  O64  1  0.45901382  0.81123436  0.93782417  1
  O  O65  1  0.53772972  0.81969140  0.55939600  1
  O  O66  1  0.54598154  0.17517966  0.05468669  1
  O  O67  1  0.46351469  0.18623294  0.44212131  1
  O  O68  1  0.95060717  0.31869462  0.94395219  1
  O  O69  1  0.04505855  0.32971142  0.55506729  1
  O  O70  1  0.04975004  0.67586213  0.05697693  1
  O  O71  1  0.95934873  0.68258235  0.44130261  1
  O  O72  1  0.08487275  0.85403230  0.73953158  1
  O  O73  1  0.92181140  0.85456849  0.74739918  1
  O  O74  1  0.92291699  0.13623357  0.25537900  1
  O  O75  1  0.08844452  0.13783981  0.25850155  1
  O  O76  1  0.58359680  0.36676260  0.73832539  1
  O  O77  1  0.42547682  0.36849583  0.75546918  1
  O  O78  1  0.42735599  0.64069948  0.26808731  1
  O  O79  1  0.58243642  0.63865046  0.24056363  1
