# generated using pymatgen
data_Na2Ta3GaSi4(SO12)2
_symmetry_space_group_name_H-M   'P 1'
_cell_length_a   8.78194067
_cell_length_b   8.81632756
_cell_length_c   22.78210037
_cell_angle_alpha   89.33573060
_cell_angle_beta   90.90705637
_cell_angle_gamma   119.77657673
_symmetry_Int_Tables_number   1
_chemical_formula_structural   Na2Ta3GaSi4(SO12)2
_chemical_formula_sum   'Na6 Ta9 Ga3 Si12 S6 O72'
_cell_volume   1530.79673338
_cell_formula_units_Z   3
loop_
 _symmetry_equiv_pos_site_id
 _symmetry_equiv_pos_as_xyz
  1  'x, y, z'
loop_
 _atom_site_type_symbol
 _atom_site_label
 _atom_site_symmetry_multiplicity
 _atom_site_fract_x
 _atom_site_fract_y
 _atom_site_fract_z
 _atom_site_occupancy
  Na  Na0  1  0.98615617  0.98269599  0.49890093  1
  Na  Na1  1  0.00299284  0.99375159  0.99820608  1
  Na  Na2  1  0.65827525  0.32324919  0.83065127  1
  Na  Na3  1  0.67055831  0.32198058  0.32369244  1
  Na  Na4  1  0.32122614  0.65486205  0.16289986  1
  Na  Na5  1  0.34674835  0.66397918  0.66538617  1
  Ta  Ta6  1  -0.00009622  0.00220036  0.35293198  1
  Ta  Ta7  1  0.00383517  0.01635511  0.85712842  1
  Ta  Ta8  1  0.98543053  0.99588880  0.64707021  1
  Ta  Ta9  1  0.02010420  0.01108562  0.14209036  1
  Ta  Ta10  1  0.66234775  0.34246588  0.97597117  1
  Ta  Ta11  1  0.67864518  0.34346183  0.47742638  1
  Ta  Ta12  1  0.32294371  0.65792279  0.02106112  1
  Ta  Ta13  1  0.32076362  0.67542896  0.31004163  1
  Ta  Ta14  1  0.34110334  0.66653308  0.81192914  1
  Ga  Ga15  1  0.64025225  0.33062049  0.69051546  1
  Ga  Ga16  1  0.67303974  0.33373578  0.18630358  1
  Ga  Ga17  1  0.35991657  0.68992533  0.51825960  1
  Si  Si18  1  0.30055577  0.01752499  0.24940427  1
  Si  Si19  1  0.99400094  0.28922831  0.24766541  1
  Si  Si20  1  0.28939067  0.29045854  0.74894897  1
  Si  Si21  1  0.70588289  0.01186297  0.74879072  1
  Si  Si22  1  0.65513586  0.61522951  0.58512197  1
  Si  Si23  1  0.94763248  0.61482018  0.08705003  1
  Si  Si24  1  0.39483213  0.34277735  0.08638031  1
  Si  Si25  1  0.62294320  0.67404274  0.91843405  1
  Si  Si26  1  0.04392177  0.38466280  0.91517354  1
  Si  Si27  1  0.33525471  0.95164272  0.91577563  1
  Si  Si28  1  0.62119124  0.95341717  0.41765018  1
  Si  Si29  1  0.05872484  0.67418271  0.42140557  1
  S  S30  1  0.71075958  0.71253549  0.25030528  1
  S  S31  1  0.99725057  0.71097489  0.74987662  1
  S  S32  1  0.95865334  0.33774044  0.58465840  1
  S  S33  1  0.37773526  0.04388714  0.58377169  1
  S  S34  1  0.66447452  0.04370664  0.08446558  1
  S  S35  1  0.33194133  0.37867468  0.41790296  1
  O  O36  1  0.19239679  0.02337295  0.30680953  1
  O  O37  1  0.82064301  0.80142571  0.30455004  1
  O  O38  1  0.97465220  0.16818555  0.30646984  1
  O  O39  1  0.19097490  0.16653630  0.80582285  1
  O  O40  1  0.97527731  0.79489729  0.80214637  1
  O  O41  1  0.82968805  0.02692922  0.80537684  1
  O  O42  1  0.80004156  0.97037919  0.69169137  1
  O  O43  1  0.16542721  0.18670068  0.69072627  1
  O  O44  1  0.02248733  0.82310585  0.69558663  1
  O  O45  1  0.78752846  0.82024566  0.19793322  1
  O  O46  1  0.01980829  0.18704903  0.19228775  1
  O  O47  1  0.16807282  0.97012560  0.19236335  1
  O  O48  1  0.87371976  0.35508059  0.63608895  1
  O  O49  1  0.48474999  0.12105145  0.63687960  1
  O  O50  1  0.64160467  0.49875279  0.64142572  1
  O  O51  1  0.87161509  0.49813585  0.14464726  1
  O  O52  1  0.63596274  0.11631074  0.13757003  1
  O  O53  1  0.50285336  0.36433802  0.14523439  1
  O  O54  1  0.47126875  0.30261586  0.02690046  1
  O  O55  1  0.83214582  0.52275526  0.02704944  1
  O  O56  1  0.69446373  0.15054355  0.03086483  1
  O  O57  1  0.46213476  0.15221296  0.53036375  1
  O  O58  1  0.68562160  0.51914866  0.52667470  1
  O  O59  1  0.84369176  0.30412560  0.52966504  1
  O  O60  1  0.53252434  0.70061345  0.97558258  1
  O  O61  1  0.16522312  0.46757572  0.97413657  1
  O  O62  1  0.30460876  0.83256874  0.97426592  1
  O  O63  1  0.55212853  0.83818267  0.47582408  1
  O  O64  1  0.30142470  0.44984226  0.47052030  1
  O  O65  1  0.17105593  0.69138538  0.47911217  1
  O  O66  1  0.13647116  0.63510869  0.36102602  1
  O  O67  1  0.49900658  0.85638242  0.35945278  1
  O  O68  1  0.36332449  0.48416535  0.36424802  1
  O  O69  1  0.13386399  0.50228066  0.85714948  1
  O  O70  1  0.36263445  0.86010716  0.85788172  1
  O  O71  1  0.50136993  0.63594843  0.85876477  1
  O  O72  1  0.02693873  0.83936841  0.40957810  1
  O  O73  1  0.81989728  0.98542484  0.40681127  1
  O  O74  1  0.17749463  0.19868003  0.41021234  1
  O  O75  1  0.02937418  0.19209987  0.91047129  1
  O  O76  1  0.16042940  0.96986171  0.90693123  1
  O  O77  1  0.81659445  0.83879211  0.90795332  1
  O  O78  1  0.97061503  0.17047854  0.58760616  1
  O  O79  1  0.20102305  0.03105187  0.58781743  1
  O  O80  1  0.83837890  0.81162936  0.59021611  1
  O  O81  1  0.96114862  0.80984096  0.09208604  1
  O  O82  1  0.82323010  0.02217217  0.09038544  1
  O  O83  1  0.19025458  0.16833953  0.08946904  1
  O  O84  1  0.70330920  0.19005968  0.73722186  1
  O  O85  1  0.48158817  0.31145385  0.74729537  1
  O  O86  1  0.84495900  0.53884535  0.74298274  1
  O  O87  1  0.69847893  0.54161855  0.24922019  1
  O  O88  1  0.82607301  0.31395924  0.24448840  1
  O  O89  1  0.48924923  0.18437140  0.24432968  1
  O  O90  1  0.63775671  0.49644533  0.92256631  1
  O  O91  1  0.84970299  0.35478598  0.92472992  1
  O  O92  1  0.50731735  0.14289057  0.92469294  1
  O  O93  1  0.63599052  0.14667638  0.42685394  1
  O  O94  1  0.48983002  0.35366483  0.42456072  1
  O  O95  1  0.85795392  0.49858025  0.42667505  1
  O  O96  1  0.36485112  0.51089793  0.07811126  1
  O  O97  1  0.15000454  0.65166372  0.07705469  1
  O  O98  1  0.50952490  0.86629985  0.07760750  1
  O  O99  1  0.35348349  0.86612405  0.57853118  1
  O  O100  1  0.48181593  0.63629140  0.57690071  1
  O  O101  1  0.13159103  0.48684697  0.57595245  1
  O  O102  1  0.30937143  0.83287287  0.25611114  1
  O  O103  1  0.53474493  0.69548714  0.25849723  1
  O  O104  1  0.18000392  0.47570510  0.25876477  1
  O  O105  1  0.29595716  0.47903763  0.75402711  1
  O  O106  1  0.16141215  0.70229591  0.75274500  1
  O  O107  1  0.51466148  0.83368945  0.75420241  1
