# generated using pymatgen
data_Na3YHfSi(PO6)2
_symmetry_space_group_name_H-M   'P 1'
_cell_length_a   9.25592158
_cell_length_b   9.25592124
_cell_length_c   22.70721161
_cell_angle_alpha   90.01647898
_cell_angle_beta   89.98352102
_cell_angle_gamma   119.77968365
_symmetry_Int_Tables_number   1
_chemical_formula_structural   Na3YHfSi(PO6)2
_chemical_formula_sum   'Na18 Y6 Hf6 Si6 P12 O72'
_cell_volume   1688.47103314
_cell_formula_units_Z   6
loop_
 _symmetry_equiv_pos_site_id
 _symmetry_equiv_pos_as_xyz
  1  'x, y, z'
loop_
 _atom_site_type_symbol
 _atom_site_label
 _atom_site_symmetry_multiplicity
 _atom_site_fract_x
 _atom_site_fract_y
 _atom_site_fract_z
 _atom_site_occupancy
  Na  Na0  1  0.00308160  0.98834254  0.49863672  1
  Na  Na1  1  0.01165746  0.99691840  0.99863672  1
  Na  Na2  1  0.66566906  0.31702339  0.83258554  1
  Na  Na3  1  0.68297661  0.33433094  0.33258554  1
  Na  Na4  1  0.35134733  0.67759329  0.16525179  1
  Na  Na5  1  0.32240671  0.64865267  0.66525179  1
  Na  Na6  1  0.35902040  0.35677041  0.24603844  1
  Na  Na7  1  0.99660544  0.63782001  0.24482274  1
  Na  Na8  1  0.64322959  0.64097960  0.74603844  1
  Na  Na9  1  0.36217999  0.00339456  0.74482274  1
  Na  Na10  1  0.04183627  0.70030323  0.57650841  1
  Na  Na11  1  0.64846349  0.96965614  0.58584965  1
  Na  Na12  1  0.29969677  0.95816373  0.07650841  1
  Na  Na13  1  0.03034386  0.35153651  0.08584965  1
  Na  Na14  1  0.98178833  0.68166041  0.91988941  1
  Na  Na15  1  0.68947412  0.02003178  0.90838572  1
  Na  Na16  1  0.97996822  0.31052588  0.40838572  1
  Na  Na17  1  0.31833959  0.01821167  0.41988941  1
  Y  Y18  1  0.98397560  0.99000411  0.35076596  1
  Y  Y19  1  0.00999589  0.01602440  0.85076596  1
  Y  Y20  1  0.66997762  0.32761967  0.68469225  1
  Y  Y21  1  0.67238033  0.33002238  0.18469225  1
  Y  Y22  1  0.33726199  0.66333745  0.01719257  1
  Y  Y23  1  0.33666255  0.66273801  0.51719257  1
  Hf  Hf24  1  0.00519431  0.00946135  0.64831777  1
  Hf  Hf25  1  0.99053865  0.99480569  0.14831777  1
  Hf  Hf26  1  0.66297754  0.33869437  0.98176364  1
  Hf  Hf27  1  0.66130563  0.33702246  0.48176364  1
  Hf  Hf28  1  0.33226207  0.66680582  0.31516295  1
  Hf  Hf29  1  0.33319418  0.66773793  0.81516295  1
  Si  Si30  1  0.00921484  0.30700683  0.25236721  1
  Si  Si31  1  0.69299317  0.99078516  0.75236721  1
  Si  Si32  1  0.36146170  0.03545849  0.58386579  1
  Si  Si33  1  0.96454151  0.63853830  0.08386579  1
  Si  Si34  1  0.34103981  0.97106217  0.91907090  1
  Si  Si35  1  0.02893783  0.65896019  0.41907090  1
  P  P36  1  0.28894622  0.99120589  0.25116434  1
  P  P37  1  0.69373066  0.70412685  0.24816398  1
  P  P38  1  0.29587315  0.30626934  0.74816398  1
  P  P39  1  0.00879411  0.71105378  0.75116434  1
  P  P40  1  0.95787692  0.32275182  0.58007998  1
  P  P41  1  0.67954268  0.63766572  0.58732521  1
  P  P42  1  0.67724818  0.04212308  0.08007998  1
  P  P43  1  0.36233428  0.32045732  0.08732521  1
  P  P44  1  0.62865885  0.65685741  0.91284675  1
  P  P45  1  0.02780369  0.37427594  0.91952047  1
  P  P46  1  0.62572406  0.97219631  0.41952047  1
  P  P47  1  0.34314259  0.37134115  0.41284675  1
  O  O48  1  0.20796194  0.00833788  0.30742313  1
  O  O49  1  0.80414816  0.77464031  0.30246026  1
  O  O50  1  0.99929958  0.21208386  0.31295012  1
  O  O51  1  0.22535969  0.19585184  0.80246026  1
  O  O52  1  0.99166212  0.79203806  0.80742313  1
  O  O53  1  0.78791614  0.00070042  0.81295012  1
  O  O54  1  0.80006061  0.97647801  0.69488906  1
  O  O55  1  0.18486473  0.20792504  0.69404411  1
  O  O56  1  0.03389172  0.83008326  0.69733665  1
  O  O57  1  0.79207496  0.81513527  0.19404411  1
  O  O58  1  0.02352199  0.19993939  0.19488906  1
  O  O59  1  0.16991674  0.96610828  0.19733665  1
  O  O60  1  0.87955303  0.35536246  0.63380259  1
  O  O61  1  0.46979049  0.11785649  0.64266227  1
  O  O62  1  0.66277578  0.54907637  0.64545037  1
  O  O63  1  0.88214351  0.53020951  0.14266227  1
  O  O64  1  0.64463754  0.12044697  0.13380259  1
  O  O65  1  0.45092363  0.33722422  0.14545037  1
  O  O66  1  0.46713959  0.30645773  0.03511115  1
  O  O67  1  0.84855712  0.53480986  0.02559916  1
  O  O68  1  0.69763481  0.15394919  0.02493735  1
  O  O69  1  0.46519014  0.15144288  0.52559916  1
  O  O70  1  0.69354227  0.53286041  0.53511115  1
  O  O71  1  0.84605081  0.30236519  0.52493735  1
  O  O72  1  0.54468363  0.68242056  0.96613348  1
  O  O73  1  0.11708613  0.44321150  0.97840278  1
  O  O74  1  0.32092512  0.86525688  0.97834602  1
  O  O75  1  0.55678850  0.88291387  0.47840278  1
  O  O76  1  0.31757944  0.45531637  0.46613348  1
  O  O77  1  0.13474312  0.67907488  0.47834602  1
  O  O78  1  0.13669848  0.63928119  0.36235832  1
  O  O79  1  0.51050086  0.86436512  0.36790239  1
  O  O80  1  0.36179014  0.47824024  0.35653069  1
  O  O81  1  0.13563488  0.48949914  0.86790239  1
  O  O82  1  0.36071881  0.86330152  0.86235832  1
  O  O83  1  0.52175976  0.63820986  0.85653069  1
  O  O84  1  0.01607346  0.82719063  0.41498596  1
  O  O85  1  0.80774099  0.01379516  0.41403427  1
  O  O86  1  0.19297293  0.19298998  0.40965651  1
  O  O87  1  0.98620484  0.19225901  0.91403427  1
  O  O88  1  0.17280937  0.98392654  0.91498596  1
  O  O89  1  0.80701002  0.80702707  0.90965651  1
  O  O90  1  0.95471052  0.15242955  0.58628724  1
  O  O91  1  0.17374145  0.01545950  0.58696526  1
  O  O92  1  0.84717717  0.80891691  0.58698601  1
  O  O93  1  0.98454050  0.82625855  0.08696526  1
  O  O94  1  0.84757045  0.04528948  0.08628724  1
  O  O95  1  0.19108309  0.15282283  0.08698601  1
  O  O96  1  0.65294190  0.14352689  0.75049543  1
  O  O97  1  0.47638989  0.34251113  0.74217480  1
  O  O98  1  0.85274628  0.54064537  0.74503538  1
  O  O99  1  0.65748887  0.52361011  0.24217480  1
  O  O100  1  0.85647311  0.34705810  0.25049543  1
  O  O101  1  0.45935463  0.14725372  0.24503538  1
  O  O102  1  0.64167668  0.49557519  0.91899542  1
  O  O103  1  0.85906734  0.37681494  0.91869911  1
  O  O104  1  0.51740691  0.15121318  0.92119452  1
  O  O105  1  0.62318506  0.14093266  0.41869911  1
  O  O106  1  0.50442481  0.35832332  0.41899542  1
  O  O107  1  0.84878682  0.48259309  0.42119452  1
  O  O108  1  0.32697081  0.46496946  0.08034255  1
  O  O109  1  0.15283484  0.66153696  0.08201628  1
  O  O110  1  0.53193038  0.86407445  0.07567546  1
  O  O111  1  0.33846304  0.84716516  0.58201628  1
  O  O112  1  0.53503054  0.67302919  0.58034255  1
  O  O113  1  0.13592555  0.46806962  0.57567546  1
  O  O114  1  0.30182016  0.82900373  0.25409358  1
  O  O115  1  0.52605998  0.70296927  0.25343183  1
  O  O116  1  0.18810938  0.49065015  0.25232231  1
  O  O117  1  0.29703073  0.47394002  0.75343183  1
  O  O118  1  0.17099627  0.69817984  0.75409358  1
  O  O119  1  0.50934985  0.81189062  0.75232231  1
