# generated using pymatgen
data_Na4SeO5
_symmetry_space_group_name_H-M   'P 1'
_cell_length_a   5.54498854
_cell_length_b   9.79343255
_cell_length_c   9.79777731
_cell_angle_alpha   113.32625947
_cell_angle_beta   96.31703365
_cell_angle_gamma   95.92031709
_symmetry_Int_Tables_number   1
_chemical_formula_structural   Na4SeO5
_chemical_formula_sum   'Na16 Se4 O20'
_cell_volume   479.29331930
_cell_formula_units_Z   4
loop_
 _symmetry_equiv_pos_site_id
 _symmetry_equiv_pos_as_xyz
  1  'x, y, z'
loop_
 _atom_site_type_symbol
 _atom_site_label
 _atom_site_symmetry_multiplicity
 _atom_site_fract_x
 _atom_site_fract_y
 _atom_site_fract_z
 _atom_site_occupancy
  Na  Na0  1  0.24725972  0.94198200  0.54226359  1
  Na  Na1  1  0.76320265  0.45115355  0.06431991  1
  Na  Na2  1  0.23679735  0.54884645  0.93568009  1
  Na  Na3  1  0.75274028  0.05801800  0.45773641  1
  Na  Na4  1  0.00000000  0.00000000  0.00000000  1
  Na  Na5  1  0.50000000  0.50000000  0.50000000  1
  Na  Na6  1  0.49688619  0.90027034  0.09517590  1
  Na  Na7  1  0.50311381  0.09972966  0.90482410  1
  Na  Na8  1  0.99792320  0.60120295  0.39930521  1
  Na  Na9  1  0.00207680  0.39879705  0.60069479  1
  Na  Na10  1  0.72087416  0.83686612  0.63814891  1
  Na  Na11  1  0.27912584  0.16313388  0.36185109  1
  Na  Na12  1  0.00635566  0.80902177  0.19941440  1
  Na  Na13  1  0.99364434  0.19097823  0.80058560  1
  Na  Na14  1  0.73149468  0.64249864  0.84687590  1
  Na  Na15  1  0.26850532  0.35750136  0.15312410  1
  Se  Se16  1  0.48412065  0.29523854  0.73323873  1
  Se  Se17  1  0.51587935  0.70476146  0.26676127  1
  Se  Se18  1  0.21420754  0.77985169  0.75505464  1
  Se  Se19  1  0.78579246  0.22014831  0.24494536  1
  O  O20  1  0.20636304  0.60863419  0.19093707  1
  O  O21  1  0.05402092  0.35108707  0.34248000  1
  O  O22  1  0.94597908  0.64891293  0.65752000  1
  O  O23  1  0.79363696  0.39136581  0.80906293  1
  O  O24  1  0.88173061  0.05240546  0.22803578  1
  O  O25  1  0.11826939  0.94759454  0.77196422  1
  O  O26  1  0.86398504  0.22606058  0.07297941  1
  O  O27  1  0.13601496  0.77393942  0.92702059  1
  O  O28  1  0.58834635  0.54473691  0.29144177  1
  O  O29  1  0.41165365  0.45526309  0.70855823  1
  O  O30  1  0.79149052  0.80936909  0.39706161  1
  O  O31  1  0.20850948  0.19063091  0.60293839  1
  O  O32  1  0.61776271  0.68158344  0.10069523  1
  O  O33  1  0.38223729  0.31841656  0.89930477  1
  O  O34  1  0.32608218  0.72855760  0.58292128  1
  O  O35  1  0.67391782  0.27144240  0.41707872  1
  O  O36  1  0.40026281  0.87825228  0.31660032  1
  O  O37  1  0.59973719  0.12174772  0.68339968  1
  O  O38  1  0.47546144  0.15596788  0.15197444  1
  O  O39  1  0.52453856  0.84403212  0.84802556  1
