# generated using pymatgen
data_Na3InCl6
_symmetry_space_group_name_H-M   'P 1'
_cell_length_a   6.89244543
_cell_length_b   6.89244431
_cell_length_c   12.39463374
_cell_angle_alpha   90.00000000
_cell_angle_beta   90.00000000
_cell_angle_gamma   120.00000055
_symmetry_Int_Tables_number   1
_chemical_formula_structural   Na3InCl6
_chemical_formula_sum   'Na6 In2 Cl12'
_cell_volume   509.93042985
_cell_formula_units_Z   2
loop_
 _symmetry_equiv_pos_site_id
 _symmetry_equiv_pos_as_xyz
  1  'x, y, z'
loop_
 _atom_site_type_symbol
 _atom_site_label
 _atom_site_symmetry_multiplicity
 _atom_site_fract_x
 _atom_site_fract_y
 _atom_site_fract_z
 _atom_site_occupancy
  Na  Na0  1  0.33333300  0.66666700  0.03944003  1
  Na  Na1  1  0.33333300  0.66666700  0.46055997  1
  Na  Na2  1  0.00000000  -0.00000000  0.75000000  1
  Na  Na3  1  0.00000000  -0.00000000  0.25000000  1
  Na  Na4  1  0.66666700  0.33333300  0.96055997  1
  Na  Na5  1  0.66666700  0.33333300  0.53944003  1
  In  In6  1  0.33333300  0.66666700  0.75000000  1
  In  In7  1  0.66666700  0.33333300  0.25000000  1
  Cl  Cl8  1  0.36302565  0.04611830  0.12830985  1
  Cl  Cl9  1  0.95388170  0.31690835  0.12830985  1
  Cl  Cl10  1  0.68309165  0.63697435  0.12830985  1
  Cl  Cl11  1  0.63697435  0.68309165  0.62830985  1
  Cl  Cl12  1  0.31690835  0.95388170  0.62830985  1
  Cl  Cl13  1  0.63697435  0.95388170  0.87169015  1
  Cl  Cl14  1  0.31690835  0.36302565  0.87169015  1
  Cl  Cl15  1  0.04611830  0.68309165  0.87169015  1
  Cl  Cl16  1  0.36302565  0.31690835  0.37169015  1
  Cl  Cl17  1  0.95388170  0.63697435  0.37169015  1
  Cl  Cl18  1  0.04611830  0.36302565  0.62830985  1
  Cl  Cl19  1  0.68309165  0.04611830  0.37169015  1
