# generated using pymatgen
data_Na10Zn3Ge5(PO4)12
_symmetry_space_group_name_H-M   'P 1'
_cell_length_a   17.35066821
_cell_length_b   8.68550582
_cell_length_c   21.80261154
_cell_angle_alpha   89.95802144
_cell_angle_beta   89.94984088
_cell_angle_gamma   120.06277261
_symmetry_Int_Tables_number   1
_chemical_formula_structural   Na10Zn3Ge5(PO4)12
_chemical_formula_sum   'Na30 Zn9 Ge15 P36 O144'
_cell_volume   2843.64153803
_cell_formula_units_Z   3
loop_
 _symmetry_equiv_pos_site_id
 _symmetry_equiv_pos_as_xyz
  1  'x, y, z'
loop_
 _atom_site_type_symbol
 _atom_site_label
 _atom_site_symmetry_multiplicity
 _atom_site_fract_x
 _atom_site_fract_y
 _atom_site_fract_z
 _atom_site_occupancy
  Na  Na0  1  0.31885542  0.00866363  0.24989382  1
  Na  Na1  1  0.68631035  0.36148312  0.24962453  1
  Na  Na2  1  0.31642451  0.62448493  0.74973059  1
  Na  Na3  1  0.81641381  0.62446568  0.74966413  1
  Na  Na4  1  0.15281431  0.34239138  0.58082853  1
  Na  Na5  1  0.65284668  0.34286697  0.58057123  1
  Na  Na6  1  0.01810172  0.69412152  0.58112952  1
  Na  Na7  1  0.51818201  0.69351847  0.58142411  1
  Na  Na8  1  0.32822929  0.96285416  0.58106937  1
  Na  Na9  1  0.82889530  0.96439744  0.58105481  1
  Na  Na10  1  0.15266995  0.96311602  0.08082895  1
  Na  Na11  1  0.65330758  0.96396597  0.08128651  1
  Na  Na12  1  0.32861724  0.69361848  0.08136915  1
  Na  Na13  1  0.82893558  0.69456663  0.08091002  1
  Na  Na14  1  0.01791963  0.34265666  0.08124193  1
  Na  Na15  1  0.51821845  0.34264098  0.08136084  1
  Na  Na16  1  0.66303769  0.02785461  0.41337951  1
  Na  Na17  1  0.35053539  0.67414455  0.41295823  1
  Na  Na18  1  0.00015669  0.99896454  0.49467037  1
  Na  Na19  1  0.49958156  0.01073550  0.49333284  1
  Na  Na20  1  0.00011884  0.00010882  0.99549071  1
  Na  Na21  1  0.50016943  0.99995662  0.99563780  1
  Na  Na22  1  0.33377954  0.32424085  0.83188404  1
  Na  Na23  1  0.83373274  0.32427727  0.83187613  1
  Na  Na24  1  0.33402398  0.33581952  0.32855653  1
  Na  Na25  1  0.84173241  0.33949600  0.32888424  1
  Na  Na26  1  0.16246083  0.65629905  0.16694375  1
  Na  Na27  1  0.66620985  0.67541985  0.16640962  1
  Na  Na28  1  0.16256578  0.66778779  0.66763695  1
  Na  Na29  1  0.66257661  0.66736710  0.66773498  1
  Zn  Zn30  1  0.49964726  0.00536966  0.35082134  1
  Zn  Zn31  1  0.33358975  0.32678177  0.68920238  1
  Zn  Zn32  1  0.83388672  0.32725078  0.68909640  1
  Zn  Zn33  1  0.33240777  0.33888292  0.18619002  1
  Zn  Zn34  1  0.83797744  0.33227621  0.18807299  1
  Zn  Zn35  1  0.16612890  0.66661855  0.01068361  1
  Zn  Zn36  1  0.66627708  0.66681982  0.01060829  1
  Zn  Zn37  1  0.16217888  0.66163756  0.51116562  1
  Zn  Zn38  1  0.66986483  0.66977833  0.51263144  1
  Ge  Ge39  1  0.00019949  0.99916964  0.35194003  1
  Ge  Ge40  1  0.00046536  0.00137002  0.85391162  1
  Ge  Ge41  1  0.50050038  0.00149107  0.85388111  1
  Ge  Ge42  1  0.00109934  0.00157339  0.65129615  1
  Ge  Ge43  1  0.50105184  0.00165953  0.65116943  1
  Ge  Ge44  1  0.00015100  0.00172470  0.15096200  1
  Ge  Ge45  1  0.50036562  0.99789875  0.15177042  1
  Ge  Ge46  1  0.33320483  0.33407084  0.97821096  1
  Ge  Ge47  1  0.83370254  0.33344535  0.97834117  1
  Ge  Ge48  1  0.33191622  0.32309118  0.47921538  1
  Ge  Ge49  1  0.83739816  0.34193179  0.47817151  1
  Ge  Ge50  1  0.16327504  0.66055350  0.31453508  1
  Ge  Ge51  1  0.66637588  0.66993238  0.31514866  1
  Ge  Ge52  1  0.16418438  0.66762096  0.81744888  1
  Ge  Ge53  1  0.66415693  0.66751076  0.81748181  1
  P  P54  1  0.14089385  0.99285279  0.25237107  1
  P  P55  1  0.64592465  0.99300021  0.25205654  1
  P  P56  1  0.35145374  0.70471875  0.25285971  1
  P  P57  1  0.85581113  0.71754309  0.25246456  1
  P  P58  1  0.00268898  0.28862398  0.25280615  1
  P  P59  1  0.50186377  0.29778574  0.25094414  1
  P  P60  1  0.14126118  0.28954750  0.75275836  1
  P  P61  1  0.64132568  0.28957825  0.75278067  1
  P  P62  1  0.00489993  0.71793970  0.75260917  1
  P  P63  1  0.50486099  0.71794438  0.75259571  1
  P  P64  1  0.35538907  0.99780265  0.75312204  1
  P  P65  1  0.85539633  0.99788708  0.75310107  1
  P  P66  1  0.47731190  0.33040482  0.58513892  1
  P  P67  1  0.97714222  0.33073209  0.58449087  1
  P  P68  1  0.18740588  0.04496425  0.58493191  1
  P  P69  1  0.68772688  0.04578034  0.58420168  1
  P  P70  1  0.33482142  0.62507362  0.58501457  1
  P  P71  1  0.83541807  0.62584476  0.58585926  1
  P  P72  1  0.47756650  0.62432970  0.08367703  1
  P  P73  1  0.97724324  0.62459938  0.08413367  1
  P  P74  1  0.33476335  0.04451309  0.08480137  1
  P  P75  1  0.83471349  0.04512352  0.08380327  1
  P  P76  1  0.18734510  0.32988571  0.08352537  1
  P  P77  1  0.68785669  0.33026978  0.08499418  1
  P  P78  1  0.31512146  0.66714965  0.91588764  1
  P  P79  1  0.81514001  0.66682417  0.91589852  1
  P  P80  1  0.01840922  0.36993553  0.91631297  1
  P  P81  1  0.51838466  0.36992029  0.91642174  1
  P  P82  1  0.16656975  0.96304075  0.91623563  1
  P  P83  1  0.66653252  0.96314229  0.91620399  1
  P  P84  1  0.31086758  0.96162066  0.41755838  1
  P  P85  1  0.81685619  0.96293873  0.41633957  1
  P  P86  1  0.16443027  0.36734648  0.41641306  1
  P  P87  1  0.66944154  0.37779833  0.41788590  1
  P  P88  1  0.01939301  0.66900922  0.41581280  1
  P  P89  1  0.51889414  0.65795026  0.41819486  1
  O  O90  1  0.09578029  0.02277568  0.30777217  1
  O  O91  1  0.60589283  0.02614060  0.30878518  1
  O  O92  1  0.40484594  0.78800012  0.31024333  1
  O  O93  1  0.91577838  0.80852512  0.30779692  1
  O  O94  1  0.48460169  0.17930510  0.30556068  1
  O  O95  1  0.98907179  0.16774463  0.30816096  1
  O  O96  1  0.09513630  0.16719274  0.80730097  1
  O  O97  1  0.59514211  0.16725420  0.80731599  1
  O  O98  1  0.48683968  0.81009671  0.80643698  1
  O  O99  1  0.98687512  0.81013522  0.80646110  1
  O  O100  1  0.41591379  0.02218824  0.80774466  1
  O  O101  1  0.91591264  0.02234923  0.80772983  1
  O  O102  1  0.39425878  0.95371699  0.69252163  1
  O  O103  1  0.89431102  0.95390421  0.69249690  1
  O  O104  1  0.08495959  0.21136800  0.69146918  1
  O  O105  1  0.58501132  0.21141951  0.69150556  1
  O  O106  1  0.02152877  0.83096088  0.69105121  1
  O  O107  1  0.52151465  0.83105813  0.69097807  1
  O  O108  1  0.39325948  0.83243775  0.19297323  1
  O  O109  1  0.89517436  0.83108462  0.19172708  1
  O  O110  1  0.02083004  0.21100960  0.19159914  1
  O  O111  1  0.52345518  0.21597982  0.19061896  1
  O  O112  1  0.08431595  0.95947632  0.19172538  1
  O  O113  1  0.58618115  0.95836606  0.19148370  1
  O  O114  1  0.43859261  0.36942040  0.64046815  1
  O  O115  1  0.93909030  0.37025041  0.64013245  1
  O  O116  1  0.24502461  0.12318214  0.64044715  1
  O  O117  1  0.74571302  0.12550315  0.63943783  1
  O  O118  1  0.31799974  0.51431642  0.64238214  1
  O  O119  1  0.81767402  0.51577666  0.64347981  1
  O  O120  1  0.43943067  0.50863677  0.13942483  1
  O  O121  1  0.93888478  0.51065329  0.14032812  1
  O  O122  1  0.31669805  0.11725253  0.14293834  1
  O  O123  1  0.81529225  0.12127700  0.13960388  1
  O  O124  1  0.24395324  0.36637040  0.13972641  1
  O  O125  1  0.74255902  0.36636290  0.14296497  1
  O  O126  1  0.22780759  0.28627915  0.02543144  1
  O  O127  1  0.72980431  0.28820834  0.02742133  1
  O  O128  1  0.41521421  0.54464021  0.02539193  1
  O  O129  1  0.91523403  0.54418727  0.02582641  1
  O  O130  1  0.35552948  0.17071215  0.02742122  1
  O  O131  1  0.85672772  0.16910327  0.02536830  1
  O  O132  1  0.22725103  0.16902537  0.52630842  1
  O  O133  1  0.72671911  0.16445099  0.52407125  1
  O  O134  1  0.35452272  0.54328736  0.52581958  1
  O  O135  1  0.85633473  0.54281158  0.52811087  1
  O  O136  1  0.41515573  0.28466753  0.52656579  1
  O  O137  1  0.91534766  0.28705885  0.52584046  1
  O  O138  1  0.28015760  0.70371660  0.97454315  1
  O  O139  1  0.78012438  0.70340244  0.97450042  1
  O  O140  1  0.07052975  0.43666050  0.97559258  1
  O  O141  1  0.57061266  0.43669246  0.97565149  1
  O  O142  1  0.14798860  0.85907502  0.97562748  1
  O  O143  1  0.64792252  0.85919167  0.97555269  1
  O  O144  1  0.27262101  0.85047762  0.47571398  1
  O  O145  1  0.78371279  0.86268610  0.47643473  1
  O  O146  1  0.14724665  0.43422533  0.47633159  1
  O  O147  1  0.65588473  0.45266671  0.47695230  1
  O  O148  1  0.06902196  0.70523033  0.47619529  1
  O  O149  1  0.57364654  0.69588929  0.47654871  1
  O  O150  1  0.06335919  0.63025936  0.36009391  1
  O  O151  1  0.56370909  0.62648997  0.36083239  1
  O  O152  1  0.25133612  0.87413763  0.35864845  1
  O  O153  1  0.75024459  0.87563180  0.36141875  1
  O  O154  1  0.18680017  0.49991571  0.36138486  1
  O  O155  1  0.68568313  0.49606913  0.35890575  1
  O  O156  1  0.06297032  0.49563421  0.85967938  1
  O  O157  1  0.56282425  0.49564286  0.85975836  1
  O  O158  1  0.18471535  0.87373514  0.85968866  1
  O  O159  1  0.68477717  0.87390210  0.85963803  1
  O  O160  1  0.25426256  0.63252654  0.85763609  1
  O  O161  1  0.75431233  0.63233420  0.85762700  1
  O  O162  1  0.00749932  0.83392986  0.40605331  1
  O  O163  1  0.50568636  0.81926399  0.41172106  1
  O  O164  1  0.40318805  0.98249329  0.41177606  1
  O  O165  1  0.90999442  0.98463764  0.40622802  1
  O  O166  1  0.08274198  0.18006461  0.40653791  1
  O  O167  1  0.59119234  0.18860483  0.41185975  1
  O  O168  1  0.00773661  0.18175814  0.90650745  1
  O  O169  1  0.50768077  0.18177954  0.90654856  1
  O  O170  1  0.08297544  0.98386003  0.90629095  1
  O  O171  1  0.58291632  0.98392206  0.90624243  1
  O  O172  1  0.40949113  0.83404523  0.90650776  1
  O  O173  1  0.90950055  0.83386401  0.90651296  1
  O  O174  1  0.48419489  0.15345949  0.59035112  1
  O  O175  1  0.98417705  0.15435368  0.58983971  1
  O  O176  1  0.09214515  0.03184578  0.58950983  1
  O  O177  1  0.59233307  0.03172617  0.58928539  1
  O  O178  1  0.42335977  0.81582642  0.58934059  1
  O  O179  1  0.92377829  0.81656695  0.58985894  1
  O  O180  1  0.48435312  0.81478641  0.08957734  1
  O  O181  1  0.98464986  0.81546785  0.08949581  1
  O  O182  1  0.42314443  0.03079447  0.08946638  1
  O  O183  1  0.92330663  0.03148684  0.08936813  1
  O  O184  1  0.09195708  0.15318205  0.08903760  1
  O  O185  1  0.59245359  0.15309555  0.08928468  1
  O  O186  1  0.34586683  0.15970583  0.74879091  1
  O  O187  1  0.84583381  0.15973493  0.74859776  1
  O  O188  1  0.23443664  0.31574195  0.74862002  1
  O  O189  1  0.73443933  0.31550961  0.74869214  1
  O  O190  1  0.42100839  0.53714790  0.74821471  1
  O  O191  1  0.92107722  0.53703261  0.74827479  1
  O  O192  1  0.33889969  0.52187929  0.24535250  1
  O  O193  1  0.84238231  0.53119397  0.24880176  1
  O  O194  1  0.42030668  0.31630210  0.24334702  1
  O  O195  1  0.92160651  0.30869716  0.24923408  1
  O  O196  1  0.23433184  0.15158933  0.24884011  1
  O  O197  1  0.73687784  0.15870470  0.24442333  1
  O  O198  1  0.32300260  0.49507490  0.92049208  1
  O  O199  1  0.82303970  0.49478794  0.92066798  1
  O  O200  1  0.42419017  0.35336115  0.92112897  1
  O  O201  1  0.92435943  0.35391250  0.92080556  1
  O  O202  1  0.25274177  0.15113282  0.92081664  1
  O  O203  1  0.75251827  0.15149047  0.92089677  1
  O  O204  1  0.31646650  0.14772063  0.42195803  1
  O  O205  1  0.82152255  0.14997358  0.42088412  1
  O  O206  1  0.25391757  0.36037321  0.42128210  1
  O  O207  1  0.75706376  0.36023979  0.42142358  1
  O  O208  1  0.42305747  0.48656077  0.42267454  1
  O  O209  1  0.92542208  0.49509384  0.42076642  1
  O  O210  1  0.17263967  0.48898834  0.07622284  1
  O  O211  1  0.67337787  0.48955250  0.07678951  1
  O  O212  1  0.07161436  0.65392630  0.07665154  1
  O  O213  1  0.57218566  0.65533462  0.07599545  1
  O  O214  1  0.25492455  0.85621591  0.07686285  1
  O  O215  1  0.75560857  0.85588135  0.07622599  1
  O  O216  1  0.17216286  0.85626257  0.57758244  1
  O  O217  1  0.67258375  0.85649693  0.57742826  1
  O  O218  1  0.25489502  0.65354443  0.57763688  1
  O  O219  1  0.75584361  0.65515583  0.57856635  1
  O  O220  1  0.07184680  0.48927509  0.57682539  1
  O  O221  1  0.57183077  0.48823215  0.57760932  1
  O  O222  1  0.14859178  0.81945893  0.25762534  1
  O  O223  1  0.65184658  0.81873912  0.25652943  1
  O  O224  1  0.25845062  0.70186392  0.25570346  1
  O  O225  1  0.76121438  0.70071703  0.25825238  1
  O  O226  1  0.09036622  0.47418567  0.25871416  1
  O  O227  1  0.59194160  0.48174415  0.25557786  1
  O  O228  1  0.15003341  0.47924623  0.75807505  1
  O  O229  1  0.65010089  0.47929818  0.75814760  1
  O  O230  1  0.09103898  0.70537139  0.75856101  1
  O  O231  1  0.59098088  0.70535601  0.75853786  1
  O  O232  1  0.26279580  0.81917900  0.75808204  1
  O  O233  1  0.76281197  0.81924700  0.75806695  1
