# generated using pymatgen
data_Na4Mg3SiSnS5O24
_symmetry_space_group_name_H-M   'P 1'
_cell_length_a   8.84228812
_cell_length_b   8.84796454
_cell_length_c   22.57809479
_cell_angle_alpha   90.50992272
_cell_angle_beta   89.84451938
_cell_angle_gamma   120.19584034
_symmetry_Int_Tables_number   1
_chemical_formula_structural   Na4Mg3SiSnS5O24
_chemical_formula_sum   'Na12 Mg9 Si3 Sn3 S15 O72'
_cell_volume   1526.67792262
_cell_formula_units_Z   3
loop_
 _symmetry_equiv_pos_site_id
 _symmetry_equiv_pos_as_xyz
  1  'x, y, z'
loop_
 _atom_site_type_symbol
 _atom_site_label
 _atom_site_symmetry_multiplicity
 _atom_site_fract_x
 _atom_site_fract_y
 _atom_site_fract_z
 _atom_site_occupancy
  Na  Na0  1  0.36259640  0.36295928  0.25031541  1
  Na  Na1  1  0.31450784  0.34273519  0.58739889  1
  Na  Na2  1  0.01966158  0.69614548  0.58240660  1
  Na  Na3  1  0.98680318  0.67409265  0.91711890  1
  Na  Na4  1  0.69963250  0.03401417  0.91240371  1
  Na  Na5  1  0.31297856  0.28827762  0.91835419  1
  Na  Na6  1  0.97559525  0.98342206  0.49949317  1
  Na  Na7  1  0.01302241  0.01196033  0.00068262  1
  Na  Na8  1  0.66785191  0.32465294  0.82835247  1
  Na  Na9  1  0.67733159  0.33195306  0.33041147  1
  Na  Na10  1  0.33218041  0.67649230  0.16616361  1
  Na  Na11  1  0.35855541  0.67544608  0.66361372  1
  Mg  Mg12  1  0.99716155  0.99756855  0.35004334  1
  Mg  Mg13  1  0.00655074  0.00673994  0.85016829  1
  Mg  Mg14  1  0.98343362  0.99069869  0.64983433  1
  Mg  Mg15  1  0.99769241  0.99669906  0.15053657  1
  Mg  Mg16  1  0.66275547  0.33951082  0.68466594  1
  Mg  Mg17  1  0.67328559  0.33217220  0.18553716  1
  Mg  Mg18  1  0.32108240  0.66368357  0.01850965  1
  Mg  Mg19  1  0.34865834  0.67271998  0.51636481  1
  Mg  Mg20  1  0.33389816  0.67580553  0.31590739  1
  Si  Si21  1  0.66460709  0.63170379  0.58562715  1
  Si  Si22  1  0.04294714  0.37161305  0.91889964  1
  Si  Si23  1  0.33068185  0.95874041  0.91911066  1
  Sn  Sn24  1  0.66860400  0.32591111  0.98617371  1
  Sn  Sn25  1  0.67021517  0.34032407  0.48203052  1
  Sn  Sn26  1  0.32522823  0.67155438  0.81633186  1
  S  S27  1  0.29150332  0.99900985  0.24967467  1
  S  S28  1  0.70604288  0.70645838  0.25004509  1
  S  S29  1  0.99975016  0.29192250  0.25044325  1
  S  S30  1  0.29581549  0.29600351  0.74999659  1
  S  S31  1  0.99852725  0.70559050  0.74946889  1
  S  S32  1  0.70342109  0.99886119  0.75098101  1
  S  S33  1  0.95778936  0.33077599  0.58418271  1
  S  S34  1  0.37551960  0.03962741  0.58484583  1
  S  S35  1  0.96010593  0.62941103  0.08578530  1
  S  S36  1  0.66746469  0.03308789  0.08596497  1
  S  S37  1  0.37203210  0.33549531  0.08605993  1
  S  S38  1  0.62321955  0.66658791  0.91798276  1
  S  S39  1  0.62842411  0.96290032  0.41686729  1
  S  S40  1  0.32942135  0.36930995  0.41557576  1
  S  S41  1  0.04290268  0.66796445  0.41712986  1
  O  O42  1  0.21169794  0.03083740  0.30259091  1
  O  O43  1  0.81238502  0.78767153  0.30352679  1
  O  O44  1  0.97434309  0.18570807  0.30354510  1
  O  O45  1  0.21104655  0.19746074  0.80395122  1
  O  O46  1  0.98153562  0.78769610  0.80416397  1
  O  O47  1  0.80033493  0.01647372  0.80616558  1
  O  O48  1  0.78728059  0.97555428  0.69875692  1
  O  O49  1  0.19034070  0.21515645  0.69618649  1
  O  O50  1  0.02236169  0.81101414  0.69656414  1
  O  O51  1  0.78647340  0.81152019  0.19693086  1
  O  O52  1  0.03098364  0.21169296  0.19741576  1
  O  O53  1  0.18529631  0.97347754  0.19627470  1
  O  O54  1  0.87251690  0.35681525  0.63537611  1
  O  O55  1  0.48870189  0.11849587  0.63580817  1
  O  O56  1  0.62467949  0.49593461  0.63822678  1
  O  O57  1  0.86422426  0.51331259  0.13431686  1
  O  O58  1  0.64337281  0.12783071  0.13466960  1
  O  O59  1  0.48327416  0.35449578  0.13698613  1
  O  O60  1  0.45049186  0.30658585  0.02841435  1
  O  O61  1  0.85466794  0.55554447  0.02728710  1
  O  O62  1  0.70039597  0.13680314  0.02765835  1
  O  O63  1  0.45069546  0.14734633  0.52924807  1
  O  O64  1  0.71754183  0.55089478  0.52446432  1
  O  O65  1  0.84822455  0.28901421  0.52867823  1
  O  O66  1  0.54714864  0.69920486  0.96973049  1
  O  O67  1  0.17398096  0.45381513  0.97314241  1
  O  O68  1  0.30060418  0.83777754  0.97430555  1
  O  O69  1  0.54716392  0.86358890  0.47049434  1
  O  O70  1  0.31125404  0.45148430  0.47009967  1
  O  O71  1  0.13870467  0.68571339  0.47272791  1
  O  O72  1  0.12784925  0.64399700  0.36520732  1
  O  O73  1  0.52157454  0.88534092  0.36367966  1
  O  O74  1  0.35797900  0.47673056  0.36259843  1
  O  O75  1  0.11424668  0.49602349  0.85834943  1
  O  O76  1  0.39702305  0.89402673  0.85936218  1
  O  O77  1  0.51236864  0.62392222  0.86325394  1
  O  O78  1  0.01755732  0.82003376  0.41154122  1
  O  O79  1  0.80529624  0.98707698  0.41078056  1
  O  O80  1  0.17478131  0.19301328  0.40977204  1
  O  O81  1  0.00117619  0.17355406  0.90869282  1
  O  O82  1  0.15988863  0.97682671  0.90845319  1
  O  O83  1  0.79931083  0.81874104  0.90807271  1
  O  O84  1  0.99228104  0.18456128  0.59061153  1
  O  O85  1  0.20376081  0.03139933  0.59138814  1
  O  O86  1  0.84544641  0.81929551  0.58863136  1
  O  O87  1  0.97683029  0.80313028  0.09047615  1
  O  O88  1  0.82620692  0.01976897  0.09139395  1
  O  O89  1  0.19811200  0.17701244  0.08948818  1
  O  O90  1  0.68034332  0.15236948  0.74540844  1
  O  O91  1  0.47027210  0.31296396  0.74620515  1
  O  O92  1  0.84609651  0.52736598  0.74488224  1
  O  O93  1  0.68144397  0.52615748  0.24385389  1
  O  O94  1  0.84496650  0.31319698  0.24357940  1
  O  O95  1  0.46799861  0.16169029  0.24360212  1
  O  O96  1  0.64272419  0.50782663  0.92406978  1
  O  O97  1  0.85021326  0.36536400  0.92474284  1
  O  O98  1  0.50332707  0.16229658  0.92413871  1
  O  O99  1  0.64554547  0.14566547  0.42207171  1
  O  O100  1  0.49238007  0.35033142  0.41957456  1
  O  O101  1  0.86298993  0.49959425  0.41871039  1
  O  O102  1  0.36278486  0.49543698  0.08002036  1
  O  O103  1  0.13076507  0.64104761  0.08012020  1
  O  O104  1  0.51015997  0.86059063  0.07892336  1
  O  O105  1  0.34227957  0.85971500  0.57553691  1
  O  O106  1  0.48680314  0.64012074  0.57642788  1
  O  O107  1  0.12834551  0.49521605  0.57567623  1
  O  O108  1  0.31298385  0.84439610  0.25623187  1
  O  O109  1  0.52570955  0.68165667  0.25631124  1
  O  O110  1  0.16211397  0.46846764  0.25699292  1
  O  O111  1  0.31667568  0.47839841  0.75414462  1
  O  O112  1  0.16483094  0.69274540  0.75123294  1
  O  O113  1  0.52400933  0.83067533  0.75328988  1
