# generated using pymatgen
data_Na18Ta8Zn4Si15(SO24)3
_symmetry_space_group_name_H-M   'P 1'
_cell_length_a   9.09271421
_cell_length_b   9.08190715
_cell_length_c   22.39722190
_cell_angle_alpha   90.00813526
_cell_angle_beta   90.03461216
_cell_angle_gamma   120.16474601
_symmetry_Int_Tables_number   1
_chemical_formula_structural   Na18Ta8Zn4Si15(SO24)3
_chemical_formula_sum   'Na18 Ta8 Zn4 Si15 S3 O72'
_cell_volume   1599.08622459
_cell_formula_units_Z   1
loop_
 _symmetry_equiv_pos_site_id
 _symmetry_equiv_pos_as_xyz
  1  'x, y, z'
loop_
 _atom_site_type_symbol
 _atom_site_label
 _atom_site_symmetry_multiplicity
 _atom_site_fract_x
 _atom_site_fract_y
 _atom_site_fract_z
 _atom_site_occupancy
  Na  Na0  1  0.65009258  0.62981602  0.74589858  1
  Na  Na1  1  0.97596641  0.36116985  0.74676932  1
  Na  Na2  1  0.02614847  0.68669232  0.58678382  1
  Na  Na3  1  0.65931358  0.97719177  0.58742646  1
  Na  Na4  1  0.32098478  0.97564244  0.08774107  1
  Na  Na5  1  0.66230977  0.68693896  0.08697019  1
  Na  Na6  1  0.96473201  0.68440471  0.90952442  1
  Na  Na7  1  0.71904001  0.03506852  0.91010165  1
  Na  Na8  1  0.31832933  0.28643021  0.91359749  1
  Na  Na9  1  0.96683268  0.28616137  0.41303206  1
  Na  Na10  1  0.31676283  0.03450270  0.40914948  1
  Na  Na11  1  0.71400172  0.68126719  0.41275636  1
  Na  Na12  1  0.01000800  0.01006008  0.49399764  1
  Na  Na13  1  0.99796254  0.00723816  0.99254393  1
  Na  Na14  1  0.66818969  0.32477012  0.82335400  1
  Na  Na15  1  0.65510919  0.32451192  0.32096109  1
  Na  Na16  1  0.32379054  0.65967442  0.16777072  1
  Na  Na17  1  0.33391421  0.67114817  0.66628028  1
  Ta  Ta18  1  0.99407128  0.98906855  0.64522359  1
  Ta  Ta19  1  0.00917854  0.00073292  0.14531430  1
  Ta  Ta20  1  0.66972753  0.33347169  0.98086421  1
  Ta  Ta21  1  0.66375501  0.33055303  0.48030844  1
  Ta  Ta22  1  0.32790875  0.66313055  0.02080758  1
  Ta  Ta23  1  0.33512842  0.66503112  0.52004995  1
  Ta  Ta24  1  0.33126128  0.67406145  0.31259095  1
  Ta  Ta25  1  0.33610471  0.68014322  0.81304995  1
  Zn  Zn26  1  0.01337266  0.00296181  0.35319759  1
  Zn  Zn27  1  0.98375760  0.98787065  0.85220588  1
  Zn  Zn28  1  0.67461863  0.32835700  0.68039152  1
  Zn  Zn29  1  0.64954348  0.31769181  0.17933384  1
  Si  Si30  1  0.30195839  0.00888664  0.25370595  1
  Si  Si31  1  0.99944334  0.70554149  0.75337558  1
  Si  Si32  1  0.70690745  0.00359353  0.75275885  1
  Si  Si33  1  0.96255940  0.33394783  0.58485663  1
  Si  Si34  1  0.37549539  0.04484649  0.58482977  1
  Si  Si35  1  0.65893037  0.61679531  0.58670540  1
  Si  Si36  1  0.95447135  0.61491329  0.08810206  1
  Si  Si37  1  0.66923383  0.04239088  0.08471671  1
  Si  Si38  1  0.37839614  0.33757426  0.08466757  1
  Si  Si39  1  0.61925066  0.66151523  0.91714211  1
  Si  Si40  1  0.04229725  0.37705786  0.91524391  1
  Si  Si41  1  0.33590352  0.96347815  0.91850822  1
  Si  Si42  1  0.62528561  0.95932039  0.41623993  1
  Si  Si43  1  0.33669906  0.38015564  0.41476315  1
  Si  Si44  1  0.04011844  0.66289495  0.41732755  1
  S  S45  1  0.70707607  0.71071022  0.25183114  1
  S  S46  1  0.00300898  0.29081364  0.25195980  1
  S  S47  1  0.28831086  0.28986436  0.75156389  1
  O  O48  1  0.21096997  0.01928512  0.31352032  1
  O  O49  1  0.80160957  0.79371946  0.30616788  1
  O  O50  1  0.98254997  0.19617481  0.30713806  1
  O  O51  1  0.21338810  0.19678610  0.80705360  1
  O  O52  1  0.97622752  0.79089340  0.81254643  1
  O  O53  1  0.81966042  0.03540927  0.81193289  1
  O  O54  1  0.80739841  0.97234264  0.69331408  1
  O  O55  1  0.17553033  0.20099108  0.69837732  1
  O  O56  1  0.02760882  0.83012814  0.69269440  1
  O  O57  1  0.79286686  0.82016187  0.19681857  1
  O  O58  1  0.02113451  0.19671865  0.19870880  1
  O  O59  1  0.17020487  0.98015725  0.19407128  1
  O  O60  1  0.90125463  0.38894414  0.64306803  1
  O  O61  1  0.50336857  0.11608462  0.63914884  1
  O  O62  1  0.63036098  0.51609943  0.64700998  1
  O  O63  1  0.87171035  0.50366145  0.14484420  1
  O  O64  1  0.60654117  0.10721558  0.13885937  1
  O  O65  1  0.50185524  0.39331475  0.13999473  1
  O  O66  1  0.46226886  0.29485591  0.02461165  1
  O  O67  1  0.83302940  0.53443483  0.02623951  1
  O  O68  1  0.69950355  0.16337909  0.02386745  1
  O  O69  1  0.46635259  0.16235469  0.52349744  1
  O  O70  1  0.69799138  0.52987547  0.52705607  1
  O  O71  1  0.83310231  0.29880343  0.52596292  1
  O  O72  1  0.51796701  0.68263780  0.97392211  1
  O  O73  1  0.16474916  0.48171255  0.97176595  1
  O  O74  1  0.31254153  0.84101446  0.97534705  1
  O  O75  1  0.53103740  0.84148941  0.47492191  1
  O  O76  1  0.31683110  0.48304118  0.47189959  1
  O  O77  1  0.16380586  0.68918213  0.47442360  1
  O  O78  1  0.13749842  0.62873751  0.36026431  1
  O  O79  1  0.49184063  0.86155659  0.35978333  1
  O  O80  1  0.37121476  0.50845660  0.35775730  1
  O  O81  1  0.13533229  0.50245285  0.85669545  1
  O  O82  1  0.37019372  0.86619466  0.86058838  1
  O  O83  1  0.49453294  0.62852693  0.85811531  1
  O  O84  1  0.01553168  0.82557767  0.41615651  1
  O  O85  1  0.80999488  0.97900089  0.41128175  1
  O  O86  1  0.16809323  0.19581126  0.41578253  1
  O  O87  1  0.02641177  0.19357752  0.91497698  1
  O  O88  1  0.17231594  0.98476593  0.91546769  1
  O  O89  1  0.80477923  0.82825222  0.91872318  1
  O  O90  1  0.97263421  0.15790973  0.59037887  1
  O  O91  1  0.18187176  0.01822408  0.58977569  1
  O  O92  1  0.83789638  0.81178965  0.58918630  1
  O  O93  1  0.97260467  0.81159372  0.09300151  1
  O  O94  1  0.83378109  0.01269011  0.09293712  1
  O  O95  1  0.18741054  0.16065417  0.09160277  1
  O  O96  1  0.68377464  0.16569529  0.74547392  1
  O  O97  1  0.46068455  0.31985439  0.74480739  1
  O  O98  1  0.83265395  0.51895480  0.74741360  1
  O  O99  1  0.68824923  0.54165742  0.24577278  1
  O  O100  1  0.85908726  0.31872187  0.24438039  1
  O  O101  1  0.48891461  0.16912643  0.24662614  1
  O  O102  1  0.62993894  0.48540475  0.92310205  1
  O  O103  1  0.85710571  0.36909095  0.92252691  1
  O  O104  1  0.51513072  0.14665980  0.92205647  1
  O  O105  1  0.63319508  0.14450153  0.42196400  1
  O  O106  1  0.51233370  0.36898829  0.42284653  1
  O  O107  1  0.85544980  0.48476898  0.42269482  1
  O  O108  1  0.34833882  0.49894240  0.07288998  1
  O  O109  1  0.15287643  0.66304354  0.07598169  1
  O  O110  1  0.50550165  0.84729954  0.07229203  1
  O  O111  1  0.34443233  0.84954172  0.57343614  1
  O  O112  1  0.50743891  0.66263213  0.57547051  1
  O  O113  1  0.15097896  0.50122235  0.57220122  1
  O  O114  1  0.30486774  0.82034068  0.25543398  1
  O  O115  1  0.53318841  0.69788503  0.25315937  1
  O  O116  1  0.16891402  0.46148321  0.25324545  1
  O  O117  1  0.29556012  0.46214745  0.75231986  1
  O  O118  1  0.17476239  0.68565247  0.75471469  1
  O  O119  1  0.52336711  0.81301532  0.75497053  1
