# generated using pymatgen
data_Na7Ca2In2P5SO24
_symmetry_space_group_name_H-M   'P 1'
_cell_length_a   9.29506572
_cell_length_b   9.27262538
_cell_length_c   23.01554867
_cell_angle_alpha   90.16638462
_cell_angle_beta   89.98282346
_cell_angle_gamma   119.88870473
_symmetry_Int_Tables_number   1
_chemical_formula_structural   Na7Ca2In2P5SO24
_chemical_formula_sum   'Na21 Ca6 In6 P15 S3 O72'
_cell_volume   1719.85128308
_cell_formula_units_Z   3
loop_
 _symmetry_equiv_pos_site_id
 _symmetry_equiv_pos_as_xyz
  1  'x, y, z'
loop_
 _atom_site_type_symbol
 _atom_site_label
 _atom_site_symmetry_multiplicity
 _atom_site_fract_x
 _atom_site_fract_y
 _atom_site_fract_z
 _atom_site_occupancy
  Na  Na0  1  0.64176739  0.99663773  0.25152963  1
  Na  Na1  1  0.99500714  0.62756174  0.25379464  1
  Na  Na2  1  0.63412508  0.63805962  0.74794527  1
  Na  Na3  1  0.00437766  0.36711019  0.75205756  1
  Na  Na4  1  0.36432196  0.99618747  0.75202109  1
  Na  Na5  1  0.29611142  0.33199804  0.58600750  1
  Na  Na6  1  0.03824804  0.70508113  0.58228966  1
  Na  Na7  1  0.66817546  0.96197467  0.58354270  1
  Na  Na8  1  0.29681182  0.96252392  0.07961697  1
  Na  Na9  1  0.66795038  0.70370570  0.08678627  1
  Na  Na10  1  0.03768096  0.33302835  0.08345892  1
  Na  Na11  1  0.98209308  0.66766021  0.91617457  1
  Na  Na12  1  0.32481274  0.29864964  0.91875239  1
  Na  Na13  1  0.96537272  0.30780342  0.41448503  1
  Na  Na14  1  0.70033476  0.67360105  0.41796314  1
  Na  Na15  1  0.00479226  0.99310568  0.50058689  1
  Na  Na16  1  0.99786821  0.00761556  0.99994223  1
  Na  Na17  1  0.66800867  0.31512092  0.83423496  1
  Na  Na18  1  0.66090965  0.32932868  0.33339715  1
  Na  Na19  1  0.33476894  0.64639129  0.16758317  1
  Na  Na20  1  0.33388561  0.66774663  0.66657954  1
  Ca  Ca21  1  0.99983975  0.99987759  0.65022802  1
  Ca  Ca22  1  0.00149721  0.00381953  0.15010853  1
  Ca  Ca23  1  0.33098754  0.66860978  0.01389636  1
  Ca  Ca24  1  0.33362718  0.67598323  0.51325002  1
  Ca  Ca25  1  0.33283577  0.66470119  0.31955385  1
  Ca  Ca26  1  0.33155876  0.67092557  0.82089952  1
  In  In27  1  0.99348037  0.99523962  0.34619283  1
  In  In28  1  0.00216860  0.00703702  0.84519987  1
  In  In29  1  0.66792886  0.33305235  0.68252288  1
  In  In30  1  0.66863460  0.33809007  0.18240056  1
  In  In31  1  0.66688187  0.32153570  0.98458529  1
  In  In32  1  0.66754756  0.32769287  0.48489722  1
  P  P33  1  0.70064545  0.69556788  0.24858167  1
  P  P34  1  0.99407350  0.30023980  0.24955521  1
  P  P35  1  0.30631755  0.30148736  0.74930084  1
  P  P36  1  0.99440089  0.69728629  0.74996674  1
  P  P37  1  0.70189535  0.00354269  0.74828709  1
  P  P38  1  0.96297806  0.33477519  0.58337575  1
  P  P39  1  0.37565256  0.04241884  0.58427042  1
  P  P40  1  0.66419591  0.62361653  0.58249451  1
  P  P41  1  0.95922354  0.62530939  0.08237706  1
  P  P42  1  0.66520405  0.03854824  0.08604704  1
  P  P43  1  0.37792628  0.33487729  0.08169695  1
  P  P44  1  0.02373431  0.35651743  0.91636177  1
  P  P45  1  0.33035418  0.97835982  0.91596259  1
  P  P46  1  0.64463576  0.97680248  0.41556919  1
  P  P47  1  0.02110534  0.66693096  0.41643860  1
  S  S48  1  0.30145654  0.00456336  0.24996465  1
  S  S49  1  0.64269610  0.66670156  0.91661284  1
  S  S50  1  0.33224746  0.35891002  0.41752310  1
  O  O51  1  0.21789143  0.02669461  0.30156675  1
  O  O52  1  0.81270177  0.77572868  0.30407583  1
  O  O53  1  0.97274352  0.19214763  0.30511886  1
  O  O54  1  0.22584464  0.19163363  0.80454017  1
  O  O55  1  0.96611026  0.77967802  0.80539098  1
  O  O56  1  0.81802967  0.03365571  0.80133876  1
  O  O57  1  0.77467064  0.97645796  0.69242088  1
  O  O58  1  0.19993821  0.22308384  0.69511200  1
  O  O59  1  0.01960866  0.80154449  0.69568133  1
  O  O60  1  0.78428600  0.79951549  0.19430456  1
  O  O61  1  0.01412267  0.22011218  0.19449313  1
  O  O62  1  0.20537281  0.98281562  0.19633824  1
  O  O63  1  0.88018193  0.35919623  0.63858038  1
  O  O64  1  0.47746901  0.11969453  0.64096811  1
  O  O65  1  0.64198715  0.51932302  0.63822385  1
  O  O66  1  0.87978681  0.52033647  0.13805788  1
  O  O67  1  0.63842376  0.11747553  0.14213464  1
  O  O68  1  0.48807682  0.35836890  0.13521313  1
  O  O69  1  0.45757100  0.31303024  0.02519824  1
  O  O70  1  0.85004446  0.54190143  0.02766901  1
  O  O71  1  0.69389609  0.15067892  0.03297065  1
  O  O72  1  0.46214522  0.15573828  0.53157539  1
  O  O73  1  0.68532189  0.53879363  0.52723979  1
  O  O74  1  0.85744190  0.31108311  0.52809803  1
  O  O75  1  0.56517657  0.68854263  0.96967710  1
  O  O76  1  0.13235348  0.43394543  0.97100326  1
  O  O77  1  0.30350152  0.87288054  0.97085793  1
  O  O78  1  0.56931937  0.86892225  0.47002114  1
  O  O79  1  0.30405410  0.43099035  0.47124618  1
  O  O80  1  0.11929921  0.68791470  0.47236524  1
  O  O81  1  0.09914316  0.63509958  0.36261029  1
  O  O82  1  0.54495730  0.89746175  0.36028789  1
  O  O83  1  0.35957911  0.46773713  0.36750889  1
  O  O84  1  0.10236994  0.46331516  0.86194817  1
  O  O85  1  0.35514938  0.90123043  0.86095953  1
  O  O86  1  0.54056557  0.64317522  0.86479290  1
  O  O87  1  0.99777079  0.82320882  0.41022268  1
  O  O88  1  0.82531673  0.99792095  0.41134582  1
  O  O89  1  0.17931979  0.19245147  0.40983686  1
  O  O90  1  0.01044316  0.18161432  0.91044762  1
  O  O91  1  0.16563960  0.99007730  0.91122399  1
  O  O92  1  0.81399602  0.81350560  0.91165935  1
  O  O93  1  0.97845741  0.17646117  0.58561383  1
  O  O94  1  0.20085833  0.02419531  0.58578661  1
  O  O95  1  0.82267381  0.79708383  0.58456806  1
  O  O96  1  0.97709007  0.80038820  0.08533739  1
  O  O97  1  0.82197414  0.02049100  0.08778247  1
  O  O98  1  0.20446011  0.17614425  0.08498232  1
  O  O99  1  0.68758688  0.16590020  0.74649925  1
  O  O100  1  0.48101917  0.31380694  0.74601618  1
  O  O101  1  0.83270710  0.52156628  0.74683012  1
  O  O102  1  0.69112167  0.52156636  0.24601764  1
  O  O103  1  0.82485614  0.30460407  0.24825757  1
  O  O104  1  0.47221115  0.15228249  0.24734655  1
  O  O105  1  0.65762915  0.51238460  0.92089190  1
  O  O106  1  0.85203948  0.35030265  0.92194786  1
  O  O107  1  0.48083220  0.16043969  0.92124269  1
  O  O108  1  0.67007588  0.15689097  0.42106938  1
  O  O109  1  0.48543213  0.34510880  0.42228985  1
  O  O110  1  0.84052087  0.50782480  0.42060137  1
  O  O111  1  0.36063215  0.49282224  0.07967106  1
  O  O112  1  0.13283749  0.64063298  0.07915181  1
  O  O113  1  0.50757591  0.86485581  0.08113418  1
  O  O114  1  0.36096245  0.86868149  0.58037724  1
  O  O115  1  0.50602773  0.63947233  0.57961339  1
  O  O116  1  0.13685085  0.49254092  0.58033975  1
  O  O117  1  0.31611502  0.85225983  0.25547839  1
  O  O118  1  0.53188735  0.68710674  0.25490815  1
  O  O119  1  0.13863915  0.48005289  0.25469310  1
  O  O120  1  0.32974283  0.47794589  0.75594949  1
  O  O121  1  0.14783101  0.67468025  0.75542003  1
  O  O122  1  0.52731041  0.84967996  0.75565268  1
