# generated using pymatgen
data_Na6In4Si5Sn4S7O48
_symmetry_space_group_name_H-M   'P 1'
_cell_length_a   17.98632522
_cell_length_b   8.99123286
_cell_length_c   22.98319480
_cell_angle_alpha   89.97287867
_cell_angle_beta   89.82396154
_cell_angle_gamma   120.07030844
_symmetry_Int_Tables_number   1
_chemical_formula_structural   Na6In4Si5Sn4S7O48
_chemical_formula_sum   'Na18 In12 Si15 Sn12 S21 O144'
_cell_volume   3216.55787230
_cell_formula_units_Z   3
loop_
 _symmetry_equiv_pos_site_id
 _symmetry_equiv_pos_as_xyz
  1  'x, y, z'
loop_
 _atom_site_type_symbol
 _atom_site_label
 _atom_site_symmetry_multiplicity
 _atom_site_fract_x
 _atom_site_fract_y
 _atom_site_fract_z
 _atom_site_occupancy
  Na  Na0  1  0.99676635  0.62105788  0.25675193  1
  Na  Na1  1  0.49831643  0.63759610  0.25096226  1
  Na  Na2  1  0.99879893  0.36506007  0.74997659  1
  Na  Na3  1  0.49937968  0.36246738  0.75348977  1
  Na  Na4  1  0.66317293  0.30276993  0.91735238  1
  Na  Na5  1  0.16454482  0.01737871  0.43254677  1
  Na  Na6  1  0.99912036  0.99159064  0.50544428  1
  Na  Na7  1  0.50680499  0.99176225  0.50304908  1
  Na  Na8  1  0.00502391  0.01871874  0.99832441  1
  Na  Na9  1  0.50352445  0.01678478  0.00083241  1
  Na  Na10  1  0.32556954  0.31110859  0.83874680  1
  Na  Na11  1  0.82912781  0.33082097  0.82115513  1
  Na  Na12  1  0.34383907  0.34949522  0.32904909  1
  Na  Na13  1  0.81938941  0.33131957  0.34096672  1
  Na  Na14  1  0.19219476  0.65788136  0.16472041  1
  Na  Na15  1  0.67189685  0.64348249  0.16274516  1
  Na  Na16  1  0.17397059  0.70520003  0.66523829  1
  Na  Na17  1  0.68805913  0.69905467  0.67224444  1
  In  In18  1  0.99566018  0.99084874  0.35502709  1
  In  In19  1  0.49866375  0.00779543  0.85219931  1
  In  In20  1  0.32476905  0.33739506  0.67759408  1
  In  In21  1  0.82418477  0.30870698  0.68902828  1
  In  In22  1  0.33078752  0.34980499  0.18604823  1
  In  In23  1  0.82111977  0.30839068  0.17410751  1
  In  In24  1  0.82836913  0.31692171  0.98891934  1
  In  In25  1  0.33056832  0.34685405  0.49353703  1
  In  In26  1  0.17073893  0.66899361  0.31660148  1
  In  In27  1  0.66392926  0.64487179  0.31524765  1
  In  In28  1  0.16580893  0.68512504  0.81497699  1
  In  In29  1  0.66764795  0.65664687  0.81266494  1
  Si  Si30  1  0.35652151  0.72210214  0.25263626  1
  Si  Si31  1  0.49861009  0.30150339  0.24778162  1
  Si  Si32  1  0.64257576  0.28831578  0.75126356  1
  Si  Si33  1  0.00228496  0.69886782  0.74696980  1
  Si  Si34  1  0.85864565  0.99322096  0.75290491  1
  Si  Si35  1  0.17833582  0.03380259  0.58251965  1
  Si  Si36  1  0.68950979  0.03278449  0.58062051  1
  Si  Si37  1  0.33519937  0.64618868  0.58353811  1
  Si  Si38  1  0.83231326  0.02534304  0.08287260  1
  Si  Si39  1  0.18967085  0.34554184  0.08216568  1
  Si  Si40  1  0.67783656  0.32706941  0.08160997  1
  Si  Si41  1  0.51819952  0.37695868  0.91599359  1
  Si  Si42  1  0.16449022  0.96264854  0.91856747  1
  Si  Si43  1  0.66570173  0.36781598  0.41747582  1
  Si  Si44  1  0.02013153  0.65780229  0.41402474  1
  Sn  Sn45  1  0.50121798  0.02320489  0.35139444  1
  Sn  Sn46  1  0.00195684  0.97697140  0.85044968  1
  Sn  Sn47  1  0.00136451  0.98852008  0.65064153  1
  Sn  Sn48  1  0.50690928  0.99853938  0.64389926  1
  Sn  Sn49  1  0.00170761  0.01306396  0.14064056  1
  Sn  Sn50  1  0.49991982  0.01313964  0.14942117  1
  Sn  Sn51  1  0.32971888  0.32631855  0.98002332  1
  Sn  Sn52  1  0.83040528  0.33645968  0.48120246  1
  Sn  Sn53  1  0.16340202  0.66526308  0.01591818  1
  Sn  Sn54  1  0.66710758  0.65917276  0.02056902  1
  Sn  Sn55  1  0.16596714  0.67513161  0.52280200  1
  Sn  Sn56  1  0.66273443  0.65831741  0.51733609  1
  S  S57  1  0.14139237  0.99949349  0.24885921  1
  S  S58  1  0.65033875  0.00610202  0.25368840  1
  S  S59  1  0.85621209  0.70678058  0.24566781  1
  S  S60  1  0.99733114  0.28952866  0.24976849  1
  S  S61  1  0.15058006  0.29486926  0.75397989  1
  S  S62  1  0.49365715  0.69963395  0.74996179  1
  S  S63  1  0.35256071  0.00252923  0.74581011  1
  S  S64  1  0.48456177  0.33668417  0.58452143  1
  S  S65  1  0.97775549  0.32579812  0.58181324  1
  S  S66  1  0.83385593  0.63124361  0.58141294  1
  S  S67  1  0.47942743  0.63379554  0.08260476  1
  S  S68  1  0.98574769  0.63121621  0.08731302  1
  S  S69  1  0.33181856  0.03610071  0.08291075  1
  S  S70  1  0.31288094  0.66803826  0.91551973  1
  S  S71  1  0.81766791  0.66503720  0.92057297  1
  S  S72  1  0.01537042  0.36404157  0.91633948  1
  S  S73  1  0.66648631  0.95691207  0.91703903  1
  S  S74  1  0.31688225  0.97029663  0.41938971  1
  S  S75  1  0.81162890  0.95836781  0.41503690  1
  S  S76  1  0.16798224  0.37039125  0.41665215  1
  S  S77  1  0.51441318  0.66655583  0.41533425  1
  O  O78  1  0.10466084  0.02197681  0.30418968  1
  O  O79  1  0.60920874  0.02680930  0.30709650  1
  O  O80  1  0.42095122  0.81266124  0.30882810  1
  O  O81  1  0.90823161  0.78369008  0.29946150  1
  O  O82  1  0.48929112  0.19981403  0.30882756  1
  O  O83  1  0.98894274  0.18945790  0.30318048  1
  O  O84  1  0.10972881  0.19154441  0.80739528  1
  O  O85  1  0.60772871  0.19394740  0.81477097  1
  O  O86  1  0.47940548  0.77704613  0.80257917  1
  O  O87  1  0.99257735  0.77926466  0.80852647  1
  O  O88  1  0.40114730  0.02348784  0.80048280  1
  O  O89  1  0.92363340  0.03092720  0.80899639  1
  O  O90  1  0.39568435  0.98556238  0.69371887  1
  O  O91  1  0.90286196  0.97373166  0.69192782  1
  O  O92  1  0.09717083  0.21774376  0.70081813  1
  O  O93  1  0.57449333  0.18317681  0.69828053  1
  O  O94  1  0.02517386  0.82690774  0.69132016  1
  O  O95  1  0.49631373  0.79185047  0.69561006  1
  O  O96  1  0.40220185  0.82596005  0.19170063  1
  O  O97  1  0.90213570  0.81273726  0.19373836  1
  O  O98  1  0.00533825  0.20314068  0.19669522  1
  O  O99  1  0.51932900  0.21818149  0.19163473  1
  O  O100  1  0.08393802  0.97772465  0.19847234  1
  O  O101  1  0.59663874  0.97628830  0.20074809  1
  O  O102  1  0.44550411  0.35560055  0.63882227  1
  O  O103  1  0.94395278  0.35872097  0.63525495  1
  O  O104  1  0.24066969  0.11812996  0.63740526  1
  O  O105  1  0.74674088  0.10545365  0.63777999  1
  O  O106  1  0.31979521  0.53641946  0.64236302  1
  O  O107  1  0.82565979  0.53101861  0.63303784  1
  O  O108  1  0.44809646  0.53588575  0.13779621  1
  O  O109  1  0.94740918  0.53487605  0.14239114  1
  O  O110  1  0.32230850  0.11674374  0.13560701  1
  O  O111  1  0.82341477  0.10077517  0.14517591  1
  O  O112  1  0.24173725  0.38170280  0.14232273  1
  O  O113  1  0.73808523  0.36844056  0.13878907  1
  O  O114  1  0.23560797  0.31724503  0.02590325  1
  O  O115  1  0.71861476  0.30847001  0.02008960  1
  O  O116  1  0.42337641  0.54227205  0.03235881  1
  O  O117  1  0.93262112  0.55173895  0.03579736  1
  O  O118  1  0.34537387  0.13970431  0.02933391  1
  O  O119  1  0.85823680  0.15446791  0.02800432  1
  O  O120  1  0.21903610  0.13121115  0.52002865  1
  O  O121  1  0.73323964  0.14897957  0.52208751  1
  O  O122  1  0.36053819  0.57699549  0.52548707  1
  O  O123  1  0.84862333  0.55849579  0.52653691  1
  O  O124  1  0.43378844  0.31857234  0.53183242  1
  O  O125  1  0.92524826  0.30706059  0.52891166  1
  O  O126  1  0.27263397  0.69329489  0.96914595  1
  O  O127  1  0.77920935  0.69109514  0.97431587  1
  O  O128  1  0.07086509  0.44975307  0.96904843  1
  O  O129  1  0.58905127  0.47687756  0.96779295  1
  O  O130  1  0.14813425  0.84174770  0.97719757  1
  O  O131  1  0.66568681  0.86623085  0.97148234  1
  O  O132  1  0.27602042  0.86331956  0.47170851  1
  O  O133  1  0.76984460  0.85258749  0.46753351  1
  O  O134  1  0.16247083  0.45942698  0.46879374  1
  O  O135  1  0.64890391  0.45851857  0.47453346  1
  O  O136  1  0.09335604  0.70167206  0.46395817  1
  O  O137  1  0.57023699  0.68848186  0.46650395  1
  O  O138  1  0.05641732  0.63460950  0.35061406  1
  O  O139  1  0.55488459  0.65512505  0.35988078  1
  O  O140  1  0.26250732  0.89522591  0.36664765  1
  O  O141  1  0.76326295  0.88066487  0.36104764  1
  O  O142  1  0.17714990  0.46464703  0.36198196  1
  O  O143  1  0.68656428  0.47927114  0.35841022  1
  O  O144  1  0.05795517  0.45930645  0.86222868  1
  O  O145  1  0.55402954  0.47520953  0.85394007  1
  O  O146  1  0.18514748  0.88892970  0.86105318  1
  O  O147  1  0.67452269  0.87421829  0.86439523  1
  O  O148  1  0.26115800  0.64275294  0.86296944  1
  O  O149  1  0.76306303  0.63401977  0.86913108  1
  O  O150  1  0.01448348  0.83680641  0.41380046  1
  O  O151  1  0.50413388  0.82072192  0.41424736  1
  O  O152  1  0.40141513  0.97952351  0.41411496  1
  O  O153  1  0.89896843  0.97561558  0.41340061  1
  O  O154  1  0.08745263  0.19615636  0.41510863  1
  O  O155  1  0.57873960  0.17379794  0.41398261  1
  O  O156  1  0.00402578  0.18900838  0.91515630  1
  O  O157  1  0.50806152  0.18375712  0.91775188  1
  O  O158  1  0.07774798  0.98287985  0.91481854  1
  O  O159  1  0.58561501  0.96649044  0.91751963  1
  O  O160  1  0.39958854  0.82270660  0.91190123  1
  O  O161  1  0.90328936  0.82311246  0.91544857  1
  O  O162  1  0.49642251  0.18551058  0.58646316  1
  O  O163  1  0.98333054  0.16663789  0.58529690  1
  O  O164  1  0.08545771  0.03241710  0.58688733  1
  O  O165  1  0.59348658  0.01379140  0.58521280  1
  O  O166  1  0.41455998  0.84622330  0.58992805  1
  O  O167  1  0.90901214  0.81004213  0.58393992  1
  O  O168  1  0.48327268  0.80279150  0.08665901  1
  O  O169  1  0.00026625  0.80956826  0.09167229  1
  O  O170  1  0.40775251  0.01033217  0.08552247  1
  O  O171  1  0.91200190  0.98205620  0.08605554  1
  O  O172  1  0.09383662  0.16911912  0.08656575  1
  O  O173  1  0.58517176  0.14154049  0.08725166  1
  O  O174  1  0.34687858  0.16346545  0.74250128  1
  O  O175  1  0.85562734  0.17079753  0.75029655  1
  O  O176  1  0.23615321  0.30916725  0.75008672  1
  O  O177  1  0.73781785  0.31288899  0.74626529  1
  O  O178  1  0.42015474  0.51681257  0.74679578  1
  O  O179  1  0.91689149  0.51146753  0.74001778  1
  O  O180  1  0.34882774  0.53335098  0.25140704  1
  O  O181  1  0.84949910  0.53465466  0.24167661  1
  O  O182  1  0.41134247  0.31426419  0.24250424  1
  O  O183  1  0.92121385  0.31323105  0.24641833  1
  O  O184  1  0.22737751  0.14834279  0.24311063  1
  O  O185  1  0.73608636  0.16394491  0.24971626  1
  O  O186  1  0.32209140  0.51356838  0.92159110  1
  O  O187  1  0.82757366  0.51025238  0.92567959  1
  O  O188  1  0.42532864  0.36813284  0.92682949  1
  O  O189  1  0.93230340  0.36038161  0.92190598  1
  O  O190  1  0.24845694  0.15523829  0.92402750  1
  O  O191  1  0.74144210  0.13813192  0.91776769  1
  O  O192  1  0.32738747  0.14445477  0.42506686  1
  O  O193  1  0.82274027  0.13269354  0.41968945  1
  O  O194  1  0.24254046  0.34031441  0.41882166  1
  O  O195  1  0.75054363  0.34659601  0.42358294  1
  O  O196  1  0.43011413  0.50528185  0.42040974  1
  O  O197  1  0.92652123  0.48558816  0.42508463  1
  O  O198  1  0.17472586  0.51240534  0.07302830  1
  O  O199  1  0.65821112  0.48661462  0.07937172  1
  O  O200  1  0.07206530  0.64504730  0.08224613  1
  O  O201  1  0.56727418  0.66245531  0.07370975  1
  O  O202  1  0.25250389  0.86230137  0.07762458  1
  O  O203  1  0.74243999  0.84104837  0.07583320  1
  O  O204  1  0.15744587  0.83356353  0.57913772  1
  O  O205  1  0.67499228  0.83572869  0.57174251  1
  O  O206  1  0.24408228  0.64832752  0.57522022  1
  O  O207  1  0.75372106  0.64253194  0.57567410  1
  O  O208  1  0.06634973  0.47562955  0.57339758  1
  O  O209  1  0.57146848  0.49616517  0.58054084  1
  O  O210  1  0.14360077  0.83623484  0.25002562  1
  O  O211  1  0.65914008  0.85099273  0.25893725  1
  O  O212  1  0.26242334  0.70963176  0.25618873  1
  O  O213  1  0.77192051  0.69588882  0.24887805  1
  O  O214  1  0.07632784  0.46256897  0.25075943  1
  O  O215  1  0.57988464  0.50238145  0.24987695  1
  O  O216  1  0.15903525  0.46711926  0.75920733  1
  O  O217  1  0.64319358  0.47128875  0.74835689  1
  O  O218  1  0.08388743  0.66255398  0.74926692  1
  O  O219  1  0.57468931  0.69521846  0.75220043  1
  O  O220  1  0.26629312  0.84678482  0.74875302  1
  O  O221  1  0.76437369  0.82423545  0.75798089  1
