# generated using pymatgen
data_MgZr3P2(SO6)4
_symmetry_space_group_name_H-M   'P 1'
_cell_length_a   8.92131995
_cell_length_b   8.93634502
_cell_length_c   22.99976367
_cell_angle_alpha   90.01031195
_cell_angle_beta   89.97176102
_cell_angle_gamma   120.01094895
_symmetry_Int_Tables_number   1
_chemical_formula_structural   MgZr3P2(SO6)4
_chemical_formula_sum   'Mg3 Zr9 P6 S12 O72'
_cell_volume   1587.79733487
_cell_formula_units_Z   3
loop_
 _symmetry_equiv_pos_site_id
 _symmetry_equiv_pos_as_xyz
  1  'x, y, z'
loop_
 _atom_site_type_symbol
 _atom_site_label
 _atom_site_symmetry_multiplicity
 _atom_site_fract_x
 _atom_site_fract_y
 _atom_site_fract_z
 _atom_site_occupancy
  Mg  Mg0  1  0.99273482  0.99982780  0.35377584  1
  Mg  Mg1  1  0.67506137  0.33607104  0.68750892  1
  Mg  Mg2  1  0.66128088  0.33551252  0.18758185  1
  Zr  Zr3  1  0.00084417  0.00022191  0.85907519  1
  Zr  Zr4  1  0.99890543  0.00543354  0.64344319  1
  Zr  Zr5  1  0.00602029  0.00671692  0.14441859  1
  Zr  Zr6  1  0.65804870  0.33118864  0.97675170  1
  Zr  Zr7  1  0.67350420  0.32567546  0.47584515  1
  Zr  Zr8  1  0.33307706  0.66064800  0.02253422  1
  Zr  Zr9  1  0.33552592  0.66628943  0.52105789  1
  Zr  Zr10  1  0.34101303  0.67480628  0.30843737  1
  Zr  Zr11  1  0.33175851  0.66637436  0.81360135  1
  P  P12  1  0.95301380  0.33726234  0.58551325  1
  P  P13  1  0.38434260  0.33494879  0.08600678  1
  P  P14  1  0.61997561  0.66609226  0.91674472  1
  P  P15  1  0.04334644  0.37951586  0.91710911  1
  P  P16  1  0.33405542  0.95251355  0.91736954  1
  P  P17  1  0.62769598  0.95159372  0.41549255  1
  S  S18  1  0.29103493  0.00767900  0.25139928  1
  S  S19  1  0.71748016  0.70843429  0.25067582  1
  S  S20  1  0.99329179  0.28674728  0.25123387  1
  S  S21  1  0.29552697  0.28973145  0.74933574  1
  S  S22  1  0.99513626  0.70691171  0.74924490  1
  S  S23  1  0.71006250  0.00463751  0.74967684  1
  S  S24  1  0.38129080  0.04708792  0.58495586  1
  S  S25  1  0.66611036  0.61759338  0.58476336  1
  S  S26  1  0.95235160  0.61902065  0.08526856  1
  S  S27  1  0.66589349  0.04714637  0.08523833  1
  S  S28  1  0.32934604  0.37275634  0.41565828  1
  S  S29  1  0.04604084  0.67339125  0.41546959  1
  O  O30  1  0.20682907  0.02724204  0.30265457  1
  O  O31  1  0.82010726  0.79157331  0.30224399  1
  O  O32  1  0.97216923  0.18087768  0.30202231  1
  O  O33  1  0.20889743  0.18062164  0.80098768  1
  O  O34  1  0.97302643  0.79311568  0.80126760  1
  O  O35  1  0.81988612  0.02790326  0.80116068  1
  O  O36  1  0.79408741  0.97278589  0.69776064  1
  O  O37  1  0.17914819  0.20527853  0.69751974  1
  O  O38  1  0.02665255  0.82154741  0.69752406  1
  O  O39  1  0.79261475  0.82138295  0.19810970  1
  O  O40  1  0.02877539  0.20774027  0.19825410  1
  O  O41  1  0.17794654  0.97104776  0.19843834  1
  O  O42  1  0.87009544  0.36351725  0.63811675  1
  O  O43  1  0.48588380  0.12482010  0.63614395  1
  O  O44  1  0.63682213  0.51287815  0.63613865  1
  O  O45  1  0.87553644  0.51309888  0.13624516  1
  O  O46  1  0.64002341  0.12578718  0.13633338  1
  O  O47  1  0.49356970  0.36248196  0.13855278  1
  O  O48  1  0.46253182  0.30386017  0.02985134  1
  O  O49  1  0.84787552  0.54292417  0.03166646  1
  O  O50  1  0.69728991  0.15275656  0.03169263  1
  O  O51  1  0.45640484  0.15373173  0.53159488  1
  O  O52  1  0.69431487  0.54165015  0.53131067  1
  O  O53  1  0.84064032  0.30475546  0.52969970  1
  O  O54  1  0.53834046  0.69808973  0.97040007  1
  O  O55  1  0.15919773  0.46251295  0.97033025  1
  O  O56  1  0.30324043  0.84000914  0.97086659  1
  O  O57  1  0.53237525  0.84044502  0.47007184  1
  O  O58  1  0.30499307  0.45824181  0.46862421  1
  O  O59  1  0.15231059  0.69362977  0.46857483  1
  O  O60  1  0.12460420  0.63599704  0.36461138  1
  O  O61  1  0.50319237  0.86522610  0.36316143  1
  O  O62  1  0.36164845  0.48777062  0.36485597  1
  O  O63  1  0.12928103  0.49184748  0.86237719  1
  O  O64  1  0.36212815  0.86949515  0.86219560  1
  O  O65  1  0.50733971  0.63728401  0.86212088  1
  O  O66  1  0.02681741  0.82291654  0.40740677  1
  O  O67  1  0.80463034  0.97576576  0.40659758  1
  O  O68  1  0.17975980  0.20344207  0.40753221  1
  O  O69  1  0.02551507  0.20104166  0.90617865  1
  O  O70  1  0.17587916  0.97489364  0.90638800  1
  O  O71  1  0.79969594  0.82536232  0.90634766  1
  O  O72  1  0.97602055  0.17559726  0.59347565  1
  O  O73  1  0.20407679  0.02378348  0.59245955  1
  O  O74  1  0.82023195  0.79434174  0.59255694  1
  O  O75  1  0.97362007  0.79513943  0.09287644  1
  O  O76  1  0.81993173  0.02360923  0.09267822  1
  O  O77  1  0.19853774  0.17431062  0.09362193  1
  O  O78  1  0.69060942  0.15399726  0.74042552  1
  O  O79  1  0.46403310  0.30798498  0.73939903  1
  O  O80  1  0.84416668  0.53795696  0.74081250  1
  O  O81  1  0.69181167  0.53700140  0.24097575  1
  O  O82  1  0.84613110  0.30962634  0.23976453  1
  O  O83  1  0.46311311  0.15210942  0.24094432  1
  O  O84  1  0.64320379  0.50922160  0.92538073  1
  O  O85  1  0.86472346  0.35803135  0.92683960  1
  O  O86  1  0.49298690  0.13232547  0.92507310  1
  O  O87  1  0.63698816  0.12922690  0.42608571  1
  O  O88  1  0.48798375  0.36122621  0.42660601  1
  O  O89  1  0.87256495  0.51578949  0.42544282  1
  O  O90  1  0.35603553  0.48971625  0.07401534  1
  O  O91  1  0.12838110  0.64398538  0.07540422  1
  O  O92  1  0.51380720  0.87268251  0.07538964  1
  O  O93  1  0.35737686  0.87185539  0.57477530  1
  O  O94  1  0.51431963  0.64247465  0.57503870  1
  O  O95  1  0.13541028  0.49121760  0.57197085  1
  O  O96  1  0.30461663  0.84525542  0.25853308  1
  O  O97  1  0.53940971  0.69148356  0.25876964  1
  O  O98  1  0.15413942  0.46178847  0.25961514  1
  O  O99  1  0.30737309  0.46016722  0.75722086  1
  O  O100  1  0.15319139  0.69305277  0.75741241  1
  O  O101  1  0.53935656  0.84586305  0.75731796  1
