# generated using pymatgen
data_MgMn4(FeO4)2
_symmetry_space_group_name_H-M   'P 1'
_cell_length_a   6.14106956
_cell_length_b   6.36011463
_cell_length_c   6.13238639
_cell_angle_alpha   63.15372994
_cell_angle_beta   58.68833044
_cell_angle_gamma   63.55137937
_symmetry_Int_Tables_number   1
_chemical_formula_structural   MgMn4(FeO4)2
_chemical_formula_sum   'Mg1 Mn4 Fe2 O8'
_cell_volume   175.46452592
_cell_formula_units_Z   1
loop_
 _symmetry_equiv_pos_site_id
 _symmetry_equiv_pos_as_xyz
  1  'x, y, z'
loop_
 _atom_site_type_symbol
 _atom_site_label
 _atom_site_symmetry_multiplicity
 _atom_site_fract_x
 _atom_site_fract_y
 _atom_site_fract_z
 _atom_site_occupancy
  Mg  Mg0  1  0.12500000  0.62500000  0.12500000  1
  Mn  Mn1  1  0.97779900  0.08867300  0.95748700  1
  Mn  Mn2  1  0.27220100  0.16132700  0.29251300  1
  Mn  Mn3  1  0.12500000  0.62500000  0.62500000  1
  Mn  Mn4  1  0.62500000  0.12500000  0.62500000  1
  Fe  Fe5  1  0.62500000  0.62500000  0.12500000  1
  Fe  Fe6  1  0.62500000  0.62500000  0.62500000  1
  O  O7  1  0.34897400  0.40844000  0.38086800  1
  O  O8  1  0.38157400  0.38671500  0.88153900  1
  O  O9  1  0.39175700  0.79944400  0.42230300  1
  O  O10  1  0.38149400  0.85600300  0.87287300  1
  O  O11  1  0.86850600  0.39399700  0.37712700  1
  O  O12  1  0.85824300  0.45055600  0.82769700  1
  O  O13  1  0.86842500  0.86328500  0.36846100  1
  O  O14  1  0.90102600  0.84156000  0.86913200  1
