# generated using pymatgen
data_Na4MgSiGe(PO6)2
_symmetry_space_group_name_H-M   'P 1'
_cell_length_a   8.92440219
_cell_length_b   8.88837834
_cell_length_c   21.67571986
_cell_angle_alpha   90.50481610
_cell_angle_beta   90.00000000
_cell_angle_gamma   120.13416015
_symmetry_Int_Tables_number   1
_chemical_formula_structural   Na4MgSiGe(PO6)2
_chemical_formula_sum   'Na24 Mg6 Si6 Ge6 P12 O72'
_cell_volume   1486.94390300
_cell_formula_units_Z   6
loop_
 _symmetry_equiv_pos_site_id
 _symmetry_equiv_pos_as_xyz
  1  'x, y, z'
loop_
 _atom_site_type_symbol
 _atom_site_label
 _atom_site_symmetry_multiplicity
 _atom_site_fract_x
 _atom_site_fract_y
 _atom_site_fract_z
 _atom_site_occupancy
  Na  Na0  1  0.63407973  0.00832322  0.24919858  1
  Na  Na1  1  0.36975900  0.35696704  0.25019627  1
  Na  Na2  1  0.99267701  0.62952972  0.24491348  1
  Na  Na3  1  0.63685272  0.62952972  0.74491348  1
  Na  Na4  1  0.98720804  0.35696704  0.75019627  1
  Na  Na5  1  0.37424349  0.00832322  0.74919858  1
  Na  Na6  1  0.30803671  0.34512191  0.58339990  1
  Na  Na7  1  0.03379431  0.69451641  0.58110250  1
  Na  Na8  1  0.65609618  0.95624821  0.57999858  1
  Na  Na9  1  0.30015302  0.95624821  0.07999858  1
  Na  Na10  1  0.66072310  0.69451641  0.08110250  1
  Na  Na11  1  0.03708621  0.34512191  0.08339990  1
  Na  Na12  1  0.97603627  0.67951922  0.91762218  1
  Na  Na13  1  0.70384030  0.03120125  0.91179103  1
  Na  Na14  1  0.32426069  0.29370671  0.91508408  1
  Na  Na15  1  0.96944501  0.29370671  0.41508408  1
  Na  Na16  1  0.32735996  0.03120125  0.41179103  1
  Na  Na17  1  0.70348195  0.67951922  0.41762218  1
  Na  Na18  1  0.99472898  0.99923424  0.49667702  1
  Na  Na19  1  0.00450526  0.99923424  0.99667702  1
  Na  Na20  1  0.66708762  0.32837197  0.83015720  1
  Na  Na21  1  0.66128535  0.32837197  0.33015720  1
  Na  Na22  1  0.32732148  0.66664376  0.16335522  1
  Na  Na23  1  0.33932128  0.66664376  0.66335522  1
  Mg  Mg24  1  0.00135298  0.00134682  0.35212996  1
  Mg  Mg25  1  -0.00000616  0.00134682  0.85212996  1
  Mg  Mg26  1  0.66608790  0.33173411  0.68544893  1
  Mg  Mg27  1  0.66564721  0.33173411  0.18544893  1
  Mg  Mg28  1  0.33076256  0.66942120  0.01889568  1
  Mg  Mg29  1  0.33865764  0.66942120  0.51889568  1
  Si  Si30  1  0.29294442  0.99712434  0.25290449  1
  Si  Si31  1  0.70417991  0.99712434  0.75290449  1
  Si  Si32  1  0.66859131  0.62515770  0.58600054  1
  Si  Si33  1  0.95656739  0.62515770  0.08600054  1
  Si  Si34  1  0.33697452  0.96457538  0.92011384  1
  Si  Si35  1  0.62759986  0.96457538  0.42011384  1
  Ge  Ge36  1  0.98843070  0.99074431  0.64949320  1
  Ge  Ge37  1  0.00231361  0.99074431  0.14949320  1
  Ge  Ge38  1  0.66487097  0.33222975  0.98321595  1
  Ge  Ge39  1  0.66735978  0.33222975  0.48321595  1
  Ge  Ge40  1  0.33551984  0.67819969  0.31624936  1
  Ge  Ge41  1  0.34267885  0.67819969  0.81624936  1
  P  P42  1  0.70486878  0.70959121  0.25148222  1
  P  P43  1  0.00521215  0.29198314  0.25130012  1
  P  P44  1  0.28677100  0.29198314  0.75130012  1
  P  P45  1  0.00472243  0.70959121  0.75148222  1
  P  P46  1  0.95754728  0.32952914  0.58484899  1
  P  P47  1  0.36991961  0.04314908  0.58485383  1
  P  P48  1  0.67323047  0.04314908  0.08485383  1
  P  P49  1  0.37198286  0.32952914  0.08484899  1
  P  P50  1  0.62195621  0.66150368  0.91816524  1
  P  P51  1  0.04313532  0.37973599  0.91731696  1
  P  P52  1  0.33659967  0.37973599  0.41731696  1
  P  P53  1  0.03954647  0.66150368  0.41816524  1
  O  O54  1  0.20955034  0.03078945  0.31227069  1
  O  O55  1  0.81631005  0.79287035  0.30826309  1
  O  O56  1  0.97401083  0.18104286  0.30775206  1
  O  O57  1  0.20703203  0.18104286  0.80775206  1
  O  O58  1  0.97656030  0.79287035  0.80826309  1
  O  O59  1  0.82123911  0.03078945  0.81227069  1
  O  O60  1  0.79165679  0.95472594  0.68974957  1
  O  O61  1  0.16680637  0.20640097  0.69132801  1
  O  O62  1  0.04470395  0.83051204  0.69212226  1
  O  O63  1  0.78580809  0.83051204  0.19212226  1
  O  O64  1  0.03959461  0.20640097  0.19132801  1
  O  O65  1  0.16306915  0.95472594  0.18974957  1
  O  O66  1  0.87643014  0.35851902  0.64183834  1
  O  O67  1  0.48407803  0.12263864  0.64136118  1
  O  O68  1  0.63901201  0.50987895  0.64513613  1
  O  O69  1  0.87086794  0.50987895  0.14513613  1
  O  O70  1  0.63856162  0.12263864  0.14136118  1
  O  O71  1  0.48208988  0.35851902  0.14183834  1
  O  O72  1  0.45323300  0.28988580  0.02539720  1
  O  O73  1  0.82446480  0.53535064  0.02253477  1
  O  O74  1  0.70915201  0.16264896  0.02554729  1
  O  O75  1  0.45349795  0.16264896  0.52554729  1
  O  O76  1  0.71088685  0.53535064  0.52253477  1
  O  O77  1  0.83665381  0.28988580  0.52539720  1
  O  O78  1  0.53929594  0.68884362  0.97491559  1
  O  O79  1  0.15436551  0.45956342  0.97436513  1
  O  O80  1  0.30310588  0.84743882  0.97890743  1
  O  O81  1  0.54433194  0.84743882  0.47890743  1
  O  O82  1  0.30519691  0.45956342  0.47436513  1
  O  O83  1  0.14954668  0.68884362  0.47491559  1
  O  O84  1  0.12186722  0.62324805  0.35843632  1
  O  O85  1  0.49758786  0.87865301  0.35675135  1
  O  O86  1  0.37160306  0.49990409  0.35795715  1
  O  O87  1  0.12830002  0.49990409  0.85795715  1
  O  O88  1  0.38106415  0.87865301  0.85675135  1
  O  O89  1  0.50137983  0.62324805  0.85843632  1
  O  O90  1  0.01623396  0.82013297  0.41156297  1
  O  O91  1  0.81990253  0.99307062  0.41190489  1
  O  O92  1  0.17970494  0.19625647  0.41089288  1
  O  O93  1  0.01655153  0.19625647  0.91089288  1
  O  O94  1  0.17316809  0.99307062  0.91190489  1
  O  O95  1  0.80389901  0.82013297  0.91156297  1
  O  O96  1  0.97452663  0.16051564  0.58810576  1
  O  O97  1  0.18844121  0.03485342  0.58924185  1
  O  O98  1  0.85564328  0.82168680  0.58815955  1
  O  O99  1  0.96604351  0.82168680  0.08815955  1
  O  O100  1  0.84641221  0.03485342  0.08924185  1
  O  O101  1  0.18598902  0.16051564  0.08810576  1
  O  O102  1  0.67539989  0.16144938  0.74538086  1
  O  O103  1  0.46915033  0.31837935  0.74455902  1
  O  O104  1  0.84619998  0.52770821  0.74431003  1
  O  O105  1  0.68150923  0.52770821  0.24431003  1
  O  O106  1  0.84923003  0.31837935  0.24455902  1
  O  O107  1  0.48605049  0.16144938  0.24538086  1
  O  O108  1  0.63523881  0.49049089  0.92024261  1
  O  O109  1  0.85996946  0.36768955  0.92051203  1
  O  O110  1  0.52338928  0.16171148  0.92463636  1
  O  O111  1  0.63832320  0.16171148  0.42463636  1
  O  O112  1  0.50772109  0.36768955  0.42051203  1
  O  O113  1  0.85525307  0.49049089  0.42024261  1
  O  O114  1  0.35181422  0.48947755  0.07694654  1
  O  O115  1  0.14862457  0.65174824  0.08007498  1
  O  O116  1  0.51940889  0.85835791  0.07740098  1
  O  O117  1  0.33894803  0.85835791  0.57740098  1
  O  O118  1  0.50312267  0.65174824  0.58007498  1
  O  O119  1  0.13766232  0.48947755  0.57694654  1
  O  O120  1  0.30115264  0.80993438  0.25542171  1
  O  O121  1  0.51941765  0.69280287  0.25485055  1
  O  O122  1  0.17819574  0.47541041  0.25524749  1
  O  O123  1  0.29721366  0.47541041  0.75524749  1
  O  O124  1  0.17338421  0.69280287  0.75485055  1
  O  O125  1  0.50878074  0.80993438  0.75542171  1
