# generated using pymatgen
data_Na3LaNbSi2PO12
_symmetry_space_group_name_H-M   'P 1'
_cell_length_a   16.47639973
_cell_length_b   28.34242736
_cell_length_c   9.25315567
_cell_angle_alpha   90.00000000
_cell_angle_beta   125.79977385
_cell_angle_gamma   90.00000000
_symmetry_Int_Tables_number   1
_chemical_formula_structural   Na3LaNbSi2PO12
_chemical_formula_sum   'Na36 La12 Nb12 Si24 P12 O144'
_cell_volume   3504.65679814
_cell_formula_units_Z   12
loop_
 _symmetry_equiv_pos_site_id
 _symmetry_equiv_pos_as_xyz
  1  'x, y, z'
loop_
 _atom_site_type_symbol
 _atom_site_label
 _atom_site_symmetry_multiplicity
 _atom_site_fract_x
 _atom_site_fract_y
 _atom_site_fract_z
 _atom_site_occupancy
  Na  Na0  1  0.24576984  0.25662694  0.99592915  1
  Na  Na1  1  0.23993712  0.58741504  0.00103358  1
  Na  Na2  1  0.23922261  0.92007709  0.99952497  1
  Na  Na3  1  0.74576984  0.24337306  0.49592915  1
  Na  Na4  1  0.73922261  0.57992291  0.49952497  1
  Na  Na5  1  0.73993712  0.91258496  0.50103358  1
  Na  Na6  1  0.73993712  0.08741504  0.00103358  1
  Na  Na7  1  0.73922261  0.42007709  0.99952497  1
  Na  Na8  1  0.74576984  0.75662694  0.99592915  1
  Na  Na9  1  0.23922261  0.07992291  0.49952497  1
  Na  Na10  1  0.23993712  0.41258496  0.50103358  1
  Na  Na11  1  0.24576984  0.74337306  0.49592915  1
  Na  Na12  1  0.49350306  0.02846907  0.75552935  1
  Na  Na13  1  0.49562801  0.36233001  0.76289927  1
  Na  Na14  1  0.49294855  0.69504638  0.75543252  1
  Na  Na15  1  0.49294855  0.30495362  0.25543252  1
  Na  Na16  1  0.49562801  0.63766999  0.26289927  1
  Na  Na17  1  0.49350306  0.97153093  0.25552935  1
  Na  Na18  1  0.99294855  0.19504638  0.75543252  1
  Na  Na19  1  0.99350306  0.52846907  0.75552935  1
  Na  Na20  1  0.99562801  0.86233001  0.76289927  1
  Na  Na21  1  0.99562801  0.13766999  0.26289927  1
  Na  Na22  1  0.99350306  0.47153093  0.25552935  1
  Na  Na23  1  0.99294855  0.80495362  0.25543252  1
  Na  Na24  1  0.82519060  0.64230637  0.20442590  1
  Na  Na25  1  0.82298957  0.97551065  0.20686334  1
  Na  Na26  1  0.18611332  0.30442371  0.29167092  1
  Na  Na27  1  0.18611332  0.69557629  0.79167092  1
  Na  Na28  1  0.82298957  0.02448935  0.70686334  1
  Na  Na29  1  0.82519060  0.35769363  0.70442590  1
  Na  Na30  1  0.32519060  0.14230637  0.20442590  1
  Na  Na31  1  0.32298957  0.47551065  0.20686334  1
  Na  Na32  1  0.68611332  0.80442371  0.29167092  1
  Na  Na33  1  0.68611332  0.19557629  0.79167092  1
  Na  Na34  1  0.32298957  0.52448935  0.70686334  1
  Na  Na35  1  0.32519060  0.85769363  0.70442590  1
  La  La36  1  0.90058484  0.25192725  0.95223355  1
  La  La37  1  0.89046094  0.58420444  0.92543191  1
  La  La38  1  0.88962384  0.91515706  0.93131354  1
  La  La39  1  0.88962384  0.08484294  0.43131354  1
  La  La40  1  0.89046094  0.41579556  0.42543191  1
  La  La41  1  0.90058484  0.74807275  0.45223355  1
  La  La42  1  0.39046094  0.08420444  0.92543191  1
  La  La43  1  0.38962384  0.41515706  0.93131354  1
  La  La44  1  0.40058484  0.75192725  0.95223355  1
  La  La45  1  0.40058484  0.24807275  0.45223355  1
  La  La46  1  0.38962384  0.58484294  0.43131354  1
  La  La47  1  0.39046094  0.91579556  0.42543191  1
  Nb  Nb48  1  0.10521310  0.24779705  0.56163952  1
  Nb  Nb49  1  0.10576471  0.58212470  0.56307618  1
  Nb  Nb50  1  0.10582875  0.91650257  0.56355435  1
  Nb  Nb51  1  0.10582875  0.08349743  0.06355435  1
  Nb  Nb52  1  0.10576471  0.41787530  0.06307618  1
  Nb  Nb53  1  0.10521310  0.75220295  0.06163952  1
  Nb  Nb54  1  0.60576471  0.08212470  0.56307618  1
  Nb  Nb55  1  0.60582875  0.41650257  0.56355435  1
  Nb  Nb56  1  0.60521310  0.74779705  0.56163952  1
  Nb  Nb57  1  0.60521310  0.25220295  0.06163952  1
  Nb  Nb58  1  0.60582875  0.58349743  0.06355435  1
  Nb  Nb59  1  0.60576471  0.91787530  0.06307618  1
  Si  Si60  1  0.34237676  0.29288174  0.74372845  1
  Si  Si61  1  0.34813631  0.62707287  0.76312028  1
  Si  Si62  1  0.34726787  0.95915882  0.75470454  1
  Si  Si63  1  0.64495295  0.30665935  0.74409412  1
  Si  Si64  1  0.64086831  0.63805691  0.74013030  1
  Si  Si65  1  0.64271155  0.97293485  0.74101683  1
  Si  Si66  1  0.64271155  0.02706515  0.24101683  1
  Si  Si67  1  0.64086831  0.36194309  0.24013030  1
  Si  Si68  1  0.64495295  0.69334065  0.24409412  1
  Si  Si69  1  0.34726787  0.04084118  0.25470454  1
  Si  Si70  1  0.34813631  0.37292713  0.26312028  1
  Si  Si71  1  0.34237676  0.70711826  0.24372845  1
  Si  Si72  1  0.84813631  0.12707287  0.76312028  1
  Si  Si73  1  0.84726787  0.45915882  0.75470454  1
  Si  Si74  1  0.84237676  0.79288174  0.74372845  1
  Si  Si75  1  0.14086831  0.13805691  0.74013030  1
  Si  Si76  1  0.14271155  0.47293485  0.74101683  1
  Si  Si77  1  0.14495295  0.80665935  0.74409412  1
  Si  Si78  1  0.14495295  0.19334065  0.24409412  1
  Si  Si79  1  0.14271155  0.52706515  0.24101683  1
  Si  Si80  1  0.14086831  0.86194309  0.24013030  1
  Si  Si81  1  0.84237676  0.20711826  0.24372845  1
  Si  Si82  1  0.84726787  0.54084118  0.25470454  1
  Si  Si83  1  0.84813631  0.87292713  0.26312028  1
  P  P84  1  0.01706929  0.31864524  0.75862804  1
  P  P85  1  0.01449083  0.64987667  0.74907254  1
  P  P86  1  0.01462462  0.98607935  0.75190317  1
  P  P87  1  0.01462462  0.01392065  0.25190317  1
  P  P88  1  0.01449083  0.35012333  0.24907254  1
  P  P89  1  0.01706929  0.68135476  0.25862804  1
  P  P90  1  0.51449083  0.14987667  0.74907254  1
  P  P91  1  0.51462462  0.48607935  0.75190317  1
  P  P92  1  0.51706929  0.81864524  0.75862804  1
  P  P93  1  0.51706929  0.18135476  0.25862804  1
  P  P94  1  0.51462462  0.51392065  0.25190317  1
  P  P95  1  0.51449083  0.85012333  0.24907254  1
  O  O96  1  0.13977378  0.19816906  0.74369220  1
  O  O97  1  0.14214128  0.53245899  0.75244545  1
  O  O98  1  0.14429289  0.86537869  0.75265444  1
  O  O99  1  0.83716870  0.18415046  0.75051419  1
  O  O100  1  0.84273011  0.51563853  0.74100685  1
  O  O101  1  0.83903393  0.85007724  0.74409707  1
  O  O102  1  0.83903393  0.14992276  0.24409707  1
  O  O103  1  0.84273011  0.48436147  0.24100685  1
  O  O104  1  0.83716870  0.81584954  0.25051419  1
  O  O105  1  0.14429289  0.13462131  0.25265444  1
  O  O106  1  0.14214128  0.46754101  0.25244545  1
  O  O107  1  0.13977378  0.80183094  0.24369220  1
  O  O108  1  0.64214128  0.03245899  0.75244545  1
  O  O109  1  0.64429289  0.36537869  0.75265444  1
  O  O110  1  0.63977378  0.69816906  0.74369220  1
  O  O111  1  0.34273011  0.01563853  0.74100685  1
  O  O112  1  0.33903393  0.35007724  0.74409707  1
  O  O113  1  0.33716870  0.68415046  0.75051419  1
  O  O114  1  0.33716870  0.31584954  0.25051419  1
  O  O115  1  0.33903393  0.64992276  0.24409707  1
  O  O116  1  0.34273011  0.98436147  0.24100685  1
  O  O117  1  0.63977378  0.30183094  0.24369220  1
  O  O118  1  0.64429289  0.63462131  0.25265444  1
  O  O119  1  0.64214128  0.96754101  0.25244545  1
  O  O120  1  0.44960233  0.17326932  0.56694065  1
  O  O121  1  0.44724091  0.51204946  0.57652898  1
  O  O122  1  0.45228684  0.84794895  0.59323270  1
  O  O123  1  0.56649797  0.18861105  0.90154586  1
  O  O124  1  0.56826131  0.52402821  0.91105852  1
  O  O125  1  0.57570665  0.85327028  0.92816827  1
  O  O126  1  0.57570665  0.14672972  0.42816827  1
  O  O127  1  0.56826131  0.47597179  0.41105852  1
  O  O128  1  0.56649797  0.81138895  0.40154586  1
  O  O129  1  0.45228684  0.15205105  0.09323270  1
  O  O130  1  0.44724091  0.48795054  0.07652898  1
  O  O131  1  0.44960233  0.82673068  0.06694065  1
  O  O132  1  0.94724091  0.01204946  0.57652898  1
  O  O133  1  0.95228684  0.34794895  0.59323270  1
  O  O134  1  0.94960233  0.67326932  0.56694065  1
  O  O135  1  0.06826131  0.02402821  0.91105852  1
  O  O136  1  0.07570665  0.35327028  0.92816827  1
  O  O137  1  0.06649797  0.68861105  0.90154586  1
  O  O138  1  0.06649797  0.31138895  0.40154586  1
  O  O139  1  0.07570665  0.64672972  0.42816827  1
  O  O140  1  0.06826131  0.97597179  0.41105852  1
  O  O141  1  0.94960233  0.32673068  0.06694065  1
  O  O142  1  0.95228684  0.65205105  0.09323270  1
  O  O143  1  0.94724091  0.98795054  0.07652898  1
  O  O144  1  0.24837064  0.26900399  0.73959022  1
  O  O145  1  0.25547714  0.60099243  0.75767809  1
  O  O146  1  0.25324517  0.93461634  0.75031038  1
  O  O147  1  0.73941483  0.28791542  0.74941055  1
  O  O148  1  0.73299799  0.61944034  0.74304325  1
  O  O149  1  0.73869832  0.95909196  0.74419040  1
  O  O150  1  0.73869832  0.04090804  0.24419040  1
  O  O151  1  0.73299799  0.38055966  0.24304325  1
  O  O152  1  0.73941483  0.71208458  0.24941055  1
  O  O153  1  0.25324517  0.06538366  0.25031038  1
  O  O154  1  0.25547714  0.39900757  0.25767809  1
  O  O155  1  0.24837064  0.73099601  0.23959022  1
  O  O156  1  0.75547714  0.10099243  0.75767809  1
  O  O157  1  0.75324517  0.43461634  0.75031038  1
  O  O158  1  0.74837064  0.76900399  0.73959022  1
  O  O159  1  0.23299799  0.11944034  0.74304325  1
  O  O160  1  0.23869832  0.45909196  0.74419040  1
  O  O161  1  0.23941483  0.78791542  0.74941055  1
  O  O162  1  0.23941483  0.21208458  0.24941055  1
  O  O163  1  0.23869832  0.54090804  0.24419040  1
  O  O164  1  0.23299799  0.88055966  0.24304325  1
  O  O165  1  0.74837064  0.23099601  0.23959022  1
  O  O166  1  0.75324517  0.56538366  0.25031038  1
  O  O167  1  0.75547714  0.89900757  0.25767809  1
  O  O168  1  0.32150663  0.27970344  0.55617510  1
  O  O169  1  0.33958671  0.60481488  0.59649945  1
  O  O170  1  0.34111437  0.93374526  0.59553596  1
  O  O171  1  0.63377968  0.28580026  0.91001698  1
  O  O172  1  0.63609939  0.62043136  0.91803305  1
  O  O173  1  0.63911734  0.95296825  0.91890321  1
  O  O174  1  0.63911734  0.04703175  0.41890321  1
  O  O175  1  0.63609939  0.37956864  0.41803305  1
  O  O176  1  0.63377968  0.71419974  0.41001698  1
  O  O177  1  0.34111437  0.06625474  0.09553596  1
  O  O178  1  0.33958671  0.39518512  0.09649945  1
  O  O179  1  0.32150663  0.72029656  0.05617510  1
  O  O180  1  0.83958671  0.10481488  0.59649945  1
  O  O181  1  0.84111437  0.43374526  0.59553596  1
  O  O182  1  0.82150663  0.77970344  0.55617510  1
  O  O183  1  0.13609939  0.12043136  0.91803305  1
  O  O184  1  0.13911734  0.45296825  0.91890321  1
  O  O185  1  0.13377968  0.78580026  0.91001698  1
  O  O186  1  0.13377968  0.21419974  0.41001698  1
  O  O187  1  0.13911734  0.54703175  0.41890321  1
  O  O188  1  0.13609939  0.87956864  0.41803305  1
  O  O189  1  0.82150663  0.22029656  0.05617510  1
  O  O190  1  0.84111437  0.56625474  0.09553596  1
  O  O191  1  0.83958671  0.89518512  0.09649945  1
  O  O192  1  0.45808162  0.27141260  0.91321589  1
  O  O193  1  0.46356157  0.60666323  0.94143116  1
  O  O194  1  0.46481458  0.93819174  0.93678275  1
  O  O195  1  0.54291044  0.29057961  0.56133521  1
  O  O196  1  0.53480297  0.62597987  0.56039220  1
  O  O197  1  0.53873750  0.95835839  0.56253299  1
  O  O198  1  0.53873750  0.04164161  0.06253299  1
  O  O199  1  0.53480297  0.37402013  0.06039220  1
  O  O200  1  0.54291044  0.70942039  0.06133521  1
  O  O201  1  0.46481458  0.06180826  0.43678275  1
  O  O202  1  0.46356157  0.39333677  0.44143116  1
  O  O203  1  0.45808162  0.72858740  0.41321589  1
  O  O204  1  0.96356157  0.10666323  0.94143116  1
  O  O205  1  0.96481458  0.43819174  0.93678275  1
  O  O206  1  0.95808162  0.77141260  0.91321589  1
  O  O207  1  0.03480297  0.12597987  0.56039220  1
  O  O208  1  0.03873750  0.45835839  0.56253299  1
  O  O209  1  0.04291044  0.79057961  0.56133521  1
  O  O210  1  0.04291044  0.20942039  0.06133521  1
  O  O211  1  0.03873750  0.54164161  0.06253299  1
  O  O212  1  0.03480297  0.87402013  0.06039220  1
  O  O213  1  0.95808162  0.22858740  0.41321589  1
  O  O214  1  0.96481458  0.56180826  0.43678275  1
  O  O215  1  0.96356157  0.89333677  0.44143116  1
  O  O216  1  0.09440791  0.28887142  0.75219481  1
  O  O217  1  0.10312652  0.62493812  0.75795104  1
  O  O218  1  0.09567004  0.95720743  0.75367627  1
  O  O219  1  0.94703056  0.28445700  0.76836546  1
  O  O220  1  0.95371654  0.61222276  0.76341354  1
  O  O221  1  0.94771753  0.95270345  0.77048057  1
  O  O222  1  0.94771753  0.04729655  0.27048057  1
  O  O223  1  0.95371654  0.38777724  0.26341354  1
  O  O224  1  0.94703056  0.71554300  0.26836546  1
  O  O225  1  0.09567004  0.04279257  0.25367627  1
  O  O226  1  0.10312652  0.37506188  0.25795104  1
  O  O227  1  0.09440791  0.71112858  0.25219481  1
  O  O228  1  0.60312652  0.12493812  0.75795104  1
  O  O229  1  0.59567004  0.45720743  0.75367627  1
  O  O230  1  0.59440791  0.78887142  0.75219481  1
  O  O231  1  0.45371654  0.11222276  0.76341354  1
  O  O232  1  0.44771753  0.45270345  0.77048057  1
  O  O233  1  0.44703056  0.78445700  0.76836546  1
  O  O234  1  0.44703056  0.21554300  0.26836546  1
  O  O235  1  0.44771753  0.54729655  0.27048057  1
  O  O236  1  0.45371654  0.88777724  0.26341354  1
  O  O237  1  0.59440791  0.21112858  0.25219481  1
  O  O238  1  0.59567004  0.54279257  0.25367627  1
  O  O239  1  0.60312652  0.87506188  0.25795104  1
