# generated using pymatgen
data_Na10Nb4Si11Ge4SO48
_symmetry_space_group_name_H-M   'P 1'
_cell_length_a   17.72916626
_cell_length_b   8.85818717
_cell_length_c   22.15071831
_cell_angle_alpha   90.27221561
_cell_angle_beta   90.20899447
_cell_angle_gamma   119.98851602
_symmetry_Int_Tables_number   1
_chemical_formula_structural   Na10Nb4Si11Ge4SO48
_chemical_formula_sum   'Na30 Nb12 Si33 Ge12 S3 O144'
_cell_volume   3012.91205966
_cell_formula_units_Z   3
loop_
 _symmetry_equiv_pos_site_id
 _symmetry_equiv_pos_as_xyz
  1  'x, y, z'
loop_
 _atom_site_type_symbol
 _atom_site_label
 _atom_site_symmetry_multiplicity
 _atom_site_fract_x
 _atom_site_fract_y
 _atom_site_fract_z
 _atom_site_occupancy
  Na  Na0  1  0.31614428  0.99988821  0.24952043  1
  Na  Na1  1  0.81610502  0.99987657  0.25036142  1
  Na  Na2  1  0.82184615  0.63912701  0.74939498  1
  Na  Na3  1  0.49549923  0.35503364  0.74795445  1
  Na  Na4  1  0.01721120  0.70192924  0.58571071  1
  Na  Na5  1  0.33086615  0.96772559  0.58542310  1
  Na  Na6  1  0.83469292  0.96544946  0.58420359  1
  Na  Na7  1  0.33191619  0.69883451  0.08736586  1
  Na  Na8  1  0.83308367  0.69974925  0.08849901  1
  Na  Na9  1  0.01792078  0.33355320  0.08735583  1
  Na  Na10  1  0.51519390  0.33110486  0.08728361  1
  Na  Na11  1  0.98578056  0.66456921  0.91247323  1
  Na  Na12  1  0.34685408  0.03306266  0.91607343  1
  Na  Na13  1  0.85444710  0.03669383  0.91475266  1
  Na  Na14  1  0.48250962  0.30135125  0.41236986  1
  Na  Na15  1  0.98300454  0.30113376  0.41147164  1
  Na  Na16  1  0.35101810  0.66691973  0.41256761  1
  Na  Na17  1  0.85051749  0.66794097  0.41245224  1
  Na  Na18  1  0.01028799  0.01007289  0.49906091  1
  Na  Na19  1  0.50946698  0.00121026  0.49789273  1
  Na  Na20  1  0.01200125  0.01179759  0.00088798  1
  Na  Na21  1  0.50722396  0.99715303  0.00210927  1
  Na  Na22  1  0.32587293  0.33903664  0.83040454  1
  Na  Na23  1  0.83221440  0.32533354  0.83298126  1
  Na  Na24  1  0.33195037  0.33995336  0.32747194  1
  Na  Na25  1  0.83156222  0.33961582  0.32716833  1
  Na  Na26  1  0.16243314  0.66100288  0.17193362  1
  Na  Na27  1  0.66152763  0.66050846  0.17327108  1
  Na  Na28  1  0.16671648  0.65729987  0.67341506  1
  Na  Na29  1  0.66238819  0.66876160  0.66386673  1
  Nb  Nb30  1  0.49714408  0.99454731  0.85406553  1
  Nb  Nb31  1  0.49748047  0.99607176  0.64458833  1
  Nb  Nb32  1  0.83877954  0.33470647  0.69139553  1
  Nb  Nb33  1  0.33122806  0.34278245  0.97928123  1
  Nb  Nb34  1  0.83261122  0.33609625  0.98104592  1
  Nb  Nb35  1  0.32886224  0.32631615  0.47729152  1
  Nb  Nb36  1  0.83294120  0.32850497  0.47675496  1
  Nb  Nb37  1  0.16552189  0.67009327  0.02175864  1
  Nb  Nb38  1  0.66721856  0.67003409  0.02420918  1
  Nb  Nb39  1  0.16666211  0.66190876  0.52037251  1
  Nb  Nb40  1  0.66126385  0.65973223  0.51927317  1
  Nb  Nb41  1  0.66693407  0.67412988  0.80952069  1
  Si  Si42  1  0.35526753  0.70776207  0.24947288  1
  Si  Si43  1  0.85556178  0.70870016  0.24938185  1
  Si  Si44  1  0.00151352  0.29142293  0.25044714  1
  Si  Si45  1  0.50147429  0.29134929  0.25041756  1
  Si  Si46  1  0.64604906  0.28706649  0.75046398  1
  Si  Si47  1  0.00872648  0.72652969  0.75177639  1
  Si  Si48  1  0.49183224  0.69812186  0.74771043  1
  Si  Si49  1  0.34487911  0.99314446  0.74953889  1
  Si  Si50  1  0.86476653  0.00443574  0.75037292  1
  Si  Si51  1  0.47703286  0.33677802  0.58530459  1
  Si  Si52  1  0.98167497  0.32584221  0.58484038  1
  Si  Si53  1  0.18811519  0.05307040  0.58851105  1
  Si  Si54  1  0.68736665  0.04636509  0.58391283  1
  Si  Si55  1  0.33146729  0.60931626  0.58643904  1
  Si  Si56  1  0.83398034  0.62462700  0.58513141  1
  Si  Si57  1  0.47895626  0.63271479  0.08849954  1
  Si  Si58  1  0.97958886  0.63369635  0.08816982  1
  Si  Si59  1  0.33283475  0.05304163  0.08834904  1
  Si  Si60  1  0.83386831  0.05169649  0.09013085  1
  Si  Si61  1  0.18820423  0.32157203  0.09029138  1
  Si  Si62  1  0.68817553  0.32008686  0.09057511  1
  Si  Si63  1  0.30358017  0.66081675  0.91204499  1
  Si  Si64  1  0.81353612  0.66873151  0.91531339  1
  Si  Si65  1  0.02834441  0.37808013  0.91153594  1
  Si  Si66  1  0.52174180  0.37804939  0.91667412  1
  Si  Si67  1  0.16437349  0.95811076  0.91290463  1
  Si  Si68  1  0.66445279  0.95803885  0.91781292  1
  Si  Si69  1  0.30762906  0.94839624  0.41020337  1
  Si  Si70  1  0.80712774  0.94675133  0.41098556  1
  Si  Si71  1  0.16256165  0.36792725  0.41120925  1
  Si  Si72  1  0.66310253  0.36761229  0.41171352  1
  Si  Si73  1  0.02870288  0.68007798  0.41096089  1
  Si  Si74  1  0.52655315  0.67795849  0.40909256  1
  Ge  Ge75  1  0.99337187  0.99375373  0.35289661  1
  Ge  Ge76  1  0.49361080  0.99413083  0.35254615  1
  Ge  Ge77  1  0.99940339  0.99910130  0.85531507  1
  Ge  Ge78  1  0.00105089  0.99285022  0.64629258  1
  Ge  Ge79  1  0.99710290  0.00609280  0.14753561  1
  Ge  Ge80  1  0.49563775  0.00506733  0.14738257  1
  Ge  Ge81  1  0.33658656  0.33160340  0.68549409  1
  Ge  Ge82  1  0.34473424  0.35420560  0.18655565  1
  Ge  Ge83  1  0.84466541  0.35445139  0.18703014  1
  Ge  Ge84  1  0.16715693  0.64656665  0.31293311  1
  Ge  Ge85  1  0.66728480  0.64595186  0.31325782  1
  Ge  Ge86  1  0.16726878  0.68305044  0.81401025  1
  S  S87  1  0.14056446  0.99980537  0.25026258  1
  S  S88  1  0.64088907  0.00043005  0.24998679  1
  S  S89  1  0.14186633  0.28286811  0.74998116  1
  O  O90  1  0.09958347  0.02439999  0.30542576  1
  O  O91  1  0.60018038  0.02480585  0.30521260  1
  O  O92  1  0.41437994  0.79522157  0.31067719  1
  O  O93  1  0.91448970  0.79527496  0.31072959  1
  O  O94  1  0.48044886  0.16190395  0.30917327  1
  O  O95  1  0.98043046  0.16208394  0.30923806  1
  O  O96  1  0.10204777  0.17523370  0.80507703  1
  O  O97  1  0.59696892  0.16721835  0.80861629  1
  O  O98  1  0.48156163  0.79587631  0.80725327  1
  O  O99  1  0.98390131  0.80809839  0.81007981  1
  O  O100  1  0.41229536  0.03614559  0.80778995  1
  O  O101  1  0.91812960  0.02919889  0.81268003  1
  O  O102  1  0.39499458  0.97093575  0.68994466  1
  O  O103  1  0.90514618  0.96407807  0.69036594  1
  O  O104  1  0.08708532  0.20063883  0.69422698  1
  O  O105  1  0.58144389  0.19737451  0.69263635  1
  O  O106  1  0.01928952  0.83366146  0.68926114  1
  O  O107  1  0.51094469  0.82662015  0.69066119  1
  O  O108  1  0.39894015  0.83787800  0.19093743  1
  O  O109  1  0.89930409  0.83831069  0.19073908  1
  O  O110  1  0.01649516  0.20440618  0.18945866  1
  O  O111  1  0.51693331  0.20450153  0.18934298  1
  O  O112  1  0.08728785  0.97484104  0.19473959  1
  O  O113  1  0.58777628  0.97603004  0.19452707  1
  O  O114  1  0.43635088  0.36603666  0.64676750  1
  O  O115  1  0.93470875  0.36787504  0.64084776  1
  O  O116  1  0.25636182  0.13700144  0.64403727  1
  O  O117  1  0.75228310  0.14009721  0.64174677  1
  O  O118  1  0.31629138  0.48787545  0.64405844  1
  O  O119  1  0.82042270  0.50769364  0.64487654  1
  O  O120  1  0.44052785  0.49678316  0.14403448  1
  O  O121  1  0.93850605  0.49489206  0.14268756  1
  O  O122  1  0.31742396  0.14079959  0.14819911  1
  O  O123  1  0.81723642  0.14155555  0.14846148  1
  O  O124  1  0.25905192  0.37449333  0.14450646  1
  O  O125  1  0.75916584  0.37375172  0.14438844  1
  O  O126  1  0.23234735  0.29632788  0.02806114  1
  O  O127  1  0.73465414  0.29787945  0.02800493  1
  O  O128  1  0.41522429  0.54327512  0.02868553  1
  O  O129  1  0.91882881  0.54720226  0.02618690  1
  O  O130  1  0.35172088  0.17162394  0.02716963  1
  O  O131  1  0.85193568  0.16986775  0.02816908  1
  O  O132  1  0.23327521  0.16811128  0.52696310  1
  O  O133  1  0.73748401  0.16727961  0.52507840  1
  O  O134  1  0.34565394  0.52915691  0.52328250  1
  O  O135  1  0.85225548  0.53531315  0.52551797  1
  O  O136  1  0.41688895  0.30301146  0.52449524  1
  O  O137  1  0.92037362  0.29143423  0.52416810  1
  O  O138  1  0.26514003  0.69945369  0.97476267  1
  O  O139  1  0.76928426  0.70054091  0.97545570  1
  O  O140  1  0.08226216  0.46245770  0.97544899  1
  O  O141  1  0.58139327  0.46947189  0.97695757  1
  O  O142  1  0.14490966  0.82814312  0.97201314  1
  O  O143  1  0.65537266  0.83767974  0.97598827  1
  O  O144  1  0.26677019  0.83112812  0.47218939  1
  O  O145  1  0.76678221  0.82898541  0.47221983  1
  O  O146  1  0.14538225  0.46049470  0.47131839  1
  O  O147  1  0.64430283  0.45805093  0.47137033  1
  O  O148  1  0.08263399  0.70299735  0.47508554  1
  O  O149  1  0.58424659  0.70392177  0.47170953  1
  O  O150  1  0.07258505  0.62655464  0.35696031  1
  O  O151  1  0.57169577  0.62562629  0.35559357  1
  O  O152  1  0.24684956  0.85853346  0.35134296  1
  O  O153  1  0.74702175  0.85885623  0.35142485  1
  O  O154  1  0.19157465  0.50488166  0.35620342  1
  O  O155  1  0.69248963  0.50449383  0.35636254  1
  O  O156  1  0.06989168  0.51552213  0.85673763  1
  O  O157  1  0.56917599  0.49630564  0.85705295  1
  O  O158  1  0.19038844  0.87689040  0.85682539  1
  O  O159  1  0.68279056  0.86778128  0.85887458  1
  O  O160  1  0.24268754  0.63196452  0.85444094  1
  O  O161  1  0.75397953  0.64023516  0.85546634  1
  O  O162  1  0.01266120  0.84587885  0.40647651  1
  O  O163  1  0.51266473  0.84640201  0.40563636  1
  O  O164  1  0.40560539  0.96964847  0.40856870  1
  O  O165  1  0.90564859  0.97003117  0.40863621  1
  O  O166  1  0.07379686  0.18020405  0.40524101  1
  O  O167  1  0.57441955  0.17998553  0.40475624  1
  O  O168  1  0.01448545  0.18158993  0.90726804  1
  O  O169  1  0.50810102  0.18232980  0.91293057  1
  O  O170  1  0.07616037  0.97037404  0.90699544  1
  O  O171  1  0.57833407  0.97351143  0.91372211  1
  O  O172  1  0.39947215  0.83854612  0.90904570  1
  O  O173  1  0.90985939  0.84464335  0.91178727  1
  O  O174  1  0.48155974  0.15696463  0.58719964  1
  O  O175  1  0.98665494  0.15002741  0.59366385  1
  O  O176  1  0.09050730  0.02496155  0.59280808  1
  O  O177  1  0.59240710  0.02747647  0.58729944  1
  O  O178  1  0.41472634  0.80884318  0.58846795  1
  O  O179  1  0.92323637  0.81670242  0.58936521  1
  O  O180  1  0.48438554  0.82073025  0.09535529  1
  O  O181  1  0.98419820  0.82061121  0.09502290  1
  O  O182  1  0.42010174  0.02972303  0.09136997  1
  O  O183  1  0.92143955  0.03162750  0.09145640  1
  O  O184  1  0.08963224  0.15470476  0.09441508  1
  O  O185  1  0.58955980  0.15455669  0.09386666  1
  O  O186  1  0.34246709  0.17659765  0.74423252  1
  O  O187  1  0.85206657  0.17437104  0.74631782  1
  O  O188  1  0.22901958  0.29826608  0.74522126  1
  O  O189  1  0.74390586  0.31655608  0.74818786  1
  O  O190  1  0.40636870  0.50347958  0.74422678  1
  O  O191  1  0.91798799  0.53291388  0.74605330  1
  O  O192  1  0.34625531  0.51387337  0.24361712  1
  O  O193  1  0.84639553  0.51452504  0.24355295  1
  O  O194  1  0.40928469  0.29937784  0.24522498  1
  O  O195  1  0.90932915  0.29991759  0.24515871  1
  O  O196  1  0.22959365  0.15659877  0.24778470  1
  O  O197  1  0.73016731  0.15738361  0.24763613  1
  O  O198  1  0.31700028  0.49336197  0.92002832  1
  O  O199  1  0.82665332  0.49935732  0.91987898  1
  O  O200  1  0.42475199  0.35488938  0.92148729  1
  O  O201  1  0.92999126  0.35616964  0.92163020  1
  O  O202  1  0.25226171  0.14565798  0.92301084  1
  O  O203  1  0.75565165  0.14450627  0.92212091  1
  O  O204  1  0.32278752  0.14569938  0.41791911  1
  O  O205  1  0.82367633  0.14629126  0.41814238  1
  O  O206  1  0.25088453  0.35625220  0.41975194  1
  O  O207  1  0.75263971  0.35897414  0.42169524  1
  O  O208  1  0.42922509  0.50215631  0.41944779  1
  O  O209  1  0.93082406  0.50256144  0.42046373  1
  O  O210  1  0.17855386  0.49790504  0.08001149  1
  O  O211  1  0.67985501  0.49738214  0.08000678  1
  O  O212  1  0.07272948  0.64141644  0.07956249  1
  O  O213  1  0.57323301  0.64285404  0.07963542  1
  O  O214  1  0.24958358  0.85412105  0.08037160  1
  O  O215  1  0.75107886  0.85305818  0.08281314  1
  O  O216  1  0.17943549  0.85901849  0.57846911  1
  O  O217  1  0.68384448  0.85963810  0.57750871  1
  O  O218  1  0.24809260  0.64257763  0.57908013  1
  O  O219  1  0.75042451  0.65219572  0.57822823  1
  O  O220  1  0.07341675  0.50744771  0.57923842  1
  O  O221  1  0.57355310  0.50729754  0.57900969  1
  O  O222  1  0.15083975  0.84198230  0.25268149  1
  O  O223  1  0.65147333  0.84282643  0.25240700  1
  O  O224  1  0.25912843  0.69993200  0.25465341  1
  O  O225  1  0.75935054  0.70030789  0.25459019  1
  O  O226  1  0.08879744  0.48614053  0.25639170  1
  O  O227  1  0.58925637  0.48556898  0.25638453  1
  O  O228  1  0.14895065  0.45682263  0.75401134  1
  O  O229  1  0.65470279  0.48036738  0.75307621  1
  O  O230  1  0.09078408  0.69388040  0.75746295  1
  O  O231  1  0.57945924  0.67816276  0.75300955  1
  O  O232  1  0.25341057  0.81202829  0.75558719  1
  O  O233  1  0.76610824  0.82907814  0.75374796  1
