# generated using pymatgen
data_KNb3O8
_symmetry_space_group_name_H-M   'P 1'
_cell_length_a   10.89336724
_cell_length_b   10.89336500
_cell_length_c   9.00217309
_cell_angle_alpha   90.00005411
_cell_angle_beta   89.99994370
_cell_angle_gamma   159.75307109
_symmetry_Int_Tables_number   1
_chemical_formula_structural   KNb3O8
_chemical_formula_sum   'K2 Nb6 O16'
_cell_volume   369.68468373
_cell_formula_units_Z   2
loop_
 _symmetry_equiv_pos_site_id
 _symmetry_equiv_pos_as_xyz
  1  'x, y, z'
loop_
 _atom_site_type_symbol
 _atom_site_label
 _atom_site_symmetry_multiplicity
 _atom_site_fract_x
 _atom_site_fract_y
 _atom_site_fract_z
 _atom_site_occupancy
  K  K0  1  0.98430024  0.01567070  0.75000356  1
  K  K1  1  0.01569213  0.98430975  0.25000504  1
  Nb  Nb2  1  0.24170215  0.75829885  0.75000082  1
  Nb  Nb3  1  0.75830102  0.24170029  0.24999957  1
  Nb  Nb4  1  0.63096959  0.36903565  0.55838389  1
  Nb  Nb5  1  0.36903451  0.63096984  0.44160785  1
  Nb  Nb6  1  0.36903064  0.63096840  0.05839147  1
  Nb  Nb7  1  0.63096673  0.36903219  0.94161480  1
  O  O8  1  0.58507884  0.41492456  0.74999915  1
  O  O9  1  0.41492480  0.58507597  0.25000233  1
  O  O10  1  0.71406581  0.28593818  0.74999792  1
  O  O11  1  0.28594107  0.71406176  0.24999871  1
  O  O12  1  0.70397932  0.29602301  0.40705279  1
  O  O13  1  0.29602446  0.70397650  0.59293996  1
  O  O14  1  0.29602545  0.70397835  0.90706093  1
  O  O15  1  0.70397838  0.29602110  0.09294315  1
  O  O16  1  0.84347370  0.15653127  0.40751248  1
  O  O17  1  0.15652960  0.84347430  0.59247927  1
  O  O18  1  0.15652841  0.84347304  0.90751915  1
  O  O19  1  0.84347132  0.15653061  0.09248867  1
  O  O20  1  0.56761155  0.43238839  0.06743704  1
  O  O21  1  0.43238140  0.56761713  0.93257934  1
  O  O22  1  0.43237609  0.56761154  0.56741880  1
  O  O23  1  0.56761280  0.43238961  0.43256233  1
