# generated using pymatgen
data_Na4TiGaSi2PO12
_symmetry_space_group_name_H-M   'P 1'
_cell_length_a   8.93455495
_cell_length_b   8.93455464
_cell_length_c   21.88412643
_cell_angle_alpha   90.02223881
_cell_angle_beta   89.97776119
_cell_angle_gamma   119.62837832
_symmetry_Int_Tables_number   1
_chemical_formula_structural   Na4TiGaSi2PO12
_chemical_formula_sum   'Na24 Ti6 Ga6 Si12 P6 O72'
_cell_volume   1518.51746770
_cell_formula_units_Z   6
loop_
 _symmetry_equiv_pos_site_id
 _symmetry_equiv_pos_as_xyz
  1  'x, y, z'
loop_
 _atom_site_type_symbol
 _atom_site_label
 _atom_site_symmetry_multiplicity
 _atom_site_fract_x
 _atom_site_fract_y
 _atom_site_fract_z
 _atom_site_occupancy
  Na  Na0  1  0.63659792  0.00379958  0.25020193  1
  Na  Na1  1  0.37134012  0.36902507  0.24708882  1
  Na  Na2  1  0.99221294  0.62641445  0.24936466  1
  Na  Na3  1  0.63097493  0.62865988  0.74708882  1
  Na  Na4  1  0.99620042  0.36340208  0.75020193  1
  Na  Na5  1  0.37358555  0.00778706  0.74936466  1
  Na  Na6  1  0.30326492  0.33713258  0.58353493  1
  Na  Na7  1  0.03800712  0.70235807  0.58042182  1
  Na  Na8  1  0.65887994  0.95974745  0.58269766  1
  Na  Na9  1  0.29764193  0.96199288  0.08042182  1
  Na  Na10  1  0.66286742  0.69673508  0.08353493  1
  Na  Na11  1  0.04025255  0.34112006  0.08269766  1
  Na  Na12  1  0.96993092  0.67046658  0.91686893  1
  Na  Na13  1  0.70467312  0.03569207  0.91375582  1
  Na  Na14  1  0.32554594  0.29308145  0.91603166  1
  Na  Na15  1  0.96430793  0.29532688  0.41375582  1
  Na  Na16  1  0.32953342  0.03006908  0.41686893  1
  Na  Na17  1  0.70691855  0.67445406  0.41603166  1
  Na  Na18  1  0.99738783  0.99493727  0.49810892  1
  Na  Na19  1  0.00506273  0.00261217  0.99810892  1
  Na  Na20  1  0.66405483  0.32827027  0.83144192  1
  Na  Na21  1  0.67172973  0.33594517  0.33144192  1
  Na  Na22  1  0.33072083  0.66160427  0.16477592  1
  Na  Na23  1  0.33839573  0.66927917  0.66477592  1
  Ti  Ti24  1  0.99821966  0.00042491  0.64781730  1
  Ti  Ti25  1  0.99957509  0.00178034  0.14781730  1
  Ti  Ti26  1  0.66488666  0.33375791  0.98115030  1
  Ti  Ti27  1  0.66624209  0.33511334  0.48115030  1
  Ti  Ti28  1  0.33155266  0.66709191  0.31448430  1
  Ti  Ti29  1  0.33290809  0.66844734  0.81448430  1
  Ga  Ga30  1  0.98853660  0.99152848  0.35073863  1
  Ga  Ga31  1  0.00847152  0.01146340  0.85073863  1
  Ga  Ga32  1  0.65520360  0.32486148  0.68407163  1
  Ga  Ga33  1  0.67513852  0.34479640  0.18407163  1
  Ga  Ga34  1  0.32186960  0.65819548  0.01740563  1
  Ga  Ga35  1  0.34180452  0.67813040  0.51740563  1
  Si  Si36  1  0.70749135  0.70633010  0.25053791  1
  Si  Si37  1  0.99763095  0.29004154  0.25110391  1
  Si  Si38  1  0.29366990  0.29250865  0.75053791  1
  Si  Si39  1  0.70995846  0.00236905  0.75110391  1
  Si  Si40  1  0.37415835  0.03966310  0.58387091  1
  Si  Si41  1  0.66429795  0.62337454  0.58443691  1
  Si  Si42  1  0.96033690  0.62584165  0.08387091  1
  Si  Si43  1  0.37662546  0.33570205  0.08443691  1
  Si  Si44  1  0.04082435  0.37299710  0.91720491  1
  Si  Si45  1  0.33096395  0.95670854  0.91777091  1
  Si  Si46  1  0.62700290  0.95917565  0.41720491  1
  Si  Si47  1  0.04329146  0.66903605  0.41777091  1
  P  P48  1  0.28930286  0.00100085  0.25096053  1
  P  P49  1  0.99899915  0.71069714  0.75096053  1
  P  P50  1  0.95596986  0.33433385  0.58429353  1
  P  P51  1  0.66566615  0.04403014  0.08429353  1
  P  P52  1  0.62263586  0.66766785  0.91762753  1
  P  P53  1  0.33233215  0.37736414  0.41762753  1
  O  O54  1  0.20971430  0.03467767  0.30828992  1
  O  O55  1  0.82965244  0.78652640  0.31022981  1
  O  O56  1  0.96665380  0.17096124  0.31106861  1
  O  O57  1  0.21347360  0.17034756  0.81022981  1
  O  O58  1  0.96532233  0.79028570  0.80828992  1
  O  O59  1  0.82903876  0.03334620  0.81106861  1
  O  O60  1  0.80193062  0.96619728  0.69089322  1
  O  O61  1  0.16434791  0.19733050  0.69111560  1
  O  O62  1  0.03087047  0.82806104  0.69360212  1
  O  O63  1  0.80266950  0.83565209  0.19111560  1
  O  O64  1  0.03380272  0.19806938  0.19089322  1
  O  O65  1  0.17193896  0.96912953  0.19360212  1
  O  O66  1  0.87638130  0.36801067  0.64162292  1
  O  O67  1  0.49631944  0.11985940  0.64356281  1
  O  O68  1  0.63332080  0.50429424  0.64440161  1
  O  O69  1  0.88014060  0.50368056  0.14356281  1
  O  O70  1  0.63198933  0.12361870  0.14162292  1
  O  O71  1  0.49570576  0.36667920  0.14440161  1
  O  O72  1  0.46859762  0.29953028  0.02422622  1
  O  O73  1  0.83101491  0.53066350  0.02444860  1
  O  O74  1  0.69753747  0.16139404  0.02693512  1
  O  O75  1  0.46933650  0.16898509  0.52444860  1
  O  O76  1  0.70046972  0.53140238  0.52422622  1
  O  O77  1  0.83860596  0.30246253  0.52693512  1
  O  O78  1  0.54304730  0.70134467  0.97495692  1
  O  O79  1  0.16298544  0.45319340  0.97689681  1
  O  O80  1  0.29998680  0.83762824  0.97773561  1
  O  O81  1  0.54680660  0.83701456  0.47689681  1
  O  O82  1  0.29865533  0.45695270  0.47495692  1
  O  O83  1  0.16237176  0.70001320  0.47773561  1
  O  O84  1  0.13526362  0.63286428  0.35756022  1
  O  O85  1  0.49768091  0.86399750  0.35778260  1
  O  O86  1  0.36420347  0.49472804  0.36026912  1
  O  O87  1  0.13600250  0.50231909  0.85778260  1
  O  O88  1  0.36713572  0.86473638  0.85756022  1
  O  O89  1  0.50527196  0.63579653  0.86026912  1
  O  O90  1  0.02826644  0.84359606  0.41127563  1
  O  O91  1  0.82020626  0.98331991  0.41213497  1
  O  O92  1  0.17531352  0.19546911  0.41110702  1
  O  O93  1  0.01668009  0.17979374  0.91213497  1
  O  O94  1  0.15640394  0.97173356  0.91127563  1
  O  O95  1  0.80453089  0.82468648  0.91110702  1
  O  O96  1  0.96943093  0.16636098  0.58787209  1
  O  O97  1  0.18342859  0.02680912  0.58833438  1
  O  O98  1  0.83956886  0.81529280  0.58815401  1
  O  O99  1  0.97319088  0.81657141  0.08833438  1
  O  O100  1  0.83363902  0.03056907  0.08787209  1
  O  O101  1  0.18470720  0.16043114  0.08815401  1
  O  O102  1  0.69493344  0.17692906  0.74460863  1
  O  O103  1  0.48687326  0.31665291  0.74546797  1
  O  O104  1  0.84198052  0.52880211  0.74444002  1
  O  O105  1  0.68334709  0.51312674  0.24546797  1
  O  O106  1  0.82307094  0.30506656  0.24460863  1
  O  O107  1  0.47119789  0.15801948  0.24444002  1
  O  O108  1  0.63609793  0.49969398  0.92120509  1
  O  O109  1  0.85009559  0.36014212  0.92166738  1
  O  O110  1  0.50623586  0.14862580  0.92148701  1
  O  O111  1  0.63985788  0.14990441  0.42166738  1
  O  O112  1  0.50030602  0.36390207  0.42120509  1
  O  O113  1  0.85137420  0.49376414  0.42148701  1
  O  O114  1  0.36159944  0.51026306  0.07794263  1
  O  O115  1  0.15353926  0.64998691  0.07880197  1
  O  O116  1  0.50864652  0.86213611  0.07777402  1
  O  O117  1  0.35001309  0.84646074  0.57880197  1
  O  O118  1  0.48973694  0.63840056  0.57794263  1
  O  O119  1  0.13786389  0.49135348  0.57777402  1
  O  O120  1  0.30276393  0.83302798  0.25453909  1
  O  O121  1  0.51676159  0.69347612  0.25500138  1
  O  O122  1  0.17290186  0.48195980  0.25482101  1
  O  O123  1  0.30652388  0.48323841  0.75500138  1
  O  O124  1  0.16697202  0.69723607  0.75453909  1
  O  O125  1  0.51804020  0.82709814  0.75482101  1
