# generated using pymatgen
data_NaLaSnP2SO12
_symmetry_space_group_name_H-M   'P 1'
_cell_length_a   9.16137524
_cell_length_b   9.21764020
_cell_length_c   23.34786223
_cell_angle_alpha   88.57712687
_cell_angle_beta   90.00000000
_cell_angle_gamma   119.79828415
_symmetry_Int_Tables_number   1
_chemical_formula_structural   NaLaSnP2SO12
_chemical_formula_sum   'Na6 La6 Sn6 P12 S6 O72'
_cell_volume   1710.24951995
_cell_formula_units_Z   6
loop_
 _symmetry_equiv_pos_site_id
 _symmetry_equiv_pos_as_xyz
  1  'x, y, z'
loop_
 _atom_site_type_symbol
 _atom_site_label
 _atom_site_symmetry_multiplicity
 _atom_site_fract_x
 _atom_site_fract_y
 _atom_site_fract_z
 _atom_site_occupancy
  Na  Na0  1  0.97010248  0.97778086  0.49305123  1
  Na  Na1  1  0.00767839  0.97778086  0.99305123  1
  Na  Na2  1  0.63676948  0.31111386  0.82638423  1
  Na  Na3  1  0.67434539  0.31111386  0.32638423  1
  Na  Na4  1  0.30343548  0.64444786  0.15971823  1
  Na  Na5  1  0.34101139  0.64444786  0.65971823  1
  La  La6  1  0.99366962  0.00434586  0.64034592  1
  La  La7  1  0.01067623  0.00434586  0.14034592  1
  La  La8  1  0.66033662  0.33767886  0.97367892  1
  La  La9  1  0.67734323  0.33767886  0.47367892  1
  La  La10  1  0.32700262  0.67101286  0.30701292  1
  La  La11  1  0.34400923  0.67101286  0.80701292  1
  Sn  Sn12  1  0.00280285  0.00472550  0.35049292  1
  Sn  Sn13  1  0.00192265  0.00472550  0.85049292  1
  Sn  Sn14  1  0.66946985  0.33805850  0.68382592  1
  Sn  Sn15  1  0.66858965  0.33805850  0.18382592  1
  Sn  Sn16  1  0.33613585  0.67139250  0.01715992  1
  Sn  Sn17  1  0.33525565  0.67139250  0.51715992  1
  P  P18  1  0.31246699  0.03757443  0.25074322  1
  P  P19  1  0.97204195  0.27650992  0.24873621  1
  P  P20  1  0.30446796  0.27650992  0.74873621  1
  P  P21  1  0.72510744  0.03757443  0.75074322  1
  P  P22  1  0.97913399  0.37090743  0.58407622  1
  P  P23  1  0.63870895  0.60984292  0.58206921  1
  P  P24  1  0.97113496  0.60984292  0.08206921  1
  P  P25  1  0.39177444  0.37090743  0.08407622  1
  P  P26  1  0.64579999  0.70424143  0.91741022  1
  P  P27  1  0.30537495  0.94317692  0.91540321  1
  P  P28  1  0.63780096  0.94317692  0.41540321  1
  P  P29  1  0.05844044  0.70424143  0.41741022  1
  S  S30  1  0.72152302  0.68886128  0.25156235  1
  S  S31  1  0.96733825  0.68886128  0.75156235  1
  S  S32  1  0.38819002  0.02219428  0.58489535  1
  S  S33  1  0.63400525  0.02219428  0.08489535  1
  S  S34  1  0.05485602  0.35552828  0.91822935  1
  S  S35  1  0.30067125  0.35552828  0.41822935  1
  O  O36  1  0.21897199  0.04749649  0.30634484  1
  O  O37  1  0.81923159  0.77680019  0.30403710  1
  O  O38  1  0.95407643  0.17504977  0.30639036  1
  O  O39  1  0.22097333  0.17504977  0.80639036  1
  O  O40  1  0.95756860  0.77680019  0.80403710  1
  O  O41  1  0.82852450  0.04749649  0.80634484  1
  O  O42  1  0.80276652  0.01285970  0.69737294  1
  O  O43  1  0.20411795  0.18777725  0.69703268  1
  O  O44  1  0.98883597  0.78548962  0.69863532  1
  O  O45  1  0.79665365  0.78548962  0.19863532  1
  O  O46  1  0.98365931  0.18777725  0.19703268  1
  O  O47  1  0.21009318  0.01285970  0.19737294  1
  O  O48  1  0.88563899  0.38082949  0.63967784  1
  O  O49  1  0.48589859  0.11013319  0.63737010  1
  O  O50  1  0.62074343  0.50838277  0.63972336  1
  O  O51  1  0.88764033  0.50838277  0.13972336  1
  O  O52  1  0.62423560  0.11013319  0.13737010  1
  O  O53  1  0.49519150  0.38082949  0.13967784  1
  O  O54  1  0.46943352  0.34619270  0.03070594  1
  O  O55  1  0.87078495  0.52111025  0.03036568  1
  O  O56  1  0.65550297  0.11882262  0.03196832  1
  O  O57  1  0.46332065  0.11882262  0.53196832  1
  O  O58  1  0.65032631  0.52111025  0.53036568  1
  O  O59  1  0.87676018  0.34619270  0.53070594  1
  O  O60  1  0.55230499  0.71416349  0.97301184  1
  O  O61  1  0.15256459  0.44346719  0.97070410  1
  O  O62  1  0.28740943  0.84171677  0.97305736  1
  O  O63  1  0.55430633  0.84171677  0.47305736  1
  O  O64  1  0.29090160  0.44346719  0.47070410  1
  O  O65  1  0.16185750  0.71416349  0.47301184  1
  O  O66  1  0.13609952  0.67952670  0.36403994  1
  O  O67  1  0.53745095  0.85444425  0.36369968  1
  O  O68  1  0.32216897  0.45215662  0.36530232  1
  O  O69  1  0.12998665  0.45215662  0.86530232  1
  O  O70  1  0.31699231  0.85444425  0.86369968  1
  O  O71  1  0.54342618  0.67952670  0.86403994  1
  O  O72  1  0.06168058  0.87744117  0.41364585  1
  O  O73  1  0.81474627  0.95191505  0.41252786  1
  O  O74  1  0.13419138  0.19354492  0.41670288  1
  O  O75  1  0.05935354  0.19354492  0.91670288  1
  O  O76  1  0.13716878  0.95191505  0.91252786  1
  O  O77  1  0.81576058  0.87744117  0.91364585  1
  O  O78  1  0.02231039  0.23082388  0.58886267  1
  O  O79  1  0.21201083  0.98302621  0.58919266  1
  O  O80  1  0.78899306  0.78797791  0.58432299  1
  O  O81  1  0.99898485  0.78797791  0.08432299  1
  O  O82  1  0.77101538  0.98302621  0.08919266  1
  O  O83  1  0.20851350  0.23082388  0.08886267  1
  O  O84  1  0.72834758  0.21077417  0.74697885  1
  O  O85  1  0.48141327  0.28524805  0.74586086  1
  O  O86  1  0.80085838  0.52687792  0.75003588  1
  O  O87  1  0.72602054  0.52687792  0.25003588  1
  O  O88  1  0.80383578  0.28524805  0.24586086  1
  O  O89  1  0.48242758  0.21077417  0.24697885  1
  O  O90  1  0.68897739  0.56415688  0.92219567  1
  O  O91  1  0.87867783  0.31635921  0.92252566  1
  O  O92  1  0.45566006  0.12131091  0.91765599  1
  O  O93  1  0.66565185  0.12131091  0.41765599  1
  O  O94  1  0.43768238  0.31635921  0.42252566  1
  O  O95  1  0.87518050  0.56415688  0.42219567  1
  O  O96  1  0.39501358  0.54410817  0.08031285  1
  O  O97  1  0.14807927  0.61858205  0.07919486  1
  O  O98  1  0.46752438  0.86021192  0.08336988  1
  O  O99  1  0.39268654  0.86021192  0.58336988  1
  O  O100  1  0.47050178  0.61858205  0.57919486  1
  O  O101  1  0.14909358  0.54410817  0.58031285  1
  O  O102  1  0.35564339  0.89749088  0.25552967  1
  O  O103  1  0.54534383  0.64969321  0.25585966  1
  O  O104  1  0.12232606  0.45464491  0.25098999  1
  O  O105  1  0.33231785  0.45464491  0.75098999  1
  O  O106  1  0.10434838  0.64969321  0.75585966  1
  O  O107  1  0.54184650  0.89749088  0.75552967  1
