# generated using pymatgen
data_IrS2
_symmetry_space_group_name_H-M   'P 1'
_cell_length_a   3.58569476
_cell_length_b   5.66252955
_cell_length_c   19.96275345
_cell_angle_alpha   90.00000000
_cell_angle_beta   90.00000000
_cell_angle_gamma   90.00000000
_symmetry_Int_Tables_number   1
_chemical_formula_structural   IrS2
_chemical_formula_sum   'Ir8 S16'
_cell_volume   405.32579295
_cell_formula_units_Z   8
loop_
 _symmetry_equiv_pos_site_id
 _symmetry_equiv_pos_as_xyz
  1  'x, y, z'
loop_
 _atom_site_type_symbol
 _atom_site_label
 _atom_site_symmetry_multiplicity
 _atom_site_fract_x
 _atom_site_fract_y
 _atom_site_fract_z
 _atom_site_occupancy
  Ir  Ir0  1  0.25000000  0.94104573  0.80391746  1
  Ir  Ir1  1  0.75000000  0.05895427  0.19608254  1
  Ir  Ir2  1  0.75000000  0.44104573  0.69608254  1
  Ir  Ir3  1  0.25000000  0.55895427  0.30391746  1
  Ir  Ir4  1  0.25000000  0.92657031  0.57730613  1
  Ir  Ir5  1  0.75000000  0.07342969  0.42269387  1
  Ir  Ir6  1  0.75000000  0.42657031  0.92269387  1
  Ir  Ir7  1  0.25000000  0.57342969  0.07730613  1
  S  S8  1  0.25000000  0.22292644  0.49136998  1
  S  S9  1  0.75000000  0.77707356  0.50863002  1
  S  S10  1  0.75000000  0.72292644  0.00863002  1
  S  S11  1  0.25000000  0.27707356  0.99136998  1
  S  S12  1  0.25000000  0.17863762  0.26353290  1
  S  S13  1  0.75000000  0.82136238  0.73646710  1
  S  S14  1  0.75000000  0.67863762  0.23646710  1
  S  S15  1  0.25000000  0.32136238  0.76353290  1
  S  S16  1  0.25000000  0.93695433  0.35884653  1
  S  S17  1  0.75000000  0.06304567  0.64115347  1
  S  S18  1  0.75000000  0.43695433  0.14115347  1
  S  S19  1  0.25000000  0.56304567  0.85884653  1
  S  S20  1  0.25000000  0.54604613  0.62342836  1
  S  S21  1  0.75000000  0.45395387  0.37657164  1
  S  S22  1  0.75000000  0.04604613  0.87657164  1
  S  S23  1  0.25000000  0.95395387  0.12342836  1
