# generated using pymatgen
data_Na14Si11Sn8SO48
_symmetry_space_group_name_H-M   'P 1'
_cell_length_a   18.16643807
_cell_length_b   9.08670199
_cell_length_c   22.58372972
_cell_angle_alpha   90.15095592
_cell_angle_beta   90.10244168
_cell_angle_gamma   120.01476908
_symmetry_Int_Tables_number   1
_chemical_formula_structural   Na14Si11Sn8SO48
_chemical_formula_sum   'Na42 Si33 Sn24 S3 O144'
_cell_volume   3227.99916317
_cell_formula_units_Z   3
loop_
 _symmetry_equiv_pos_site_id
 _symmetry_equiv_pos_as_xyz
  1  'x, y, z'
loop_
 _atom_site_type_symbol
 _atom_site_label
 _atom_site_symmetry_multiplicity
 _atom_site_fract_x
 _atom_site_fract_y
 _atom_site_fract_z
 _atom_site_occupancy
  Na  Na0  1  0.32070206  0.99997232  0.24996372  1
  Na  Na1  1  0.82060788  0.99993398  0.25000547  1
  Na  Na2  1  0.32022202  0.64112917  0.75041943  1
  Na  Na3  1  0.81701825  0.63305013  0.74964371  1
  Na  Na4  1  0.50079188  0.36503502  0.75061616  1
  Na  Na5  1  0.68500050  0.00175858  0.74957735  1
  Na  Na6  1  0.15036727  0.33498944  0.58039781  1
  Na  Na7  1  0.65023650  0.33296889  0.58387489  1
  Na  Na8  1  0.01627678  0.69622869  0.58388097  1
  Na  Na9  1  0.51783888  0.70204464  0.58299292  1
  Na  Na10  1  0.33300880  0.96485864  0.58360639  1
  Na  Na11  1  0.83226782  0.96687849  0.58340959  1
  Na  Na12  1  0.15096034  0.96741189  0.08101491  1
  Na  Na13  1  0.65095370  0.96773839  0.08083577  1
  Na  Na14  1  0.33224766  0.69860876  0.08354070  1
  Na  Na15  1  0.83216929  0.69831294  0.08364238  1
  Na  Na16  1  0.01720402  0.33656189  0.08380737  1
  Na  Na17  1  0.51723272  0.33628944  0.08386932  1
  Na  Na18  1  0.48282467  0.66689430  0.91656612  1
  Na  Na19  1  0.98303130  0.66387805  0.91647605  1
  Na  Na20  1  0.34981167  0.03385593  0.91631506  1
  Na  Na21  1  0.84925291  0.03485405  0.91637805  1
  Na  Na22  1  0.16731291  0.30297277  0.91976562  1
  Na  Na23  1  0.66656309  0.29826398  0.91637121  1
  Na  Na24  1  0.48319627  0.30168955  0.41632017  1
  Na  Na25  1  0.98284055  0.30140663  0.41651340  1
  Na  Na26  1  0.16705764  0.03215074  0.41900951  1
  Na  Na27  1  0.66718954  0.03271512  0.41932299  1
  Na  Na28  1  0.34906921  0.66369831  0.41594131  1
  Na  Na29  1  0.84884025  0.66298068  0.41623008  1
  Na  Na30  1  0.99948625  0.99904901  0.49989226  1
  Na  Na31  1  0.50024482  0.99960393  0.50072110  1
  Na  Na32  1  0.99995224  0.00069376  0.00025443  1
  Na  Na33  1  0.50008513  0.00058479  0.99920920  1
  Na  Na34  1  0.33331812  0.32578425  0.83421292  1
  Na  Na35  1  0.83790295  0.33465357  0.83108747  1
  Na  Na36  1  0.33812680  0.34891812  0.33172367  1
  Na  Na37  1  0.83795592  0.34879887  0.33193066  1
  Na  Na38  1  0.16367708  0.65103570  0.16812315  1
  Na  Na39  1  0.66370803  0.65106053  0.16820935  1
  Na  Na40  1  0.16311999  0.67591029  0.66793015  1
  Na  Na41  1  0.66722194  0.66727197  0.66675057  1
  Si  Si42  1  0.35172669  0.70210230  0.25019800  1
  Si  Si43  1  0.85168078  0.70200614  0.25018329  1
  Si  Si44  1  0.00077183  0.29781816  0.24972936  1
  Si  Si45  1  0.50078546  0.29782776  0.24975431  1
  Si  Si46  1  0.64675938  0.29295443  0.75012360  1
  Si  Si47  1  0.00252799  0.70699797  0.74960099  1
  Si  Si48  1  0.49861827  0.70477418  0.74977310  1
  Si  Si49  1  0.35062661  0.99821584  0.74987180  1
  Si  Si50  1  0.85446521  0.00337809  0.75034351  1
  Si  Si51  1  0.48110222  0.33336461  0.58245901  1
  Si  Si52  1  0.98026166  0.33353415  0.58350971  1
  Si  Si53  1  0.18689009  0.04144432  0.58318841  1
  Si  Si54  1  0.68725883  0.04148994  0.58381545  1
  Si  Si55  1  0.33274734  0.62419790  0.58439784  1
  Si  Si56  1  0.83216200  0.62264010  0.58308251  1
  Si  Si57  1  0.48161925  0.62952902  0.08251048  1
  Si  Si58  1  0.98163869  0.62929832  0.08235018  1
  Si  Si59  1  0.33197517  0.04316357  0.08402681  1
  Si  Si60  1  0.83201281  0.04306384  0.08419165  1
  Si  Si61  1  0.18756155  0.33217286  0.08409013  1
  Si  Si62  1  0.68765723  0.33194430  0.08400461  1
  Si  Si63  1  0.31160144  0.66626938  0.91514646  1
  Si  Si64  1  0.81219531  0.66461160  0.91740127  1
  Si  Si65  1  0.02134422  0.37504392  0.91608389  1
  Si  Si66  1  0.52016938  0.37414319  0.91644132  1
  Si  Si67  1  0.16729766  0.96355712  0.91794865  1
  Si  Si68  1  0.66640144  0.95957032  0.91662522  1
  Si  Si69  1  0.31042850  0.95666972  0.41599106  1
  Si  Si70  1  0.81056935  0.95690791  0.41580462  1
  Si  Si71  1  0.16690279  0.37071118  0.41759556  1
  Si  Si72  1  0.66708354  0.37068432  0.41768934  1
  Si  Si73  1  0.02156976  0.66774649  0.41592143  1
  Si  Si74  1  0.52154024  0.66778878  0.41584880  1
  Sn  Sn75  1  0.99476633  0.99670516  0.35222566  1
  Sn  Sn76  1  0.49484954  0.99688991  0.35233001  1
  Sn  Sn77  1  0.99555990  0.99279254  0.85291919  1
  Sn  Sn78  1  0.49907213  0.99988273  0.85116779  1
  Sn  Sn79  1  0.99676387  0.98966937  0.64725677  1
  Sn  Sn80  1  0.49951958  0.99977538  0.64872441  1
  Sn  Sn81  1  0.99645669  0.00315695  0.14778502  1
  Sn  Sn82  1  0.49648384  0.00328323  0.14774819  1
  Sn  Sn83  1  0.33631846  0.33008144  0.68309178  1
  Sn  Sn84  1  0.83664066  0.33583047  0.68683521  1
  Sn  Sn85  1  0.34009485  0.34786567  0.18483475  1
  Sn  Sn86  1  0.84014072  0.34805649  0.18482419  1
  Sn  Sn87  1  0.33354278  0.33661405  0.98204981  1
  Sn  Sn88  1  0.83329249  0.33436885  0.98174459  1
  Sn  Sn89  1  0.33347779  0.33273192  0.48154209  1
  Sn  Sn90  1  0.83414309  0.33168527  0.48183443  1
  Sn  Sn91  1  0.16671088  0.66665384  0.01809090  1
  Sn  Sn92  1  0.66682627  0.66657655  0.01857047  1
  Sn  Sn93  1  0.16578402  0.66525479  0.51828795  1
  Sn  Sn94  1  0.66605562  0.66570377  0.51797556  1
  Sn  Sn95  1  0.16601182  0.65212079  0.31514035  1
  Sn  Sn96  1  0.66602941  0.65200301  0.31518441  1
  Sn  Sn97  1  0.16540224  0.67891973  0.81569891  1
  Sn  Sn98  1  0.66716529  0.66726142  0.81449371  1
  S  S99  1  0.14641328  0.00022752  0.25006225  1
  S  S100  1  0.64643031  0.00022738  0.25005654  1
  S  S101  1  0.14658857  0.29210398  0.75001450  1
  O  O102  1  0.10699536  0.02492081  0.30395778  1
  O  O103  1  0.60696760  0.02488216  0.30394174  1
  O  O104  1  0.41013278  0.78563663  0.30980119  1
  O  O105  1  0.91015878  0.78552831  0.30974910  1
  O  O106  1  0.48217275  0.17653910  0.30863258  1
  O  O107  1  0.98229017  0.17664726  0.30862177  1
  O  O108  1  0.10780981  0.19019200  0.80381270  1
  O  O109  1  0.60647143  0.17252961  0.80868711  1
  O  O110  1  0.47823544  0.78382326  0.80858466  1
  O  O111  1  0.98374768  0.79030473  0.80886493  1
  O  O112  1  0.41179762  0.04143376  0.80869579  1
  O  O113  1  0.91176762  0.03536832  0.80996607  1
  O  O114  1  0.39174409  0.96035512  0.69089627  1
  O  O115  1  0.89473611  0.96263729  0.69160457  1
  O  O116  1  0.09530192  0.21407185  0.69593076  1
  O  O117  1  0.58595943  0.21445713  0.69134166  1
  O  O118  1  0.01896742  0.82333953  0.69016682  1
  O  O119  1  0.51884837  0.82406585  0.69111089  1
  O  O120  1  0.39380669  0.82383090  0.19142639  1
  O  O121  1  0.89377898  0.82380837  0.19141736  1
  O  O122  1  0.01723242  0.21418104  0.19021480  1
  O  O123  1  0.51717590  0.21416633  0.19023141  1
  O  O124  1  0.09457992  0.97523857  0.19602057  1
  O  O125  1  0.59455136  0.97518635  0.19600206  1
  O  O126  1  0.44397715  0.37831863  0.64168536  1
  O  O127  1  0.93885967  0.37879110  0.63909983  1
  O  O128  1  0.24955198  0.12461232  0.64012594  1
  O  O129  1  0.74784203  0.12238390  0.64215556  1
  O  O130  1  0.31175781  0.50287116  0.64325968  1
  O  O131  1  0.81271078  0.50504454  0.64183313  1
  O  O132  1  0.44280716  0.50229129  0.13845744  1
  O  O133  1  0.94290724  0.50252562  0.13847024  1
  O  O134  1  0.31181022  0.12268819  0.14295496  1
  O  O135  1  0.81196159  0.12301026  0.14300105  1
  O  O136  1  0.25114365  0.37304848  0.14008598  1
  O  O137  1  0.75112265  0.37318723  0.14010597  1
  O  O138  1  0.22408468  0.29019504  0.02367448  1
  O  O139  1  0.72429545  0.28981941  0.02367641  1
  O  O140  1  0.42119222  0.55611284  0.02328403  1
  O  O141  1  0.92107916  0.55523564  0.02322878  1
  O  O142  1  0.35303798  0.16244912  0.02513365  1
  O  O143  1  0.85321617  0.16188464  0.02516264  1
  O  O144  1  0.22451364  0.15895732  0.52377829  1
  O  O145  1  0.72598770  0.15917026  0.52447641  1
  O  O146  1  0.35341710  0.54537057  0.52559348  1
  O  O147  1  0.85349832  0.54595198  0.52404464  1
  O  O148  1  0.41981651  0.29116143  0.52425128  1
  O  O149  1  0.92144730  0.28697713  0.52334753  1
  O  O150  1  0.27301961  0.70784526  0.97452798  1
  O  O151  1  0.77358010  0.70736672  0.97609570  1
  O  O152  1  0.07954540  0.44854210  0.97634301  1
  O  O153  1  0.57996545  0.45209249  0.97552285  1
  O  O154  1  0.14417269  0.84267854  0.97665460  1
  O  O155  1  0.64629964  0.84041991  0.97546791  1
  O  O156  1  0.27212404  0.83752826  0.47498664  1
  O  O157  1  0.77234835  0.83796972  0.47475971  1
  O  O158  1  0.14397972  0.44488814  0.47680099  1
  O  O159  1  0.64361678  0.44505636  0.47657975  1
  O  O160  1  0.07935013  0.71049682  0.47641654  1
  O  O161  1  0.57917965  0.71007257  0.47632651  1
  O  O162  1  0.06454217  0.62685005  0.35995297  1
  O  O163  1  0.56436798  0.62658948  0.35989623  1
  O  O164  1  0.25028264  0.87716268  0.35706665  1
  O  O165  1  0.75036571  0.87729748  0.35691523  1
  O  O166  1  0.19145898  0.49754830  0.36151769  1
  O  O167  1  0.69144543  0.49734831  0.36151174  1
  O  O168  1  0.06385911  0.50110846  0.85997490  1
  O  O169  1  0.55976011  0.49414705  0.85786351  1
  O  O170  1  0.19166096  0.88602461  0.86143882  1
  O  O171  1  0.68695543  0.88033651  0.85784532  1
  O  O172  1  0.25029856  0.62324746  0.85656166  1
  O  O173  1  0.75325042  0.62544509  0.85827380  1
  O  O174  1  0.01368707  0.84060896  0.40987455  1
  O  O175  1  0.51358158  0.84049986  0.40986879  1
  O  O176  1  0.40558075  0.97589055  0.41297220  1
  O  O177  1  0.90575104  0.97612542  0.41290627  1
  O  O178  1  0.08208504  0.18109112  0.40951405  1
  O  O179  1  0.58203801  0.18112461  0.40947289  1
  O  O180  1  0.01393472  0.18697988  0.90998775  1
  O  O181  1  0.51124214  0.18518629  0.91186122  1
  O  O182  1  0.08260288  0.98378783  0.91005318  1
  O  O183  1  0.58042414  0.97612675  0.91182005  1
  O  O184  1  0.40605309  0.83746671  0.91105196  1
  O  O185  1  0.90693068  0.83628291  0.91406757  1
  O  O186  1  0.48832260  0.16092799  0.58743697  1
  O  O187  1  0.99162528  0.16527962  0.59113234  1
  O  O188  1  0.09326337  0.02782993  0.58940437  1
  O  O189  1  0.59245117  0.02296606  0.58822666  1
  O  O190  1  0.41845670  0.81261696  0.58891926  1
  O  O191  1  0.91791290  0.81306082  0.58611166  1
  O  O192  1  0.49160829  0.81894658  0.09065001  1
  O  O193  1  0.99163879  0.81889141  0.09059612  1
  O  O194  1  0.41750716  0.02377210  0.08710742  1
  O  O195  1  0.91760351  0.02382415  0.08707984  1
  O  O196  1  0.09330023  0.15905617  0.08997658  1
  O  O197  1  0.59332829  0.15905569  0.09002309  1
  O  O198  1  0.34598045  0.17461351  0.74523497  1
  O  O199  1  0.83967717  0.16566623  0.74633662  1
  O  O200  1  0.23313872  0.31244875  0.74597173  1
  O  O201  1  0.74059610  0.31054946  0.74541474  1
  O  O202  1  0.41057168  0.51660234  0.74517015  1
  O  O203  1  0.91198190  0.52697901  0.74563947  1
  O  O204  1  0.34080414  0.51277707  0.24641957  1
  O  O205  1  0.84082887  0.51277743  0.24642466  1
  O  O206  1  0.40848537  0.29372000  0.24552681  1
  O  O207  1  0.90849852  0.29368225  0.24551585  1
  O  O208  1  0.23248369  0.15293019  0.24607054  1
  O  O209  1  0.73246308  0.15287349  0.24604747  1
  O  O210  1  0.32071797  0.49562693  0.92048244  1
  O  O211  1  0.82153976  0.49454228  0.92145670  1
  O  O212  1  0.42579869  0.35688751  0.92137334  1
  O  O213  1  0.92655956  0.35527302  0.92133180  1
  O  O214  1  0.25234174  0.15219449  0.92238951  1
  O  O215  1  0.75238953  0.14755739  0.92141994  1
  O  O216  1  0.32070393  0.14644199  0.42092434  1
  O  O217  1  0.82082662  0.14656912  0.42064291  1
  O  O218  1  0.25214095  0.35288483  0.42232945  1
  O  O219  1  0.75211248  0.35232434  0.42252493  1
  O  O220  1  0.42657833  0.49765850  0.42103783  1
  O  O221  1  0.92681480  0.49737740  0.42103707  1
  O  O222  1  0.17800887  0.50249906  0.07897125  1
  O  O223  1  0.67773733  0.50198081  0.07905218  1
  O  O224  1  0.07575755  0.64706423  0.07758007  1
  O  O225  1  0.57568650  0.64734285  0.07769328  1
  O  O226  1  0.24741603  0.85317324  0.07888627  1
  O  O227  1  0.74735331  0.85330528  0.07929437  1
  O  O228  1  0.17760758  0.85255824  0.57867583  1
  O  O229  1  0.67850585  0.85250172  0.57881258  1
  O  O230  1  0.24743630  0.64231801  0.57904781  1
  O  O231  1  0.74738432  0.64283990  0.57839895  1
  O  O232  1  0.07464433  0.50431754  0.57852135  1
  O  O233  1  0.57473467  0.50493795  0.57807887  1
  O  O234  1  0.15612899  0.84746420  0.25409927  1
  O  O235  1  0.65611254  0.84742529  0.25409018  1
  O  O236  1  0.26147719  0.70610056  0.25442790  1
  O  O237  1  0.76146303  0.70606275  0.25441300  1
  O  O238  1  0.08456250  0.48713422  0.25342938  1
  O  O239  1  0.58453038  0.48713198  0.25343946  1
  O  O240  1  0.15672677  0.46546146  0.75414783  1
  O  O241  1  0.65463084  0.48098475  0.75472312  1
  O  O242  1  0.08636183  0.68514065  0.75348677  1
  O  O243  1  0.58384029  0.68648381  0.75438864  1
  O  O244  1  0.26034572  0.81672908  0.75474276  1
  O  O245  1  0.76054819  0.82756150  0.75434963  1
