# generated using pymatgen
data_KSb4F13
_symmetry_space_group_name_H-M   'P 1'
_cell_length_a   6.33830589
_cell_length_b   7.37805425
_cell_length_c   7.37805425
_cell_angle_alpha   79.36786476
_cell_angle_beta   64.56176858
_cell_angle_gamma   64.56177291
_symmetry_Int_Tables_number   1
_chemical_formula_structural   KSb4F13
_chemical_formula_sum   'K1 Sb4 F13'
_cell_volume   281.37105191
_cell_formula_units_Z   1
loop_
 _symmetry_equiv_pos_site_id
 _symmetry_equiv_pos_as_xyz
  1  'x, y, z'
loop_
 _atom_site_type_symbol
 _atom_site_label
 _atom_site_symmetry_multiplicity
 _atom_site_fract_x
 _atom_site_fract_y
 _atom_site_fract_z
 _atom_site_occupancy
  K  K0  1  0.50000000  -0.00000000  -0.00000000  1
  Sb  Sb1  1  0.70383721  0.32306066  0.27339041  1
  Sb  Sb2  1  0.02277138  0.27339041  0.67693934  1
  Sb  Sb3  1  0.97310313  0.72660959  0.32306066  1
  Sb  Sb4  1  0.30028828  0.67693934  0.72660959  1
  F  F5  1  0.67199995  0.33064476  0.86876585  1
  F  F6  1  0.45923520  0.86876585  0.66935524  1
  F  F7  1  0.99735529  0.13123415  0.33064476  1
  F  F8  1  0.87141255  0.66935524  0.13123415  1
  F  F9  1  0.23710277  0.77701581  0.07321041  1
  F  F10  1  0.75000000  0.50000000  0.50000000  1
  F  F11  1  0.23335230  0.44680188  0.28301982  1
  F  F12  1  0.48362888  0.28301982  0.55319812  1
  F  F13  1  0.31984582  0.71698018  0.44680188  1
  F  F14  1  0.96317301  0.55319812  0.71698018  1
  F  F15  1  0.08732999  0.22298419  0.92678959  1
  F  F16  1  0.98588142  0.92678959  0.77701581  1
  F  F17  1  0.68968682  0.07321041  0.22298419  1
