# generated using pymatgen
data_Na4LaInSi2SO12
_symmetry_space_group_name_H-M   'P 1'
_cell_length_a   9.54499176
_cell_length_b   9.53871722
_cell_length_c   23.35562993
_cell_angle_alpha   90.06304099
_cell_angle_beta   89.90542959
_cell_angle_gamma   119.82142850
_symmetry_Int_Tables_number   1
_chemical_formula_structural   Na4LaInSi2SO12
_chemical_formula_sum   'Na24 La6 In6 Si12 S6 O72'
_cell_volume   1844.87012029
_cell_formula_units_Z   6
loop_
 _symmetry_equiv_pos_site_id
 _symmetry_equiv_pos_as_xyz
  1  'x, y, z'
loop_
 _atom_site_type_symbol
 _atom_site_label
 _atom_site_symmetry_multiplicity
 _atom_site_fract_x
 _atom_site_fract_y
 _atom_site_fract_z
 _atom_site_occupancy
  Na  Na0  1  0.64584514  0.99833545  0.25775438  1
  Na  Na1  1  0.36547254  0.38140400  0.24325367  1
  Na  Na2  1  0.98963589  0.61872823  0.25707349  1
  Na  Na3  1  0.62150154  0.62650497  0.73390573  1
  Na  Na4  1  0.99493474  0.34571305  0.75227587  1
  Na  Na5  1  0.38923105  0.02190832  0.74957610  1
  Na  Na6  1  0.31685452  0.32994974  0.59149009  1
  Na  Na7  1  0.03449728  0.71896401  0.57502859  1
  Na  Na8  1  0.66147329  0.95251340  0.59100700  1
  Na  Na9  1  0.28221476  0.96779116  0.07474539  1
  Na  Na10  1  0.66836356  0.67996042  0.09334182  1
  Na  Na11  1  0.04977539  0.34421180  0.09192847  1
  Na  Na12  1  0.98845003  0.66721315  0.92402833  1
  Na  Na13  1  0.69868937  0.05070971  0.90446894  1
  Na  Na14  1  0.31837973  0.28130107  0.92185859  1
  Na  Na15  1  0.95106442  0.29955438  0.40635555  1
  Na  Na16  1  0.33199334  0.01812374  0.42112048  1
  Na  Na17  1  0.71567242  0.67774394  0.41978141  1
  Na  Na18  1  0.98914165  0.97326140  0.49956168  1
  Na  Na19  1  0.03043157  0.01340630  0.99975701  1
  Na  Na20  1  0.65436330  0.30387339  0.83133090  1
  Na  Na21  1  0.68881851  0.34462774  0.33424242  1
  Na  Na22  1  0.32020158  0.63866503  0.17007534  1
  Na  Na23  1  0.36242537  0.67894768  0.66594455  1
  La  La24  1  0.00839964  0.01478154  0.84230954  1
  La  La25  1  0.99673205  0.99905353  0.15986689  1
  La  La26  1  0.66702081  0.33419659  0.98822670  1
  La  La27  1  0.32072527  0.65684372  0.01661014  1
  La  La28  1  0.34119362  0.67948325  0.51389010  1
  La  La29  1  0.33307204  0.66694560  0.81492474  1
  In  In30  1  0.97591200  0.98802745  0.34723355  1
  In  In31  1  0.00223594  0.00134271  0.64831526  1
  In  In32  1  0.65035971  0.32192294  0.67912209  1
  In  In33  1  0.67932329  0.35463879  0.18589129  1
  In  In34  1  0.66392012  0.33434191  0.48413776  1
  In  In35  1  0.33083803  0.67022325  0.32150736  1
  Si  Si36  1  0.68237582  0.68840524  0.25283329  1
  Si  Si37  1  0.00087768  0.31020229  0.25282990  1
  Si  Si38  1  0.30909017  0.30392803  0.74345411  1
  Si  Si39  1  0.70089494  0.00925554  0.74294032  1
  Si  Si40  1  0.36459239  0.03944310  0.58302077  1
  Si  Si41  1  0.67592272  0.62996322  0.58487068  1
  Si  Si42  1  0.97219227  0.64044882  0.08586683  1
  Si  Si43  1  0.36623841  0.33221154  0.08846010  1
  Si  Si44  1  0.01960794  0.35336333  0.91488597  1
  Si  Si45  1  0.33240116  0.97664055  0.91657543  1
  Si  Si46  1  0.64008483  0.97825750  0.41531567  1
  Si  Si47  1  0.02584419  0.66938866  0.41472508  1
  S  S48  1  0.31021354  0.00008420  0.25360225  1
  S  S49  1  0.99069374  0.69057032  0.74450040  1
  S  S50  1  0.95624637  0.32660065  0.58387730  1
  S  S51  1  0.66658486  0.03236212  0.08847567  1
  S  S52  1  0.64403017  0.66961650  0.91652373  1
  S  S53  1  0.33070392  0.35739225  0.41404923  1
  O  O54  1  0.22395177  0.02494849  0.30332847  1
  O  O55  1  0.81252762  0.77573897  0.30550186  1
  O  O56  1  0.97451551  0.18742378  0.30718627  1
  O  O57  1  0.23675095  0.20383108  0.80338102  1
  O  O58  1  0.96912654  0.75963046  0.79895292  1
  O  O59  1  0.79371162  0.03079388  0.80442481  1
  O  O60  1  0.79521309  0.97753069  0.68942221  1
  O  O61  1  0.18851435  0.20572497  0.68949543  1
  O  O62  1  0.01085055  0.79764324  0.69539768  1
  O  O63  1  0.75060435  0.79348761  0.19370261  1
  O  O64  1  0.03997152  0.24356759  0.19376363  1
  O  O65  1  0.21526373  0.97490843  0.20011551  1
  O  O66  1  0.87911771  0.35016786  0.63603647  1
  O  O67  1  0.47807004  0.11351222  0.63981695  1
  O  O68  1  0.65980265  0.52488610  0.64259422  1
  O  O69  1  0.88006162  0.52074517  0.14068203  1
  O  O70  1  0.65224751  0.12251295  0.13838236  1
  O  O71  1  0.47703383  0.33658267  0.14386315  1
  O  O72  1  0.43949067  0.31265350  0.02706208  1
  O  O73  1  0.87768284  0.56442289  0.02515209  1
  O  O74  1  0.67952612  0.11794816  0.03374373  1
  O  O75  1  0.45055730  0.15125240  0.52536605  1
  O  O76  1  0.70177406  0.54692410  0.52634870  1
  O  O77  1  0.86088463  0.31119247  0.53121813  1
  O  O78  1  0.56576875  0.68489944  0.96883753  1
  O  O79  1  0.12843029  0.43988141  0.97223555  1
  O  O80  1  0.32642852  0.87777043  0.97527268  1
  O  O81  1  0.56805923  0.86475415  0.47246773  1
  O  O82  1  0.30205839  0.42705477  0.46691107  1
  O  O83  1  0.13315714  0.70258771  0.47319021  1
  O  O84  1  0.11367662  0.63284880  0.36013334  1
  O  O85  1  0.52058637  0.88879132  0.35983487  1
  O  O86  1  0.35479334  0.46525963  0.36381011  1
  O  O87  1  0.11308877  0.45894441  0.85751349  1
  O  O88  1  0.35069912  0.88622343  0.85923828  1
  O  O89  1  0.54797421  0.65762620  0.86502104  1
  O  O90  1  0.01621185  0.83877320  0.40732381  1
  O  O91  1  0.82571604  0.00535738  0.41049597  1
  O  O92  1  0.18993958  0.19306181  0.40658859  1
  O  O93  1  0.99422659  0.16935874  0.91594296  1
  O  O94  1  0.16056300  0.97900793  0.91683589  1
  O  O95  1  0.80818844  0.81284338  0.91362952  1
  O  O96  1  0.96755997  0.17685829  0.58676360  1
  O  O97  1  0.18437904  0.02876157  0.58626470  1
  O  O98  1  0.83839238  0.81464608  0.58704614  1
  O  O99  1  0.98466004  0.81911296  0.08918617  1
  O  O100  1  0.81274695  0.01776575  0.09086970  1
  O  O101  1  0.18153334  0.17538882  0.08985336  1
  O  O102  1  0.69845733  0.18247289  0.73908660  1
  O  O103  1  0.49343905  0.32785466  0.74243290  1
  O  O104  1  0.84844952  0.52663783  0.73928245  1
  O  O105  1  0.66058567  0.50430214  0.25056337  1
  O  O106  1  0.82738631  0.31403040  0.24898559  1
  O  O107  1  0.47357605  0.14534305  0.24953545  1
  O  O108  1  0.65658102  0.51980686  0.91695041  1
  O  O109  1  0.84211890  0.34312873  0.91478734  1
  O  O110  1  0.48951181  0.16075389  0.91478644  1
  O  O111  1  0.65086656  0.15773569  0.42126234  1
  O  O112  1  0.48259525  0.34787270  0.41842967  1
  O  O113  1  0.84249040  0.50608880  0.41934857  1
  O  O114  1  0.36458863  0.50479092  0.09080096  1
  O  O115  1  0.15559062  0.66355541  0.08796665  1
  O  O116  1  0.51980229  0.86886855  0.08799059  1
  O  O117  1  0.33426071  0.85274811  0.58091837  1
  O  O118  1  0.50790384  0.64136327  0.58381698  1
  O  O119  1  0.12232298  0.47026419  0.58054717  1
  O  O120  1  0.32437617  0.85293302  0.25935224  1
  O  O121  1  0.50309594  0.67359040  0.26185724  1
  O  O122  1  0.15859374  0.49416346  0.26029189  1
  O  O123  1  0.32253879  0.48359643  0.74296794  1
  O  O124  1  0.14047105  0.67730818  0.74618671  1
  O  O125  1  0.51655013  0.85183588  0.74289947  1
