# generated using pymatgen
data_Na12Ca2Ta4(SiO4)9
_symmetry_space_group_name_H-M   'P 1'
_cell_length_a   9.24816595
_cell_length_b   9.24816562
_cell_length_c   22.66108547
_cell_angle_alpha   90.00000000
_cell_angle_beta   90.00000000
_cell_angle_gamma   120.00000121
_symmetry_Int_Tables_number   1
_chemical_formula_structural   Na12Ca2Ta4(SiO4)9
_chemical_formula_sum   'Na24 Ca4 Ta8 Si18 O72'
_cell_volume   1678.50464789
_cell_formula_units_Z   2
loop_
 _symmetry_equiv_pos_site_id
 _symmetry_equiv_pos_as_xyz
  1  'x, y, z'
loop_
 _atom_site_type_symbol
 _atom_site_label
 _atom_site_symmetry_multiplicity
 _atom_site_fract_x
 _atom_site_fract_y
 _atom_site_fract_z
 _atom_site_occupancy
  Na  Na0  1  0.64467883  0.02262938  0.24672452  1
  Na  Na1  1  0.37795055  0.35532117  0.24672452  1
  Na  Na2  1  0.97737062  0.62204945  0.24672452  1
  Na  Na3  1  0.64467883  0.62204945  0.74672452  1
  Na  Na4  1  0.97737062  0.35532117  0.74672452  1
  Na  Na5  1  0.37795055  0.02262938  0.74672452  1
  Na  Na6  1  0.31091907  0.33548302  0.58665136  1
  Na  Na7  1  0.02456495  0.68908093  0.58665136  1
  Na  Na8  1  0.66451698  0.97543505  0.58665136  1
  Na  Na9  1  0.31091907  0.97543505  0.08665136  1
  Na  Na10  1  0.66451698  0.68908093  0.08665136  1
  Na  Na11  1  0.02456495  0.33548302  0.08665136  1
  Na  Na12  1  0.96515961  0.68386820  0.90889769  1
  Na  Na13  1  0.71870759  0.03484039  0.90889769  1
  Na  Na14  1  0.31613180  0.28129241  0.90889769  1
  Na  Na15  1  0.96515961  0.28129241  0.40889769  1
  Na  Na16  1  0.31613180  0.03484039  0.40889769  1
  Na  Na17  1  0.71870759  0.68386820  0.40889769  1
  Na  Na18  1  -0.00000000  0.00000000  0.49519501  1
  Na  Na19  1  -0.00000000  0.00000000  0.99519501  1
  Na  Na20  1  0.66666700  0.33333300  0.82141634  1
  Na  Na21  1  0.66666700  0.33333300  0.32141634  1
  Na  Na22  1  0.33333300  0.66666700  0.16902646  1
  Na  Na23  1  0.33333300  0.66666700  0.66902646  1
  Ca  Ca24  1  -0.00000000  0.00000000  0.35378081  1
  Ca  Ca25  1  -0.00000000  0.00000000  0.85378081  1
  Ca  Ca26  1  0.66666700  0.33333300  0.67887771  1
  Ca  Ca27  1  0.66666700  0.33333300  0.17887771  1
  Ta  Ta28  1  -0.00000000  0.00000000  0.64991504  1
  Ta  Ta29  1  -0.00000000  0.00000000  0.14991504  1
  Ta  Ta30  1  0.66666700  0.33333300  0.98049291  1
  Ta  Ta31  1  0.66666700  0.33333300  0.48049291  1
  Ta  Ta32  1  0.33333300  0.66666700  0.01822395  1
  Ta  Ta33  1  0.33333300  0.66666700  0.51822395  1
  Ta  Ta34  1  0.33333300  0.66666700  0.31202927  1
  Ta  Ta35  1  0.33333300  0.66666700  0.81202927  1
  Si  Si36  1  0.29396015  0.99503163  0.25298020  1
  Si  Si37  1  0.70107148  0.70603985  0.25298020  1
  Si  Si38  1  0.00496837  0.29892852  0.25298020  1
  Si  Si39  1  0.29396015  0.29892852  0.75298020  1
  Si  Si40  1  0.00496837  0.70603985  0.75298020  1
  Si  Si41  1  0.70107148  0.99503163  0.75298020  1
  Si  Si42  1  0.96676978  0.33291013  0.58251060  1
  Si  Si43  1  0.36614135  0.03323022  0.58251060  1
  Si  Si44  1  0.66708987  0.63385865  0.58251060  1
  Si  Si45  1  0.96676978  0.63385865  0.08251060  1
  Si  Si46  1  0.66708987  0.03323022  0.08251060  1
  Si  Si47  1  0.36614135  0.33291013  0.08251060  1
  Si  Si48  1  0.61567658  0.65594899  0.91766501  1
  Si  Si49  1  0.04027141  0.38432342  0.91766501  1
  Si  Si50  1  0.34405101  0.95972859  0.91766501  1
  Si  Si51  1  0.61567658  0.95972859  0.41766501  1
  Si  Si52  1  0.34405101  0.38432342  0.41766501  1
  Si  Si53  1  0.04027141  0.65594899  0.41766501  1
  O  O54  1  0.22172310  0.02664962  0.31206913  1
  O  O55  1  0.80492652  0.77827690  0.31206913  1
  O  O56  1  0.97335038  0.19507348  0.31206913  1
  O  O57  1  0.22172310  0.19507348  0.81206913  1
  O  O58  1  0.97335038  0.77827690  0.81206913  1
  O  O59  1  0.80492652  0.02664962  0.81206913  1
  O  O60  1  0.80589630  0.97148084  0.69383214  1
  O  O61  1  0.16558454  0.19410370  0.69383214  1
  O  O62  1  0.02851916  0.83441546  0.69383214  1
  O  O63  1  0.80589630  0.83441546  0.19383214  1
  O  O64  1  0.02851916  0.19410370  0.19383214  1
  O  O65  1  0.16558454  0.97148084  0.19383214  1
  O  O66  1  0.91283515  0.38956761  0.64054235  1
  O  O67  1  0.47673345  0.08716485  0.64054235  1
  O  O68  1  0.61043239  0.52326655  0.64054235  1
  O  O69  1  0.91283515  0.52326655  0.14054235  1
  O  O70  1  0.61043239  0.08716485  0.14054235  1
  O  O71  1  0.47673345  0.38956761  0.14054235  1
  O  O72  1  0.47073057  0.30309877  0.02714332  1
  O  O73  1  0.83236920  0.52926943  0.02714332  1
  O  O74  1  0.69690123  0.16763080  0.02714332  1
  O  O75  1  0.47073057  0.16763080  0.52714332  1
  O  O76  1  0.69690123  0.52926943  0.52714332  1
  O  O77  1  0.83236920  0.30309877  0.52714332  1
  O  O78  1  0.51081751  0.66744173  0.97383471  1
  O  O79  1  0.15662322  0.48918249  0.97383471  1
  O  O80  1  0.33255827  0.84337678  0.97383471  1
  O  O81  1  0.51081751  0.84337678  0.47383471  1
  O  O82  1  0.33255827  0.48918249  0.47383471  1
  O  O83  1  0.15662322  0.66744173  0.47383471  1
  O  O84  1  0.13621482  0.63250187  0.35914740  1
  O  O85  1  0.49628606  0.86378518  0.35914740  1
  O  O86  1  0.36749813  0.50371394  0.35914740  1
  O  O87  1  0.13621482  0.50371394  0.85914740  1
  O  O88  1  0.36749813  0.86378518  0.85914740  1
  O  O89  1  0.49628606  0.63250187  0.85914740  1
  O  O90  1  0.02100490  0.81802259  0.42161881  1
  O  O91  1  0.79701769  0.97899510  0.42161881  1
  O  O92  1  0.18197741  0.20298231  0.42161881  1
  O  O93  1  0.02100490  0.20298231  0.92161881  1
  O  O94  1  0.18197741  0.97899510  0.92161881  1
  O  O95  1  0.79701769  0.81802259  0.92161881  1
  O  O96  1  0.97602553  0.15864184  0.58858768  1
  O  O97  1  0.18261631  0.02397447  0.58858768  1
  O  O98  1  0.84135816  0.81738369  0.58858768  1
  O  O99  1  0.97602553  0.81738369  0.08858768  1
  O  O100  1  0.84135816  0.02397447  0.08858768  1
  O  O101  1  0.18261631  0.15864184  0.08858768  1
  O  O102  1  0.66928931  0.14876085  0.74482437  1
  O  O103  1  0.47947254  0.33071069  0.74482437  1
  O  O104  1  0.85123915  0.52052746  0.74482437  1
  O  O105  1  0.66928931  0.52052746  0.24482437  1
  O  O106  1  0.85123915  0.33071069  0.24482437  1
  O  O107  1  0.47947254  0.14876085  0.24482437  1
  O  O108  1  0.62567553  0.48168902  0.92442598  1
  O  O109  1  0.85601449  0.37432447  0.92442598  1
  O  O110  1  0.51831098  0.14398551  0.92442598  1
  O  O111  1  0.62567553  0.14398551  0.42442598  1
  O  O112  1  0.51831098  0.37432447  0.42442598  1
  O  O113  1  0.85601449  0.48168902  0.42442598  1
  O  O114  1  0.33053836  0.48916253  0.07003475  1
  O  O115  1  0.15862317  0.66946164  0.07003475  1
  O  O116  1  0.51083747  0.84137683  0.07003475  1
  O  O117  1  0.33053836  0.84137683  0.57003475  1
  O  O118  1  0.51083747  0.66946164  0.57003475  1
  O  O119  1  0.15862317  0.48916253  0.57003475  1
  O  O120  1  0.29281159  0.81261824  0.25552413  1
  O  O121  1  0.51980565  0.70718841  0.25552413  1
  O  O122  1  0.18738176  0.48019435  0.25552413  1
  O  O123  1  0.29281159  0.48019435  0.75552413  1
  O  O124  1  0.18738176  0.70718841  0.75552413  1
  O  O125  1  0.51980565  0.81261824  0.75552413  1
