# generated using pymatgen
data_KTa5O13
_symmetry_space_group_name_H-M   'P 1'
_cell_length_a   5.67532303
_cell_length_b   10.74385482
_cell_length_c   16.86424187
_cell_angle_alpha   90.00000000
_cell_angle_beta   90.00000000
_cell_angle_gamma   90.00000000
_symmetry_Int_Tables_number   1
_chemical_formula_structural   KTa5O13
_chemical_formula_sum   'K4 Ta20 O52'
_cell_volume   1028.29456258
_cell_formula_units_Z   4
loop_
 _symmetry_equiv_pos_site_id
 _symmetry_equiv_pos_as_xyz
  1  'x, y, z'
loop_
 _atom_site_type_symbol
 _atom_site_label
 _atom_site_symmetry_multiplicity
 _atom_site_fract_x
 _atom_site_fract_y
 _atom_site_fract_z
 _atom_site_occupancy
  K  K0  1  0.79744700  0.32631448  0.75000000  1
  K  K1  1  0.79744700  0.17368552  0.25000000  1
  K  K2  1  0.20255300  0.82631448  0.75000000  1
  K  K3  1  0.20255300  0.67368552  0.25000000  1
  Ta  Ta4  1  0.33439860  0.75000000  0.50000000  1
  Ta  Ta5  1  0.66560140  0.25000000  0.00000000  1
  Ta  Ta6  1  0.66560140  0.25000000  0.50000000  1
  Ta  Ta7  1  0.33439860  0.75000000  0.00000000  1
  Ta  Ta8  1  0.34492685  0.36682985  0.36288854  1
  Ta  Ta9  1  0.34492685  0.13317015  0.63711146  1
  Ta  Ta10  1  0.65507315  0.86682985  0.13711146  1
  Ta  Ta11  1  0.65507315  0.63317015  0.86288854  1
  Ta  Ta12  1  0.65507315  0.63317015  0.63711146  1
  Ta  Ta13  1  0.65507315  0.86682985  0.36288854  1
  Ta  Ta14  1  0.34492685  0.13317015  0.86288854  1
  Ta  Ta15  1  0.34492685  0.36682985  0.13711146  1
  Ta  Ta16  1  0.16087864  0.06355921  0.42387529  1
  Ta  Ta17  1  0.16087864  0.43644079  0.57612471  1
  Ta  Ta18  1  0.83912136  0.56355921  0.07612471  1
  Ta  Ta19  1  0.83912136  0.93644079  0.92387529  1
  Ta  Ta20  1  0.83912136  0.93644079  0.57612471  1
  Ta  Ta21  1  0.83912136  0.56355921  0.42387529  1
  Ta  Ta22  1  0.16087864  0.43644079  0.92387529  1
  Ta  Ta23  1  0.16087864  0.06355921  0.07612471  1
  O  O24  1  0.39981153  0.74714577  0.38833325  1
  O  O25  1  0.39981153  0.75285423  0.61166675  1
  O  O26  1  0.60018847  0.24714577  0.11166675  1
  O  O27  1  0.60018847  0.25285423  0.88833325  1
  O  O28  1  0.60018847  0.25285423  0.61166675  1
  O  O29  1  0.60018847  0.24714577  0.38833325  1
  O  O30  1  0.39981153  0.75285423  0.88833325  1
  O  O31  1  0.39981153  0.74714577  0.11166675  1
  O  O32  1  0.40880661  0.99614176  0.36451284  1
  O  O33  1  0.40880661  0.50385824  0.63548716  1
  O  O34  1  0.59119339  0.49614176  0.13548716  1
  O  O35  1  0.59119339  0.00385824  0.86451284  1
  O  O36  1  0.59119339  0.00385824  0.63548716  1
  O  O37  1  0.59119339  0.49614176  0.36451284  1
  O  O38  1  0.40880661  0.50385824  0.86451284  1
  O  O39  1  0.40880661  0.99614176  0.13548716  1
  O  O40  1  0.36235030  0.37493784  0.48725261  1
  O  O41  1  0.36235030  0.12506216  0.51274739  1
  O  O42  1  0.63222126  0.65366696  0.75000000  1
  O  O43  1  0.63764970  0.87493784  0.01274739  1
  O  O44  1  0.63764970  0.62506216  0.51274739  1
  O  O45  1  0.63764970  0.87493784  0.48725261  1
  O  O46  1  0.36235030  0.12506216  0.98725261  1
  O  O47  1  0.36235030  0.37493784  0.01274739  1
  O  O48  1  0.08931108  0.48395904  0.13738873  1
  O  O49  1  0.08931108  0.01604096  0.86261127  1
  O  O50  1  0.91068892  0.98395904  0.36261127  1
  O  O51  1  0.91068892  0.51604096  0.63738873  1
  O  O52  1  0.91068892  0.51604096  0.86261127  1
  O  O53  1  0.91068892  0.98395904  0.13738873  1
  O  O54  1  0.08931108  0.01604096  0.63738873  1
  O  O55  1  0.08931108  0.48395904  0.36261127  1
  O  O56  1  0.13165586  0.21886789  0.12608093  1
  O  O57  1  0.13165586  0.28113211  0.87391907  1
  O  O58  1  0.86834414  0.71886789  0.37391907  1
  O  O59  1  0.86834414  0.78113211  0.62608093  1
  O  O60  1  0.86834414  0.78113211  0.87391907  1
  O  O61  1  0.86834414  0.71886789  0.12608093  1
  O  O62  1  0.13165586  0.28113211  0.62608093  1
  O  O63  1  0.13165586  0.21886789  0.37391907  1
  O  O64  1  0.12856243  0.60601731  0.99640161  1
  O  O65  1  0.12856243  0.89398269  0.00359839  1
  O  O66  1  0.87143757  0.10601731  0.50359839  1
  O  O67  1  0.87143757  0.39398269  0.49640161  1
  O  O68  1  0.87143757  0.39398269  0.00359839  1
  O  O69  1  0.87143757  0.10601731  0.99640161  1
  O  O70  1  0.12856243  0.89398269  0.49640161  1
  O  O71  1  0.12856243  0.60601731  0.50359839  1
  O  O72  1  0.36777874  0.34633304  0.25000000  1
  O  O73  1  0.36777874  0.15366696  0.75000000  1
  O  O74  1  0.63222126  0.84633304  0.25000000  1
  O  O75  1  0.63764970  0.62506216  0.98725261  1
