# generated using pymatgen
data_MgZn2Co2(SiO5)2
_symmetry_space_group_name_H-M   'P 1'
_cell_length_a   6.22671474
_cell_length_b   6.71692801
_cell_length_c   8.27990138
_cell_angle_alpha   88.20380976
_cell_angle_beta   42.82018397
_cell_angle_gamma   73.11601511
_symmetry_Int_Tables_number   1
_chemical_formula_structural   MgZn2Co2(SiO5)2
_chemical_formula_sum   'Mg1 Zn2 Co2 Si2 O10'
_cell_volume   216.26864744
_cell_formula_units_Z   1
loop_
 _symmetry_equiv_pos_site_id
 _symmetry_equiv_pos_as_xyz
  1  'x, y, z'
loop_
 _atom_site_type_symbol
 _atom_site_label
 _atom_site_symmetry_multiplicity
 _atom_site_fract_x
 _atom_site_fract_y
 _atom_site_fract_z
 _atom_site_occupancy
  Mg  Mg0  1  0.03750739  0.86168928  0.15952778  1
  Zn  Zn1  1  0.43018840  0.24136706  0.75023873  1
  Zn  Zn2  1  0.50465255  0.70750811  0.30144329  1
  Co  Co3  1  0.66634551  0.44951878  0.89424477  1
  Co  Co4  1  0.65878689  0.94911284  0.94231752  1
  Si  Si5  1  0.51699271  0.24134276  0.33508754  1
  Si  Si6  1  0.43638278  0.74834704  0.66423538  1
  O  O7  1  0.62346213  0.00164995  0.19526470  1
  O  O8  1  0.65675403  0.39627797  0.14619089  1
  O  O9  1  0.35418726  0.95676347  0.82611895  1
  O  O10  1  0.39127603  0.56544788  0.81799209  1
  O  O11  1  0.78404445  0.68017118  0.36657991  1
  O  O12  1  0.14475475  0.79876609  0.67320897  1
  O  O13  1  0.10232923  0.36857756  0.59667157  1
  O  O14  1  0.71581081  0.17125092  0.40130067  1
  O  O15  1  0.44528577  0.75394646  0.09009766  1
  O  O16  1  0.52987429  0.21798766  0.92774658  1
