# generated using pymatgen
data_BaNd2O4
_symmetry_space_group_name_H-M   'P 1'
_cell_length_a   3.61864619
_cell_length_b   10.66522781
_cell_length_c   12.52631118
_cell_angle_alpha   90.00000000
_cell_angle_beta   90.00000000
_cell_angle_gamma   90.00000000
_symmetry_Int_Tables_number   1
_chemical_formula_structural   BaNd2O4
_chemical_formula_sum   'Ba4 Nd8 O16'
_cell_volume   483.43652017
_cell_formula_units_Z   4
loop_
 _symmetry_equiv_pos_site_id
 _symmetry_equiv_pos_as_xyz
  1  'x, y, z'
loop_
 _atom_site_type_symbol
 _atom_site_label
 _atom_site_symmetry_multiplicity
 _atom_site_fract_x
 _atom_site_fract_y
 _atom_site_fract_z
 _atom_site_occupancy
  Ba  Ba0  1  0.75000000  0.74881305  0.85230203  1
  Ba  Ba1  1  0.25000000  0.25118695  0.14769797  1
  Ba  Ba2  1  0.75000000  0.24881305  0.64769797  1
  Ba  Ba3  1  0.25000000  0.75118695  0.35230203  1
  Nd  Nd4  1  0.25000000  0.42414879  0.88773966  1
  Nd  Nd5  1  0.75000000  0.57585121  0.11226034  1
  Nd  Nd6  1  0.25000000  0.92414879  0.61226034  1
  Nd  Nd7  1  0.75000000  0.07585121  0.38773966  1
  Nd  Nd8  1  0.75000000  0.07957057  0.88887557  1
  Nd  Nd9  1  0.25000000  0.92042943  0.11112443  1
  Nd  Nd10  1  0.75000000  0.57957057  0.61112443  1
  Nd  Nd11  1  0.25000000  0.42042943  0.38887557  1
  O  O12  1  0.25000000  0.42943286  0.57656666  1
  O  O13  1  0.75000000  0.57056714  0.42343334  1
  O  O14  1  0.25000000  0.92943286  0.92343334  1
  O  O15  1  0.75000000  0.07056714  0.07656666  1
  O  O16  1  0.25000000  0.51528085  0.21746117  1
  O  O17  1  0.75000000  0.48471915  0.78253883  1
  O  O18  1  0.25000000  0.01528085  0.28253883  1
  O  O19  1  0.75000000  0.98471915  0.71746117  1
  O  O20  1  0.25000000  0.12236977  0.51811185  1
  O  O21  1  0.75000000  0.87763023  0.48188815  1
  O  O22  1  0.25000000  0.62236977  0.98188815  1
  O  O23  1  0.75000000  0.37763023  0.01811185  1
  O  O24  1  0.75000000  0.28842276  0.32987799  1
  O  O25  1  0.25000000  0.71157724  0.67012201  1
  O  O26  1  0.75000000  0.78842276  0.17012201  1
  O  O27  1  0.25000000  0.21157724  0.82987799  1
