# generated using pymatgen
data_Na2Y2In2SiS5O24
_symmetry_space_group_name_H-M   'P 1'
_cell_length_a   9.03614017
_cell_length_b   9.03524191
_cell_length_c   23.99783858
_cell_angle_alpha   89.84400228
_cell_angle_beta   90.04945485
_cell_angle_gamma   119.77030361
_symmetry_Int_Tables_number   1
_chemical_formula_structural   Na2Y2In2SiS5O24
_chemical_formula_sum   'Na6 Y6 In6 Si3 S15 O72'
_cell_volume   1700.68697171
_cell_formula_units_Z   3
loop_
 _symmetry_equiv_pos_site_id
 _symmetry_equiv_pos_as_xyz
  1  'x, y, z'
loop_
 _atom_site_type_symbol
 _atom_site_label
 _atom_site_symmetry_multiplicity
 _atom_site_fract_x
 _atom_site_fract_y
 _atom_site_fract_z
 _atom_site_occupancy
  Na  Na0  1  0.98383155  0.97693997  0.51046189  1
  Na  Na1  1  0.00079186  0.99912665  0.99649689  1
  Na  Na2  1  0.66951660  0.31807260  0.81457074  1
  Na  Na3  1  0.64025338  0.31297269  0.33841742  1
  Na  Na4  1  0.32826103  0.68771820  0.17841029  1
  Na  Na5  1  0.37535629  0.68166838  0.66382258  1
  Y  Y6  1  0.98429487  0.00362050  0.84276053  1
  Y  Y7  1  0.00891565  0.99750670  0.15225823  1
  Y  Y8  1  0.65514409  0.32271871  0.19064377  1
  Y  Y9  1  0.66807350  0.33139236  0.97827465  1
  Y  Y10  1  0.33294109  0.66903524  0.01764736  1
  Y  Y11  1  0.33365050  0.67720596  0.31907831  1
  In  In12  1  0.01144399  0.00016745  0.35356367  1
  In  In13  1  0.97338302  0.98149684  0.64828848  1
  In  In14  1  0.66403010  0.33168801  0.67942947  1
  In  In15  1  0.66662930  0.33906132  0.48974691  1
  In  In16  1  0.34727632  0.66522458  0.52110606  1
  In  In17  1  0.34474362  0.67614424  0.80839797  1
  Si  Si18  1  0.29654982  0.99731473  0.25314294  1
  Si  Si19  1  0.69545799  0.00967056  0.74712373  1
  Si  Si20  1  0.66858257  0.62744137  0.58307031  1
  S  S21  1  0.70584072  0.70732663  0.25262382  1
  S  S22  1  0.00210406  0.29393911  0.25262566  1
  S  S23  1  0.29549054  0.29655464  0.74838346  1
  S  S24  1  0.00026977  0.69983930  0.74991889  1
  S  S25  1  0.96639197  0.33345277  0.58099331  1
  S  S26  1  0.36399680  0.03265261  0.58213447  1
  S  S27  1  0.96032092  0.62943260  0.08250518  1
  S  S28  1  0.66899496  0.03576786  0.08250508  1
  S  S29  1  0.36898738  0.33313966  0.08195240  1
  S  S30  1  0.62806602  0.66814565  0.91590787  1
  S  S31  1  0.04636947  0.37634223  0.91444766  1
  S  S32  1  0.32832402  0.96048623  0.91549264  1
  S  S33  1  0.64125464  0.97471643  0.41838402  1
  S  S34  1  0.33171536  0.36433567  0.41808779  1
  S  S35  1  0.03257103  0.66211170  0.42074115  1
  O  O36  1  0.20490568  0.01916584  0.30804360  1
  O  O37  1  0.80428956  0.79293237  0.30287643  1
  O  O38  1  0.97249146  0.18736409  0.30249978  1
  O  O39  1  0.21590849  0.19639535  0.80050475  1
  O  O40  1  0.98568938  0.78567493  0.80131587  1
  O  O41  1  0.79647475  0.03531301  0.80664788  1
  O  O42  1  0.79121404  0.98234363  0.69513317  1
  O  O43  1  0.19517514  0.20840800  0.69894493  1
  O  O44  1  0.03186887  0.80786973  0.70044483  1
  O  O45  1  0.78325161  0.80899183  0.20115174  1
  O  O46  1  0.01433998  0.20968143  0.20102107  1
  O  O47  1  0.19542985  0.98259625  0.19488521  1
  O  O48  1  0.88472051  0.35255720  0.63125273  1
  O  O49  1  0.47411874  0.10686615  0.63123870  1
  O  O50  1  0.64498890  0.51399454  0.63847016  1
  O  O51  1  0.87662677  0.53237492  0.13302955  1
  O  O52  1  0.65475700  0.12130631  0.13262169  1
  O  O53  1  0.46768886  0.34731793  0.13235353  1
  O  O54  1  0.45680265  0.31969716  0.03154872  1
  O  O55  1  0.86246524  0.53936688  0.03184623  1
  O  O56  1  0.67981530  0.13516712  0.03168714  1
  O  O57  1  0.44310998  0.13138540  0.52986013  1
  O  O58  1  0.69074289  0.54992252  0.52411185  1
  O  O59  1  0.85796811  0.29845540  0.53003893  1
  O  O60  1  0.54508112  0.68378242  0.96743896  1
  O  O61  1  0.14178331  0.46103524  0.96628219  1
  O  O62  1  0.31638354  0.86358893  0.96750943  1
  O  O63  1  0.55914235  0.86691037  0.46771152  1
  O  O64  1  0.31463327  0.45180879  0.46753333  1
  O  O65  1  0.14162565  0.68273887  0.46941576  1
  O  O66  1  0.11514784  0.64933527  0.36868043  1
  O  O67  1  0.53850580  0.89686398  0.36729020  1
  O  O68  1  0.35095390  0.46416959  0.36673430  1
  O  O69  1  0.13244419  0.47896738  0.86494483  1
  O  O70  1  0.34591287  0.87397189  0.86644619  1
  O  O71  1  0.52442921  0.64826502  0.86643379  1
  O  O72  1  0.00918815  0.81527763  0.41739196  1
  O  O73  1  0.81384978  0.99126616  0.41159422  1
  O  O74  1  0.17219165  0.19408585  0.41541367  1
  O  O75  1  0.03049586  0.20487801  0.91353775  1
  O  O76  1  0.17575967  0.98035351  0.91356671  1
  O  O77  1  0.80032470  0.82087437  0.91340498  1
  O  O78  1  -0.00023277  0.18853287  0.58610457  1
  O  O79  1  0.19772146  0.02612758  0.58935001  1
  O  O80  1  0.84058844  0.81644468  0.58555231  1
  O  O81  1  0.97501673  0.80088278  0.08253113  1
  O  O82  1  0.82257801  0.01728159  0.08394531  1
  O  O83  1  0.19601941  0.18055687  0.08358072  1
  O  O84  1  0.67518632  0.17870100  0.73974804  1
  O  O85  1  0.47073089  0.32386041  0.74635138  1
  O  O86  1  0.84258869  0.53307826  0.74606183  1
  O  O87  1  0.69874646  0.54009280  0.24760161  1
  O  O88  1  0.85493265  0.32338303  0.24711577  1
  O  O89  1  0.48728671  0.16759859  0.25119863  1
  O  O90  1  0.64536194  0.51296405  0.92058264  1
  O  O91  1  0.87291566  0.35773374  0.91851248  1
  O  O92  1  0.48532310  0.13191191  0.91966593  1
  O  O93  1  0.65857739  0.14724665  0.42446961  1
  O  O94  1  0.48349135  0.34020215  0.42179246  1
  O  O95  1  0.86342709  0.50397247  0.42357928  1
  O  O96  1  0.35251669  0.48873129  0.07852508  1
  O  O97  1  0.13439613  0.64958637  0.07933158  1
  O  O98  1  0.51326395  0.86427180  0.07958573  1
  O  O99  1  0.33581264  0.85593781  0.57558241  1
  O  O100  1  0.49609540  0.64817123  0.58110967  1
  O  O101  1  0.13068392  0.49564700  0.57386999  1
  O  O102  1  0.31643899  0.82711025  0.25486277  1
  O  O103  1  0.53014272  0.67908177  0.25616681  1
  O  O104  1  0.16110145  0.46052164  0.25673008  1
  O  O105  1  0.30205460  0.46547639  0.75332846  1
  O  O106  1  0.14857236  0.67150035  0.75608519  1
  O  O107  1  0.50614027  0.83564122  0.75080409  1
