# generated using pymatgen
data_MgFe3Co2Sb(PO4)6
_symmetry_space_group_name_H-M   'P 1'
_cell_length_a   8.73483958
_cell_length_b   8.72548389
_cell_length_c   8.72122546
_cell_angle_alpha   60.01115904
_cell_angle_beta   60.15860716
_cell_angle_gamma   60.22183979
_symmetry_Int_Tables_number   1
_chemical_formula_structural   MgFe3Co2Sb(PO4)6
_chemical_formula_sum   'Mg1 Fe3 Co2 Sb1 P6 O24'
_cell_volume   471.39639550
_cell_formula_units_Z   1
loop_
 _symmetry_equiv_pos_site_id
 _symmetry_equiv_pos_as_xyz
  1  'x, y, z'
loop_
 _atom_site_type_symbol
 _atom_site_label
 _atom_site_symmetry_multiplicity
 _atom_site_fract_x
 _atom_site_fract_y
 _atom_site_fract_z
 _atom_site_occupancy
  Mg  Mg0  1  0.74933500  0.75027800  0.75066500  1
  Fe  Fe1  1  0.11472500  0.62828600  0.62763700  1
  Fe  Fe2  1  0.38352900  0.87245800  0.87240500  1
  Fe  Fe3  1  0.94030000  0.35274500  0.35390600  1
  Co  Co4  1  0.01364000  0.99582300  0.99465500  1
  Co  Co5  1  0.51508200  0.49369700  0.49564200  1
  Sb  Sb6  1  0.56302300  0.14563100  0.14548500  1
  P  P7  1  0.24789500  0.25627300  0.53835800  1
  P  P8  1  0.24622400  0.95822800  0.25611600  1
  P  P9  1  0.24636900  0.53933000  0.95830700  1
  P  P10  1  0.74494000  0.45395600  0.05353600  1
  P  P11  1  0.74512400  0.05342600  0.74757300  1
  P  P12  1  0.74401500  0.74746500  0.45473300  1
  O  O13  1  0.08244500  0.09852100  0.34915900  1
  O  O14  1  0.08138900  0.47082700  0.09893600  1
  O  O15  1  0.08286100  0.35013100  0.46980900  1
  O  O16  1  0.20383100  0.10417200  0.73370600  1
  O  O17  1  0.42826700  0.15448900  0.40071200  1
  O  O18  1  0.30360900  0.39618000  0.54260500  1
  O  O19  1  0.20212700  0.95985200  0.10331900  1
  O  O20  1  0.30040000  0.75879700  0.39562700  1
  O  O21  1  0.57545000  0.62006900  0.00426400  1
  O  O22  1  0.30033100  0.54418100  0.75875000  1
  O  O23  1  0.75722400  0.25684700  0.06877700  1
  O  O24  1  0.57482100  0.00471100  0.80022300  1
  O  O25  1  0.42790700  0.01629400  0.15425600  1
  O  O26  1  0.20350200  0.73426800  0.95875100  1
  O  O27  1  0.73524400  0.42441700  0.24772600  1
  O  O28  1  0.42774700  0.40111600  0.01636900  1
  O  O29  1  0.73664100  0.24656600  0.59186800  1
  O  O30  1  0.75711500  0.06936100  0.91690500  1
  O  O31  1  0.73419800  0.59179500  0.42639700  1
  O  O32  1  0.57453800  0.80031300  0.62068000  1
  O  O33  1  0.75654600  0.91652400  0.25739600  1
  O  O34  1  0.91612100  0.70336700  0.49586700  1
  O  O35  1  0.91693000  0.49499000  0.88462700  1
  O  O36  1  0.91655500  0.88461800  0.70425600  1
