# generated using pymatgen
data_Na3Nb4Si5PO24
_symmetry_space_group_name_H-M   'P 1'
_cell_length_a   8.95785427
_cell_length_b   8.91645840
_cell_length_c   22.89012895
_cell_angle_alpha   89.95642469
_cell_angle_beta   90.20013703
_cell_angle_gamma   119.82927479
_symmetry_Int_Tables_number   1
_chemical_formula_structural   Na3Nb4Si5PO24
_chemical_formula_sum   'Na9 Nb12 Si15 P3 O72'
_cell_volume   1586.05006968
_cell_formula_units_Z   3
loop_
 _symmetry_equiv_pos_site_id
 _symmetry_equiv_pos_as_xyz
  1  'x, y, z'
loop_
 _atom_site_type_symbol
 _atom_site_label
 _atom_site_symmetry_multiplicity
 _atom_site_fract_x
 _atom_site_fract_y
 _atom_site_fract_z
 _atom_site_occupancy
  Na  Na0  1  0.99992751  0.63416534  0.24996328  1
  Na  Na1  1  0.99897316  0.36399086  0.75010456  1
  Na  Na2  1  0.66798197  0.96849131  0.58345243  1
  Na  Na3  1  0.00629148  0.99994035  0.49908663  1
  Na  Na4  1  0.00055310  0.99990225  0.00002732  1
  Na  Na5  1  0.66035525  0.33180123  0.83393747  1
  Na  Na6  1  0.66063350  0.32600579  0.33454459  1
  Na  Na7  1  0.34048899  0.66591097  0.16582326  1
  Na  Na8  1  0.33416108  0.66584161  0.66669208  1
  Nb  Nb9  1  0.99665795  0.99751813  0.35451398  1
  Nb  Nb10  1  0.00462862  0.00345894  0.85487627  1
  Nb  Nb11  1  0.00350550  0.99877334  0.64564376  1
  Nb  Nb12  1  0.00307647  0.00088165  0.14524399  1
  Nb  Nb13  1  0.66238859  0.33344801  0.68767447  1
  Nb  Nb14  1  0.66367837  0.33347127  0.18766009  1
  Nb  Nb15  1  0.66558091  0.33452101  0.97845316  1
  Nb  Nb16  1  0.66994580  0.33370398  0.47863012  1
  Nb  Nb17  1  0.32371942  0.66128926  0.02167351  1
  Nb  Nb18  1  0.32968217  0.66679594  0.52091497  1
  Nb  Nb19  1  0.33605247  0.66986334  0.31221827  1
  Nb  Nb20  1  0.33575814  0.67368747  0.81255006  1
  Si  Si21  1  0.29012209  0.00482259  0.25075718  1
  Si  Si22  1  0.70983434  0.71451853  0.24915400  1
  Si  Si23  1  0.00001896  0.28633804  0.24992347  1
  Si  Si24  1  0.29092302  0.28801792  0.75038639  1
  Si  Si25  1  0.99870642  0.71231944  0.75095740  1
  Si  Si26  1  0.71079091  0.99624038  0.74966549  1
  Si  Si27  1  0.95738313  0.33677586  0.58420173  1
  Si  Si28  1  0.37666279  0.04788164  0.58232859  1
  Si  Si29  1  0.66629923  0.62063385  0.58247171  1
  Si  Si30  1  0.95332731  0.62175002  0.08362697  1
  Si  Si31  1  0.37778442  0.33361379  0.08251758  1
  Si  Si32  1  0.04313757  0.37775104  0.91599196  1
  Si  Si33  1  0.33346884  0.95670451  0.91774357  1
  Si  Si34  1  0.62283080  0.95594558  0.41746472  1
  Si  Si35  1  0.04341915  0.66664144  0.41573051  1
  P  P36  1  0.66636462  0.04555643  0.08283265  1
  P  P37  1  0.61967423  0.66816062  0.91746074  1
  P  P38  1  0.33326702  0.37894438  0.41664028  1
  O  O39  1  0.19640836  0.03045039  0.30770107  1
  O  O40  1  0.83714000  0.80117489  0.30623371  1
  O  O41  1  0.97033531  0.16555045  0.30730263  1
  O  O42  1  0.19584460  0.16578398  0.80739510  1
  O  O43  1  0.97005560  0.80425360  0.80770968  1
  O  O44  1  0.83777390  0.03374590  0.80609949  1
  O  O45  1  0.79871587  0.96988319  0.69062496  1
  O  O46  1  0.16288832  0.19870331  0.69379598  1
  O  O47  1  0.03033068  0.83343344  0.69320862  1
  O  O48  1  0.80373854  0.83417516  0.19226067  1
  O  O49  1  0.02963919  0.19506922  0.19268466  1
  O  O50  1  0.16280067  0.96411806  0.19373526  1
  O  O51  1  0.86892893  0.36425160  0.64268997  1
  O  O52  1  0.50369684  0.13424102  0.63943752  1
  O  O53  1  0.63711173  0.49942443  0.64018894  1
  O  O54  1  0.86771456  0.50396400  0.14223858  1
  O  O55  1  0.63934293  0.13228414  0.13762088  1
  O  O56  1  0.50042373  0.35960870  0.13987475  1
  O  O57  1  0.47243305  0.30442854  0.02605489  1
  O  O58  1  0.83240846  0.52436539  0.02681177  1
  O  O59  1  0.69345103  0.16036095  0.02835915  1
  O  O60  1  0.47140619  0.16734378  0.52551596  1
  O  O61  1  0.69602980  0.52859692  0.52575902  1
  O  O62  1  0.82928458  0.29940523  0.52755257  1
  O  O63  1  0.53367833  0.69337483  0.97159833  1
  O  O64  1  0.16793972  0.47220318  0.97307652  1
  O  O65  1  0.30844684  0.83352499  0.97388066  1
  O  O66  1  0.53348197  0.83736683  0.47565174  1
  O  O67  1  0.30732393  0.46657258  0.47124598  1
  O  O68  1  0.16713817  0.69209850  0.47263080  1
  O  O69  1  0.13303513  0.63724398  0.35771869  1
  O  O70  1  0.49915679  0.85782442  0.36060572  1
  O  O71  1  0.35927792  0.49259144  0.36206867  1
  O  O72  1  0.13510756  0.49571713  0.85798844  1
  O  O73  1  0.36259103  0.86278918  0.86016564  1
  O  O74  1  0.50645647  0.63859969  0.86212949  1
  O  O75  1  0.02823680  0.84109867  0.41027459  1
  O  O76  1  0.81368453  0.97662259  0.40960001  1
  O  O77  1  0.17093062  0.19895157  0.41042489  1
  O  O78  1  0.02255140  0.18555025  0.91029322  1
  O  O79  1  0.16038881  0.97210957  0.91031075  1
  O  O80  1  0.80054956  0.82808818  0.90994048  1
  O  O81  1  0.96699078  0.15872732  0.58980060  1
  O  O82  1  0.18651139  0.02531019  0.58995140  1
  O  O83  1  0.83277989  0.81504813  0.58977545  1
  O  O84  1  0.97293958  0.81306387  0.08975672  1
  O  O85  1  0.82920630  0.02852672  0.08958407  1
  O  O86  1  0.18694003  0.16401331  0.09043027  1
  O  O87  1  0.69871462  0.17312914  0.74326294  1
  O  O88  1  0.47975055  0.30656496  0.74348893  1
  O  O89  1  0.83410481  0.51721314  0.74372204  1
  O  O90  1  0.69940075  0.52544758  0.24251871  1
  O  O91  1  0.83310595  0.31404371  0.24249316  1
  O  O92  1  0.48152154  0.16989628  0.24225149  1
  O  O93  1  0.63851268  0.50385199  0.92358592  1
  O  O94  1  0.85363257  0.35926634  0.92479650  1
  O  O95  1  0.50470376  0.14705688  0.92417542  1
  O  O96  1  0.63856085  0.14594003  0.42293654  1
  O  O97  1  0.49562784  0.36130375  0.42285515  1
  O  O98  1  0.85292595  0.49630356  0.42357994  1
  O  O99  1  0.36395786  0.50867135  0.07588596  1
  O  O100  1  0.14617077  0.64342159  0.07604017  1
  O  O101  1  0.50574765  0.86517997  0.07584090  1
  O  O102  1  0.36557740  0.85852703  0.57593752  1
  O  O103  1  0.49880642  0.64709158  0.57615701  1
  O  O104  1  0.14789001  0.50397069  0.57556940  1
  O  O105  1  0.30075738  0.82625414  0.25735050  1
  O  O106  1  0.51862034  0.68856443  0.25766259  1
  O  O107  1  0.16677743  0.48086452  0.25741264  1
  O  O108  1  0.30230090  0.47555961  0.75787303  1
  O  O109  1  0.16750892  0.68571581  0.75721839  1
  O  O110  1  0.52068835  0.82648338  0.75741997  1
