# generated using pymatgen
data_Na3La2Ge2P5SO24
_symmetry_space_group_name_H-M   'P 1'
_cell_length_a   8.99273779
_cell_length_b   8.95614504
_cell_length_c   22.69732590
_cell_angle_alpha   90.18903316
_cell_angle_beta   90.19781762
_cell_angle_gamma   119.12704005
_symmetry_Int_Tables_number   1
_chemical_formula_structural   Na3La2Ge2P5SO24
_chemical_formula_sum   'Na9 La6 Ge6 P15 S3 O72'
_cell_volume   1596.84288839
_cell_formula_units_Z   3
loop_
 _symmetry_equiv_pos_site_id
 _symmetry_equiv_pos_as_xyz
  1  'x, y, z'
loop_
 _atom_site_type_symbol
 _atom_site_label
 _atom_site_symmetry_multiplicity
 _atom_site_fract_x
 _atom_site_fract_y
 _atom_site_fract_z
 _atom_site_occupancy
  Na  Na0  1  0.00538257  0.35760570  0.75130282  1
  Na  Na1  1  0.67243516  0.94993194  0.58329530  1
  Na  Na2  1  0.05408496  0.32934793  0.08311193  1
  Na  Na3  1  0.01615944  0.99566449  0.49075462  1
  Na  Na4  1  0.00707450  0.98788760  0.99001775  1
  Na  Na5  1  0.65460349  0.32408605  0.83555274  1
  Na  Na6  1  0.67520363  0.33308322  0.33408147  1
  Na  Na7  1  0.35784265  0.67698346  0.16954636  1
  Na  Na8  1  0.33763858  0.66709385  0.66931422  1
  La  La9  1  0.01857792  0.99680087  0.64049563  1
  La  La10  1  0.99826965  0.98133719  0.14149073  1
  La  La11  1  0.33750196  0.67981945  0.01518949  1
  La  La12  1  0.31509702  0.66326665  0.51537813  1
  La  La13  1  0.32658825  0.66581314  0.32394540  1
  La  La14  1  0.33744811  0.67998092  0.82687252  1
  Ge  Ge15  1  0.95235354  0.97555980  0.34658978  1
  Ge  Ge16  1  0.01771558  0.01659627  0.84347776  1
  Ge  Ge17  1  0.66342151  0.33929825  0.68854770  1
  Ge  Ge18  1  0.67575405  0.34255379  0.18624729  1
  Ge  Ge19  1  0.66051568  0.32149710  0.98243987  1
  Ge  Ge20  1  0.67745061  0.34094288  0.48267938  1
  P  P21  1  0.70048615  0.68309828  0.24860883  1
  P  P22  1  0.97610188  0.28083995  0.24793894  1
  P  P23  1  0.30965973  0.29352851  0.75040585  1
  P  P24  1  0.97747375  0.69224350  0.75289908  1
  P  P25  1  0.71288226  0.01555527  0.74626825  1
  P  P26  1  0.94010800  0.34512331  0.58700254  1
  P  P27  1  0.41232142  0.07397789  0.58124601  1
  P  P28  1  0.65537237  0.59835216  0.58314056  1
  P  P29  1  0.93227942  0.59263475  0.08002863  1
  P  P30  1  0.65772441  0.06151132  0.08555643  1
  P  P31  1  0.40485651  0.34319565  0.08470535  1
  P  P32  1  0.99811709  0.33107808  0.91619125  1
  P  P33  1  0.33350617  0.00634107  0.91602313  1
  P  P34  1  0.65864753  0.99944076  0.42044656  1
  P  P35  1  0.99428184  0.66822447  0.41530564  1
  S  S36  1  0.31486867  0.02398008  0.25200876  1
  S  S37  1  0.66993311  0.66695019  0.91709159  1
  S  S38  1  0.33114034  0.32973235  0.41671667  1
  O  O39  1  0.21831444  0.03223988  0.30380474  1
  O  O40  1  0.81542981  0.77791790  0.30499943  1
  O  O41  1  0.95073456  0.15057770  0.30100365  1
  O  O42  1  0.21727224  0.17342955  0.80464627  1
  O  O43  1  0.96977375  0.80121350  0.80675579  1
  O  O44  1  0.84897356  0.04781310  0.79746735  1
  O  O45  1  0.77821118  0.99056869  0.68740210  1
  O  O46  1  0.19876702  0.22454845  0.69581758  1
  O  O47  1  0.00922027  0.78684231  0.69536422  1
  O  O48  1  0.77924030  0.78760745  0.19424660  1
  O  O49  1  0.00642635  0.21767857  0.18950580  1
  O  O50  1  0.22331428  0.00338202  0.19632425  1
  O  O51  1  0.85234352  0.35084277  0.64629252  1
  O  O52  1  0.50423974  0.15962241  0.64048364  1
  O  O53  1  0.65446509  0.50679010  0.64191454  1
  O  O54  1  0.85101166  0.50414890  0.13994260  1
  O  O55  1  0.65358870  0.15588637  0.14290692  1
  O  O56  1  0.50101933  0.35051750  0.14349221  1
  O  O57  1  0.50049132  0.34611401  0.02795674  1
  O  O58  1  0.83887644  0.48985927  0.02457432  1
  O  O59  1  0.65401017  0.14866525  0.02696367  1
  O  O60  1  0.51143906  0.16179203  0.52486354  1
  O  O61  1  0.65070436  0.50133369  0.52602467  1
  O  O62  1  0.84917693  0.34989884  0.52927727  1
  O  O63  1  0.58765731  0.69836809  0.96853637  1
  O  O64  1  0.11281769  0.40637105  0.97111322  1
  O  O65  1  0.29367227  0.88760797  0.96917403  1
  O  O66  1  0.59244182  0.89116997  0.47620254  1
  O  O67  1  0.30045898  0.41125725  0.46883255  1
  O  O68  1  0.11046359  0.71513594  0.46970010  1
  O  O69  1  0.06636521  0.62004372  0.36285940  1
  O  O70  1  0.54067454  0.91755287  0.36787811  1
  O  O71  1  0.36637312  0.43970110  0.36458206  1
  O  O72  1  0.07312771  0.44604163  0.86227017  1
  O  O73  1  0.38511124  0.94086696  0.86224596  1
  O  O74  1  0.56271647  0.63128537  0.86405001  1
  O  O75  1  0.98012169  0.83536850  0.40275087  1
  O  O76  1  0.84008662  0.01727888  0.40672616  1
  O  O77  1  0.17857370  0.15997815  0.40749761  1
  O  O78  1  0.98089189  0.14945925  0.90300756  1
  O  O79  1  0.16578942  0.01485013  0.90401757  1
  O  O80  1  0.83883171  0.81976671  0.90926357  1
  O  O81  1  0.94582467  0.17678270  0.58228940  1
  O  O82  1  0.23773728  0.06137477  0.57432233  1
  O  O83  1  0.81372050  0.77644531  0.57869315  1
  O  O84  1  0.94638783  0.76826545  0.07338023  1
  O  O85  1  0.82559697  0.05547982  0.08198961  1
  O  O86  1  0.22713879  0.18353481  0.08160342  1
  O  O87  1  0.70617522  0.19020563  0.74609638  1
  O  O88  1  0.48594034  0.30105034  0.74473386  1
  O  O89  1  0.80751558  0.51539933  0.74969055  1
  O  O90  1  0.69848254  0.50701261  0.24534026  1
  O  O91  1  0.80705187  0.29346425  0.24580585  1
  O  O92  1  0.48304067  0.18533307  0.25039291  1
  O  O93  1  0.69196804  0.51282623  0.92619193  1
  O  O94  1  0.81245325  0.30190448  0.92621658  1
  O  O95  1  0.48395371  0.19074984  0.92837225  1
  O  O96  1  0.69326863  0.18776150  0.42774873  1
  O  O97  1  0.48469279  0.30751071  0.42547895  1
  O  O98  1  0.81202552  0.51506814  0.42730652  1
  O  O99  1  0.37733532  0.50098416  0.08578294  1
  O  O100  1  0.11006005  0.60568966  0.08184192  1
  O  O101  1  0.50143201  0.88315020  0.08782494  1
  O  O102  1  0.39616115  0.89365630  0.58390188  1
  O  O103  1  0.49704089  0.62365768  0.58475016  1
  O  O104  1  0.11856062  0.50174794  0.58900710  1
  O  O105  1  0.34420527  0.87429021  0.25538257  1
  O  O106  1  0.52149257  0.65640983  0.25700924  1
  O  O107  1  0.12501832  0.45651243  0.26068264  1
  O  O108  1  0.32901828  0.47099899  0.76143746  1
  O  O109  1  0.12434428  0.65110773  0.76074674  1
  O  O110  1  0.53689244  0.86593994  0.75799229  1
