# generated using pymatgen
data_KMgCl3
_symmetry_space_group_name_H-M   'P 1'
_cell_length_a   6.95587220
_cell_length_b   6.99846994
_cell_length_c   9.91599163
_cell_angle_alpha   90.00000000
_cell_angle_beta   90.00000000
_cell_angle_gamma   90.00000000
_symmetry_Int_Tables_number   1
_chemical_formula_structural   KMgCl3
_chemical_formula_sum   'K4 Mg4 Cl12'
_cell_volume   482.71505868
_cell_formula_units_Z   4
loop_
 _symmetry_equiv_pos_site_id
 _symmetry_equiv_pos_as_xyz
  1  'x, y, z'
loop_
 _atom_site_type_symbol
 _atom_site_label
 _atom_site_symmetry_multiplicity
 _atom_site_fract_x
 _atom_site_fract_y
 _atom_site_fract_z
 _atom_site_occupancy
  K  K0  1  0.00681150  0.96625156  0.75000000  1
  K  K1  1  0.50681150  0.53374844  0.25000000  1
  K  K2  1  0.49318850  0.46625156  0.75000000  1
  K  K3  1  0.99318850  0.03374844  0.25000000  1
  Mg  Mg4  1  0.50000000  -0.00000000  0.50000000  1
  Mg  Mg5  1  0.00000000  0.50000000  0.50000000  1
  Mg  Mg6  1  0.00000000  0.50000000  -0.00000000  1
  Mg  Mg7  1  0.50000000  -0.00000000  -0.00000000  1
  Cl  Cl8  1  0.28738185  0.71307966  0.97396444  1
  Cl  Cl9  1  0.78738185  0.78692034  0.02603556  1
  Cl  Cl10  1  0.21261815  0.21307966  0.52603556  1
  Cl  Cl11  1  0.71261815  0.28692034  0.47396444  1
  Cl  Cl12  1  0.05139074  0.49371921  0.25000000  1
  Cl  Cl13  1  0.55139074  0.00628079  0.75000000  1
  Cl  Cl14  1  0.44860926  0.99371921  0.25000000  1
  Cl  Cl15  1  0.94860926  0.50628079  0.75000000  1
  Cl  Cl16  1  0.71261815  0.28692034  0.02603556  1
  Cl  Cl17  1  0.21261815  0.21307966  0.97396444  1
  Cl  Cl18  1  0.78738185  0.78692034  0.47396444  1
  Cl  Cl19  1  0.28738185  0.71307966  0.52603556  1
