# generated using pymatgen
data_Na5Al2Ga2P5SO24
_symmetry_space_group_name_H-M   'P 1'
_cell_length_a   8.57599244
_cell_length_b   8.59659271
_cell_length_c   21.74393410
_cell_angle_alpha   90.37919687
_cell_angle_beta   89.81952856
_cell_angle_gamma   119.91026565
_symmetry_Int_Tables_number   1
_chemical_formula_structural   Na5Al2Ga2P5SO24
_chemical_formula_sum   'Na15 Al6 Ga6 P15 S3 O72'
_cell_volume   1389.51092936
_cell_formula_units_Z   3
loop_
 _symmetry_equiv_pos_site_id
 _symmetry_equiv_pos_as_xyz
  1  'x, y, z'
loop_
 _atom_site_type_symbol
 _atom_site_label
 _atom_site_symmetry_multiplicity
 _atom_site_fract_x
 _atom_site_fract_y
 _atom_site_fract_z
 _atom_site_occupancy
  Na  Na0  1  0.63974599  0.00014382  0.25030265  1
  Na  Na1  1  0.99804145  0.36298134  0.74993386  1
  Na  Na2  1  0.36473671  0.99968735  0.75041856  1
  Na  Na3  1  0.02980001  0.69866750  0.58295110  1
  Na  Na4  1  0.66722835  0.96918833  0.58342853  1
  Na  Na5  1  0.30145546  0.96952011  0.08222889  1
  Na  Na6  1  0.03351412  0.33533239  0.08349213  1
  Na  Na7  1  0.97294334  0.66720748  0.91667048  1
  Na  Na8  1  0.70175262  0.66812645  0.41705162  1
  Na  Na9  1  0.00993504  0.01002144  0.49973791  1
  Na  Na10  1  0.99819247  0.00438908  0.99882669  1
  Na  Na11  1  0.65996879  0.32944017  0.83402557  1
  Na  Na12  1  0.67477933  0.33666912  0.33343232  1
  Na  Na13  1  0.33495795  0.65677541  0.16730760  1
  Na  Na14  1  0.33940700  0.65883263  0.66676106  1
  Al  Al15  1  0.00947330  0.01248983  0.85066075  1
  Al  Al16  1  0.00367470  0.00530839  0.64877910  1
  Al  Al17  1  0.66482569  0.33883826  0.68523506  1
  Al  Al18  1  0.66307883  0.32129169  0.98158946  1
  Al  Al19  1  0.33279325  0.66929624  0.51953931  1
  Al  Al20  1  0.33392271  0.66823393  0.81413159  1
  Ga  Ga21  1  0.99035032  0.99552682  0.35187826  1
  Ga  Ga22  1  0.98952035  0.99745322  0.14792823  1
  Ga  Ga23  1  0.67502949  0.34700501  0.18384969  1
  Ga  Ga24  1  0.67361262  0.32792047  0.48313771  1
  Ga  Ga25  1  0.33253346  0.66452155  0.01749212  1
  Ga  Ga26  1  0.32631233  0.65938216  0.31555398  1
  P  P27  1  0.70597272  0.70293249  0.25068575  1
  P  P28  1  0.00374452  0.29453929  0.25009414  1
  P  P29  1  0.29253175  0.29260747  0.74992194  1
  P  P30  1  0.99429184  0.71078863  0.75040161  1
  P  P31  1  0.71077331  0.99494335  0.75011664  1
  P  P32  1  0.96270404  0.33309997  0.58495012  1
  P  P33  1  0.37522211  0.04788163  0.58412151  1
  P  P34  1  0.66184596  0.62075557  0.58342916  1
  P  P35  1  0.95234962  0.62392142  0.08115453  1
  P  P36  1  0.66478129  0.04157702  0.08312296  1
  P  P37  1  0.38288917  0.33762917  0.08249073  1
  P  P38  1  0.04127867  0.37094404  0.91565630  1
  P  P39  1  0.33643595  0.96198858  0.91563963  1
  P  P40  1  0.61934305  0.95854303  0.41708027  1
  P  P41  1  0.04607380  0.66770960  0.41764356  1
  S  S42  1  0.28939825  0.00114751  0.25028905  1
  S  S43  1  0.62266172  0.66736150  0.91554879  1
  S  S44  1  0.33059486  0.37471873  0.41772932  1
  O  O45  1  0.20929334  0.03217782  0.30525133  1
  O  O46  1  0.81994022  0.78251318  0.30941385  1
  O  O47  1  0.96366345  0.17086675  0.30618367  1
  O  O48  1  0.20953686  0.16919376  0.80608791  1
  O  O49  1  0.96685249  0.79694690  0.80859046  1
  O  O50  1  0.83539045  0.03532909  0.80589815  1
  O  O51  1  0.79363364  0.96623658  0.69119685  1
  O  O52  1  0.16780055  0.20803047  0.69388523  1
  O  O53  1  0.03555726  0.83116361  0.69311169  1
  O  O54  1  0.78802548  0.82780230  0.19450342  1
  O  O55  1  0.03721623  0.21461231  0.19057249  1
  O  O56  1  0.18164925  0.96871702  0.19318318  1
  O  O57  1  0.87724387  0.37240494  0.64190642  1
  O  O58  1  0.49794939  0.12751930  0.64145527  1
  O  O59  1  0.63299904  0.50208190  0.63944085  1
  O  O60  1  0.88032835  0.50447164  0.13834454  1
  O  O61  1  0.62448288  0.11737912  0.14233484  1
  O  O62  1  0.49154357  0.36697062  0.14131060  1
  O  O63  1  0.46754693  0.29918490  0.02609011  1
  O  O64  1  0.83745864  0.53757753  0.02337406  1
  O  O65  1  0.70299482  0.16652150  0.02773666  1
  O  O66  1  0.45566806  0.16151228  0.52663233  1
  O  O67  1  0.70594698  0.54745068  0.52461728  1
  O  O68  1  0.84044124  0.28845024  0.52816265  1
  O  O69  1  0.54860408  0.70223452  0.97182768  1
  O  O70  1  0.15506934  0.45087826  0.97451524  1
  O  O71  1  0.29378287  0.84217647  0.97369831  1
  O  O72  1  0.53512031  0.83409953  0.47379679  1
  O  O73  1  0.30161724  0.46019194  0.47257516  1
  O  O74  1  0.16009119  0.69530758  0.47584753  1
  O  O75  1  0.12568718  0.63171353  0.35984677  1
  O  O76  1  0.51014949  0.87556400  0.35766973  1
  O  O77  1  0.36997410  0.48737022  0.36203167  1
  O  O78  1  0.12859683  0.49663650  0.85946987  1
  O  O79  1  0.36646339  0.87149298  0.85865167  1
  O  O80  1  0.50792043  0.63562510  0.86116141  1
  O  O81  1  0.02613396  0.83787742  0.41208418  1
  O  O82  1  0.80786829  0.97255223  0.41305224  1
  O  O83  1  0.16906664  0.19602183  0.41146477  1
  O  O84  1  0.02019459  0.18398071  0.90733763  1
  O  O85  1  0.16142019  0.97311317  0.90782068  1
  O  O86  1  0.80564825  0.82699875  0.90870557  1
  O  O87  1  0.97679999  0.16238755  0.59280263  1
  O  O88  1  0.18346403  0.01798023  0.59248457  1
  O  O89  1  0.83237442  0.81108882  0.59160471  1
  O  O90  1  0.97981002  0.81462035  0.08842239  1
  O  O91  1  0.83782444  0.02904757  0.08746529  1
  O  O92  1  0.19190561  0.16540989  0.08790996  1
  O  O93  1  0.68968433  0.16560285  0.74296956  1
  O  O94  1  0.47819402  0.30669720  0.74165115  1
  O  O95  1  0.83144765  0.51947698  0.74274892  1
  O  O96  1  0.68738432  0.51716417  0.24480006  1
  O  O97  1  0.82742221  0.30332543  0.24428320  1
  O  O98  1  0.47170429  0.16057712  0.24538831  1
  O  O99  1  0.64344264  0.50588057  0.92179135  1
  O  O100  1  0.85551793  0.36178284  0.92337620  1
  O  O101  1  0.50428551  0.14817268  0.92376567  1
  O  O102  1  0.63829970  0.14496548  0.42263235  1
  O  O103  1  0.49477463  0.35982391  0.42329227  1
  O  O104  1  0.85256163  0.50313604  0.42296248  1
  O  O105  1  0.35444412  0.50059647  0.07652388  1
  O  O106  1  0.14412949  0.64517432  0.07646905  1
  O  O107  1  0.49558160  0.85593503  0.07587276  1
  O  O108  1  0.35691697  0.85693815  0.57690996  1
  O  O109  1  0.49673088  0.64607448  0.57546817  1
  O  O110  1  0.14677720  0.50483512  0.57581769  1
  O  O111  1  0.31086523  0.83984400  0.25460100  1
  O  O112  1  0.52080061  0.69376675  0.25679535  1
  O  O113  1  0.17104457  0.48071101  0.25600174  1
  O  O114  1  0.30760119  0.47851148  0.75926076  1
  O  O115  1  0.16606791  0.69006175  0.75710102  1
  O  O116  1  0.51972722  0.83078946  0.75823259  1
