# generated using pymatgen
data_Na6Ti7ZnSi6(SO8)6
_symmetry_space_group_name_H-M   'P 1'
_cell_length_a   17.57221381
_cell_length_b   8.75718122
_cell_length_c   22.45963096
_cell_angle_alpha   89.93068861
_cell_angle_beta   90.10886115
_cell_angle_gamma   119.91504810
_symmetry_Int_Tables_number   1
_chemical_formula_structural   Na6Ti7ZnSi6(SO8)6
_chemical_formula_sum   'Na18 Ti21 Zn3 Si18 S18 O144'
_cell_volume   2995.67292014
_cell_formula_units_Z   3
loop_
 _symmetry_equiv_pos_site_id
 _symmetry_equiv_pos_as_xyz
  1  'x, y, z'
loop_
 _atom_site_type_symbol
 _atom_site_label
 _atom_site_symmetry_multiplicity
 _atom_site_fract_x
 _atom_site_fract_y
 _atom_site_fract_z
 _atom_site_occupancy
  Na  Na0  1  0.68681544  0.37605088  0.25057961  1
  Na  Na1  1  0.99696390  0.64058061  0.25041268  1
  Na  Na2  1  0.99726630  0.36396291  0.75151531  1
  Na  Na3  1  0.49401897  0.36099317  0.74875015  1
  Na  Na4  1  0.19034604  0.01040308  0.75069943  1
  Na  Na5  1  0.68585647  0.00776676  0.74848514  1
  Na  Na6  1  0.99849065  0.99872507  0.49515175  1
  Na  Na7  1  0.50327156  0.00018987  0.50042310  1
  Na  Na8  1  0.00477259  0.00644213  0.99951865  1
  Na  Na9  1  0.50092246  0.99567252  0.99794388  1
  Na  Na10  1  0.33227072  0.33716098  0.82912662  1
  Na  Na11  1  0.82983260  0.33603911  0.82955897  1
  Na  Na12  1  0.33341122  0.33061145  0.32943489  1
  Na  Na13  1  0.83324045  0.32994540  0.33371424  1
  Na  Na14  1  0.17268967  0.66880423  0.16502390  1
  Na  Na15  1  0.66510153  0.66913974  0.17006169  1
  Na  Na16  1  0.17511087  0.66756953  0.66704774  1
  Na  Na17  1  0.67014922  0.66298701  0.66390485  1
  Ti  Ti18  1  0.00134633  0.98581243  0.35787649  1
  Ti  Ti19  1  0.50245852  0.01263941  0.35748834  1
  Ti  Ti20  1  0.00892956  0.02356171  0.85697478  1
  Ti  Ti21  1  0.50500829  0.00029943  0.84914523  1
  Ti  Ti22  1  0.99694555  0.00765959  0.64965687  1
  Ti  Ti23  1  0.50033724  0.00422380  0.65390053  1
  Ti  Ti24  1  0.00545773  0.99384235  0.14998202  1
  Ti  Ti25  1  0.49973070  0.00243415  0.14588217  1
  Ti  Ti26  1  0.33413659  0.33960243  0.18732073  1
  Ti  Ti27  1  0.32440449  0.33202341  0.98319455  1
  Ti  Ti28  1  0.83257940  0.32294074  0.97371914  1
  Ti  Ti29  1  0.33566583  0.34956119  0.47584754  1
  Ti  Ti30  1  0.83064838  0.32911680  0.47151657  1
  Ti  Ti31  1  0.16025230  0.65458474  0.01795749  1
  Ti  Ti32  1  0.65738994  0.67177125  0.02047422  1
  Ti  Ti33  1  0.16112028  0.65599565  0.51638591  1
  Ti  Ti34  1  0.66629704  0.67019226  0.51219431  1
  Ti  Ti35  1  0.16248728  0.66062552  0.31536212  1
  Ti  Ti36  1  0.66762814  0.66228602  0.31589125  1
  Ti  Ti37  1  0.17102750  0.67242370  0.81569969  1
  Ti  Ti38  1  0.67018127  0.68074059  0.80787680  1
  Zn  Zn39  1  0.33296216  0.33744760  0.68949392  1
  Zn  Zn40  1  0.82722367  0.32939168  0.68519641  1
  Zn  Zn41  1  0.83400206  0.33804239  0.18418616  1
  Si  Si42  1  0.14888082  0.00519690  0.25260933  1
  Si  Si43  1  0.85436240  0.71531393  0.24958391  1
  Si  Si44  1  0.49757050  0.28988609  0.24988880  1
  Si  Si45  1  0.14610704  0.29630133  0.75016512  1
  Si  Si46  1  0.64784458  0.29582146  0.75093579  1
  Si  Si47  1  0.49699639  0.70943812  0.75030856  1
  Si  Si48  1  0.35458140  0.99164246  0.75221253  1
  Si  Si49  1  0.85820349  0.99964326  0.75211918  1
  Si  Si50  1  0.47417321  0.62006136  0.08356757  1
  Si  Si51  1  0.18568999  0.33459283  0.08579077  1
  Si  Si52  1  0.02265572  0.38104173  0.91530657  1
  Si  Si53  1  0.16820381  0.95801189  0.91763322  1
  Si  Si54  1  0.66198921  0.95370441  0.91553092  1
  Si  Si55  1  0.81158505  0.95110827  0.41495652  1
  Si  Si56  1  0.16543227  0.37520651  0.41523559  1
  Si  Si57  1  0.66569377  0.38042187  0.41697788  1
  Si  Si58  1  0.02176974  0.66388371  0.41746147  1
  Si  Si59  1  0.52381106  0.66998751  0.41442243  1
  S  S60  1  0.64188576  0.99576211  0.24968557  1
  S  S61  1  0.35664564  0.71542275  0.25050756  1
  S  S62  1  0.00050146  0.28542587  0.25042209  1
  S  S63  1  0.99927026  0.71556271  0.75043810  1
  S  S64  1  0.47963809  0.33375450  0.58277830  1
  S  S65  1  0.97936451  0.33451331  0.58353424  1
  S  S66  1  0.18722418  0.03932636  0.58282632  1
  S  S67  1  0.68639604  0.03872739  0.58265187  1
  S  S68  1  0.33354014  0.62715066  0.58258615  1
  S  S69  1  0.83357184  0.62476278  0.58301893  1
  S  S70  1  0.97829829  0.62336449  0.08258576  1
  S  S71  1  0.33320400  0.04500452  0.08371665  1
  S  S72  1  0.83281595  0.04315775  0.08269750  1
  S  S73  1  0.68802063  0.33482966  0.08246842  1
  S  S74  1  0.31162823  0.66839024  0.91793713  1
  S  S75  1  0.80939951  0.66550473  0.91819999  1
  S  S76  1  0.52169032  0.37878045  0.91697791  1
  S  S77  1  0.30945124  0.95419022  0.41736285  1
  O  O78  1  0.09924887  0.03057250  0.30907210  1
  O  O79  1  0.60062402  0.02512782  0.30296278  1
  O  O80  1  0.40957821  0.79514074  0.30428558  1
  O  O81  1  0.92095582  0.80959332  0.30596953  1
  O  O82  1  0.48712390  0.16000051  0.30689439  1
  O  O83  1  0.98885530  0.18391476  0.30434629  1
  O  O84  1  0.09749325  0.16577887  0.80787314  1
  O  O85  1  0.59964402  0.16336582  0.80768091  1
  O  O86  1  0.48658643  0.80609285  0.80909527  1
  O  O87  1  0.98744166  0.79473469  0.80431670  1
  O  O88  1  0.41873690  0.02713171  0.80946968  1
  O  O89  1  0.92089552  0.02470156  0.80832505  1
  O  O90  1  0.40143289  0.96016026  0.69259431  1
  O  O91  1  0.90179400  0.96529992  0.69114720  1
  O  O92  1  0.07779067  0.19146497  0.69277085  1
  O  O93  1  0.58114245  0.20462747  0.69271027  1
  O  O94  1  0.01454339  0.82622065  0.69608056  1
  O  O95  1  0.52194472  0.84408483  0.69271434  1
  O  O96  1  0.39912456  0.82254790  0.19596198  1
  O  O97  1  0.90453038  0.83766769  0.19007050  1
  O  O98  1  0.01501173  0.20851975  0.19580281  1
  O  O99  1  0.51288497  0.18342934  0.19287507  1
  O  O100  1  0.08181321  0.96101753  0.19379630  1
  O  O101  1  0.58831441  0.97414265  0.19482465  1
  O  O102  1  0.44197685  0.35799314  0.63824000  1
  O  O103  1  0.94449794  0.36262405  0.63938040  1
  O  O104  1  0.23749869  0.11206852  0.63834076  1
  O  O105  1  0.73625317  0.11024811  0.63867073  1
  O  O106  1  0.31738359  0.52012093  0.63597270  1
  O  O107  1  0.82140820  0.52251631  0.63789355  1
  O  O108  1  0.43174818  0.49762559  0.14201996  1
  O  O109  1  0.94387646  0.52408667  0.13856303  1
  O  O110  1  0.31970758  0.12416929  0.13758574  1
  O  O111  1  0.81644499  0.11767795  0.13655389  1
  O  O112  1  0.25117583  0.36090826  0.14123996  1
  O  O113  1  0.73685413  0.36131748  0.13860419  1
  O  O114  1  0.23244684  0.30118103  0.02618857  1
  O  O115  1  0.73184823  0.30756373  0.03081018  1
  O  O116  1  0.41474822  0.52495874  0.02454090  1
  O  O117  1  0.92220308  0.53311493  0.03064938  1
  O  O118  1  0.34916084  0.15421726  0.02974783  1
  O  O119  1  0.84363075  0.15599310  0.02924871  1
  O  O120  1  0.23088233  0.15170782  0.53029514  1
  O  O121  1  0.73265388  0.15252390  0.53090824  1
  O  O122  1  0.34435243  0.53695396  0.52874799  1
  O  O123  1  0.84561491  0.53860952  0.52997970  1
  O  O124  1  0.42288914  0.31222528  0.53028462  1
  O  O125  1  0.92486214  0.31162260  0.53118056  1
  O  O126  1  0.26886265  0.68992923  0.97130079  1
  O  O127  1  0.76735857  0.68899390  0.97158276  1
  O  O128  1  0.08374013  0.46955788  0.97426117  1
  O  O129  1  0.57890846  0.46658689  0.97057538  1
  O  O130  1  0.15682294  0.83037252  0.97454891  1
  O  O131  1  0.65312305  0.83103923  0.97385840  1
  O  O132  1  0.26951374  0.84549901  0.47101073  1
  O  O133  1  0.76452595  0.82979985  0.47419893  1
  O  O134  1  0.15646330  0.48025140  0.47371360  1
  O  O135  1  0.64859683  0.46803160  0.47506921  1
  O  O136  1  0.08572597  0.69438323  0.47469846  1
  O  O137  1  0.58348280  0.70279933  0.47422071  1
  O  O138  1  0.06778975  0.63401656  0.35780961  1
  O  O139  1  0.56653022  0.62897372  0.35718161  1
  O  O140  1  0.25594989  0.87672026  0.36304014  1
  O  O141  1  0.74689712  0.86388319  0.35775317  1
  O  O142  1  0.18586218  0.50882650  0.35831635  1
  O  O143  1  0.68440549  0.49350672  0.35597138  1
  O  O144  1  0.06574923  0.49815994  0.85582662  1
  O  O145  1  0.56326756  0.48457815  0.86270809  1
  O  O146  1  0.18265804  0.86529421  0.85719571  1
  O  O147  1  0.68233263  0.86745483  0.85766104  1
  O  O148  1  0.25662533  0.63868474  0.86335780  1
  O  O149  1  0.75550913  0.63292943  0.86384970  1
  O  O150  1  0.01422028  0.83847441  0.41296982  1
  O  O151  1  0.50669087  0.83507030  0.40523874  1
  O  O152  1  0.39741070  0.97005168  0.41127024  1
  O  O153  1  0.90841278  0.97790603  0.40753580  1
  O  O154  1  0.07910725  0.18787820  0.40961822  1
  O  O155  1  0.57923441  0.18259981  0.40919228  1
  O  O156  1  0.00953558  0.18390038  0.91196423  1
  O  O157  1  0.51387991  0.20259029  0.91404320  1
  O  O158  1  0.07839917  0.96803767  0.90991874  1
  O  O159  1  0.57659876  0.97621859  0.91314100  1
  O  O160  1  0.39832507  0.82688088  0.91267164  1
  O  O161  1  0.89814044  0.81926015  0.91197429  1
  O  O162  1  0.48728932  0.17035215  0.58534190  1
  O  O163  1  0.98920315  0.17288319  0.58730627  1
  O  O164  1  0.09720897  0.01784365  0.58774736  1
  O  O165  1  0.59815793  0.02423832  0.58584817  1
  O  O166  1  0.41424271  0.80225753  0.58537397  1
  O  O167  1  0.91550572  0.80396433  0.58788099  1
  O  O168  1  0.48900458  0.81982663  0.09348344  1
  O  O169  1  0.98613116  0.80128147  0.08606198  1
  O  O170  1  0.41371922  0.02560332  0.09018396  1
  O  O171  1  0.91260709  0.02843249  0.08635056  1
  O  O172  1  0.08803225  0.16020649  0.09270258  1
  O  O173  1  0.59852582  0.17249214  0.08727920  1
  O  O174  1  0.34445750  0.16246201  0.74553210  1
  O  O175  1  0.84970814  0.17382599  0.74545440  1
  O  O176  1  0.23677491  0.30093830  0.74498024  1
  O  O177  1  0.74085060  0.30708423  0.74635034  1
  O  O178  1  0.41797464  0.51450254  0.74631156  1
  O  O179  1  0.92431560  0.53610733  0.74389524  1
  O  O180  1  0.34747491  0.53788908  0.24479751  1
  O  O181  1  0.84475783  0.51794622  0.24520855  1
  O  O182  1  0.41051446  0.30528899  0.24264846  1
  O  O183  1  0.92429631  0.31400336  0.24416773  1
  O  O184  1  0.24340739  0.17625151  0.24151990  1
  O  O185  1  0.72934861  0.15716608  0.24440632  1
  O  O186  1  0.31971688  0.50695541  0.92214039  1
  O  O187  1  0.81853405  0.50343794  0.92597895  1
  O  O188  1  0.43464306  0.36335523  0.92385102  1
  O  O189  1  0.92548270  0.36298723  0.92696398  1
  O  O190  1  0.25658051  0.15253182  0.92546458  1
  O  O191  1  0.75116552  0.14860137  0.92737073  1
  O  O192  1  0.31993575  0.13250675  0.42461576  1
  O  O193  1  0.81975061  0.14493319  0.42773335  1
  O  O194  1  0.25359326  0.35686822  0.42769374  1
  O  O195  1  0.75084763  0.35426288  0.42644293  1
  O  O196  1  0.42607990  0.49166286  0.42779371  1
  O  O197  1  0.92642193  0.48983338  0.42640011  1
  O  O198  1  0.18020976  0.51460923  0.07618845  1
  O  O199  1  0.67752923  0.49158891  0.07388733  1
  O  O200  1  0.06827046  0.64686781  0.07609661  1
  O  O201  1  0.57393770  0.64179407  0.07457943  1
  O  O202  1  0.25602050  0.86695772  0.07727080  1
  O  O203  1  0.75417057  0.86267030  0.07412411  1
  O  O204  1  0.17824786  0.86006770  0.57525724  1
  O  O205  1  0.67636169  0.85925960  0.57660316  1
  O  O206  1  0.25525200  0.65076566  0.57404585  1
  O  O207  1  0.75522378  0.64757827  0.57742109  1
  O  O208  1  0.07046371  0.49257353  0.57692622  1
  O  O209  1  0.56883929  0.49195078  0.57659473  1
  O  O210  1  0.15366127  0.82053078  0.25845283  1
  O  O211  1  0.64896904  0.83662781  0.25374648  1
  O  O212  1  0.26859857  0.69934225  0.25451868  1
  O  O213  1  0.75679236  0.69302546  0.25419000  1
  O  O214  1  0.08168114  0.46959410  0.25449303  1
  O  O215  1  0.58828392  0.47722367  0.25443760  1
  O  O216  1  0.14571410  0.48067111  0.75577543  1
  O  O217  1  0.64801389  0.48002586  0.76041173  1
  O  O218  1  0.08203994  0.70249952  0.75361323  1
  O  O219  1  0.58864341  0.69907039  0.75848043  1
  O  O220  1  0.25564185  0.81738973  0.75725434  1
  O  O221  1  0.75999000  0.82546771  0.75613647  1
