# generated using pymatgen
data_Na3CaYSi(SO6)2
_symmetry_space_group_name_H-M   'P 1'
_cell_length_a   9.41849949
_cell_length_b   9.44516892
_cell_length_c   23.43748291
_cell_angle_alpha   90.26875541
_cell_angle_beta   90.00000000
_cell_angle_gamma   119.90663973
_symmetry_Int_Tables_number   1
_chemical_formula_structural   Na3CaYSi(SO6)2
_chemical_formula_sum   'Na18 Ca6 Y6 Si6 S12 O72'
_cell_volume   1807.31764301
_cell_formula_units_Z   6
loop_
 _symmetry_equiv_pos_site_id
 _symmetry_equiv_pos_as_xyz
  1  'x, y, z'
loop_
 _atom_site_type_symbol
 _atom_site_label
 _atom_site_symmetry_multiplicity
 _atom_site_fract_x
 _atom_site_fract_y
 _atom_site_fract_z
 _atom_site_occupancy
  Na  Na0  1  0.62798927  0.00228592  0.25549899  1
  Na  Na1  1  0.01139411  0.64881258  0.23467066  1
  Na  Na2  1  0.63741847  0.64881258  0.73467066  1
  Na  Na3  1  0.37429665  0.00228592  0.75549899  1
  Na  Na4  1  0.33197447  0.35976721  0.58654460  1
  Na  Na5  1  0.64917465  0.93903432  0.57625455  1
  Na  Na6  1  0.28986067  0.93903432  0.07625455  1
  Na  Na7  1  0.02779374  0.35976721  0.08654460  1
  Na  Na8  1  0.99700515  0.69071265  0.92805901  1
  Na  Na9  1  0.68199512  0.02515006  0.90083829  1
  Na  Na10  1  0.34315394  0.02515006  0.40083829  1
  Na  Na11  1  0.69370650  0.69071265  0.42805901  1
  Na  Na12  1  0.96034529  0.98113905  0.49615696  1
  Na  Na13  1  0.02079375  0.98113905  0.99615696  1
  Na  Na14  1  0.65436659  0.29273071  0.83014715  1
  Na  Na15  1  0.63836512  0.29273071  0.33014715  1
  Na  Na16  1  0.31905278  0.66957638  0.16349902  1
  Na  Na17  1  0.35052260  0.66957638  0.66349902  1
  Ca  Ca18  1  0.00852486  0.01256036  0.34876379  1
  Ca  Ca19  1  0.00403551  0.01256036  0.84876379  1
  Ca  Ca20  1  0.67890331  0.33620597  0.68264563  1
  Ca  Ca21  1  0.65730366  0.33620597  0.18264563  1
  Ca  Ca22  1  0.33522344  0.67164659  0.01468391  1
  Ca  Ca23  1  0.33642215  0.67164659  0.51468391  1
  Y  Y24  1  0.97848349  0.98381782  0.65050477  1
  Y  Y25  1  0.00533433  0.98381782  0.15050477  1
  Y  Y26  1  0.65948912  0.33777957  0.98457607  1
  Y  Y27  1  0.67829145  0.33777957  0.48457607  1
  Y  Y28  1  0.33637422  0.67388786  0.31837753  1
  Y  Y29  1  0.33751264  0.67388786  0.81837753  1
  Si  Si30  1  0.30786596  0.99504910  0.25353582  1
  Si  Si31  1  0.68718314  0.99504910  0.75353582  1
  Si  Si32  1  0.66243016  0.63584087  0.58444080  1
  Si  Si33  1  0.97341170  0.63584087  0.08444080  1
  Si  Si34  1  0.33502843  0.97591536  0.91853436  1
  Si  Si35  1  0.64088594  0.97591536  0.41853436  1
  S  S36  1  0.70083880  0.70284400  0.25307277  1
  S  S37  1  0.99872875  0.30142811  0.24692822  1
  S  S38  1  0.30269936  0.30142811  0.74692822  1
  S  S39  1  0.00200520  0.70284400  0.75307277  1
  S  S40  1  0.97298384  0.32938396  0.58442917  1
  S  S41  1  0.36575413  0.03931775  0.58389392  1
  S  S42  1  0.67356463  0.03931775  0.08389392  1
  S  S43  1  0.35640112  0.32938396  0.08442917  1
  S  S44  1  0.63602711  0.66485981  0.91539625  1
  S  S45  1  0.02797845  0.36576500  0.91947750  1
  S  S46  1  0.33778555  0.36576500  0.41947750  1
  S  S47  1  0.02883171  0.66485981  0.41539625  1
  O  O48  1  0.22306560  0.00324251  0.31267994  1
  O  O49  1  0.79365340  0.78119273  0.30553864  1
  O  O50  1  0.97980887  0.19731030  0.29591195  1
  O  O51  1  0.21750144  0.19731030  0.79591195  1
  O  O52  1  0.98753933  0.78119273  0.80553864  1
  O  O53  1  0.78017691  0.00324251  0.81267994  1
  O  O54  1  0.78532865  0.97550936  0.69759305  1
  O  O55  1  0.21232004  0.22455525  0.69281202  1
  O  O56  1  0.02964823  0.81221667  0.70306620  1
  O  O57  1  0.78256844  0.81221667  0.20306620  1
  O  O58  1  0.01223520  0.22455525  0.19281202  1
  O  O59  1  0.19018071  0.97550936  0.19759305  1
  O  O60  1  0.89489207  0.34545522  0.63597339  1
  O  O61  1  0.46675737  0.11516003  0.63540622  1
  O  O62  1  0.65043321  0.53517909  0.64218988  1
  O  O63  1  0.88474688  0.53517909  0.14218988  1
  O  O64  1  0.64840367  0.11516003  0.13540622  1
  O  O65  1  0.45056415  0.34545522  0.13597339  1
  O  O66  1  0.43711903  0.30431685  0.03337422  1
  O  O67  1  0.86877141  0.53926309  0.02633300  1
  O  O68  1  0.68809967  0.13992832  0.03258944  1
  O  O69  1  0.45182965  0.13992832  0.53258944  1
  O  O70  1  0.67049268  0.53926309  0.52633300  1
  O  O71  1  0.86719882  0.30431685  0.53337422  1
  O  O72  1  0.54692298  0.67388005  0.96533131  1
  O  O73  1  0.11898185  0.43863844  0.97276646  1
  O  O74  1  0.31795660  0.87078740  0.97599888  1
  O  O75  1  0.55282980  0.87078740  0.47599888  1
  O  O76  1  0.31965559  0.43863844  0.47276646  1
  O  O77  1  0.12695607  0.67388005  0.46533131  1
  O  O78  1  0.10453724  0.64503493  0.36231704  1
  O  O79  1  0.52378689  0.87921419  0.36130403  1
  O  O80  1  0.34665129  0.46706056  0.36972170  1
  O  O81  1  0.12040827  0.46706056  0.86972170  1
  O  O82  1  0.35542630  0.87921419  0.86130403  1
  O  O83  1  0.54049669  0.64503493  0.86231704  1
  O  O84  1  0.01725111  0.81687337  0.41368243  1
  O  O85  1  0.81717998  0.98175393  0.41446581  1
  O  O86  1  0.20171158  0.19516892  0.41474261  1
  O  O87  1  0.99345734  0.19516892  0.91474261  1
  O  O88  1  0.16457395  0.98175393  0.91446581  1
  O  O89  1  0.79962226  0.81687337  0.91368243  1
  O  O90  1  0.99121230  0.17949534  0.58712602  1
  O  O91  1  0.20644245  0.03749767  0.58794054  1
  O  O92  1  0.82285351  0.82555591  0.58297510  1
  O  O93  1  0.00270240  0.82555591  0.08297510  1
  O  O94  1  0.83105522  0.03749767  0.08794054  1
  O  O95  1  0.18828304  0.17949534  0.08712602  1
  O  O96  1  0.65164303  0.14755067  0.74926900  1
  O  O97  1  0.47087021  0.32170187  0.74543043  1
  O  O98  1  0.85083602  0.54374729  0.74613332  1
  O  O99  1  0.69291227  0.54374729  0.24613332  1
  O  O100  1  0.85083266  0.32170187  0.24543043  1
  O  O101  1  0.49590865  0.14755067  0.24926900  1
  O  O102  1  0.66454099  0.52255235  0.91859427  1
  O  O103  1  0.86553478  0.36205414  0.91965910  1
  O  O104  1  0.51141765  0.15224021  0.91906900  1
  O  O105  1  0.64082356  0.15224021  0.41906900  1
  O  O106  1  0.49652036  0.36205414  0.41965910  1
  O  O107  1  0.85801236  0.52255235  0.41859427  1
  O  O108  1  0.33383777  0.47250125  0.07822646  1
  O  O109  1  0.15751923  0.65196944  0.08424162  1
  O  O110  1  0.53172514  0.87196630  0.07848024  1
  O  O111  1  0.34024016  0.87196630  0.57848024  1
  O  O112  1  0.49444921  0.65196944  0.58424162  1
  O  O113  1  0.13866248  0.47250125  0.57822646  1
  O  O114  1  0.31441341  0.81893180  0.25054913  1
  O  O115  1  0.53265873  0.68201748  0.25540453  1
  O  O116  1  0.14694333  0.46766604  0.25217329  1
  O  O117  1  0.32072172  0.46766604  0.75217329  1
  O  O118  1  0.14935775  0.68201748  0.75540453  1
  O  O119  1  0.50451740  0.81893180  0.75054913  1
