# generated using pymatgen
data_Mg(MoO3)4
_symmetry_space_group_name_H-M   'P 1'
_cell_length_a   5.24844593
_cell_length_b   5.54088702
_cell_length_c   7.48918296
_cell_angle_alpha   90.54443610
_cell_angle_beta   90.00657224
_cell_angle_gamma   89.88100095
_symmetry_Int_Tables_number   1
_chemical_formula_structural   Mg(MoO3)4
_chemical_formula_sum   'Mg1 Mo4 O12'
_cell_volume   217.78297047
_cell_formula_units_Z   1
loop_
 _symmetry_equiv_pos_site_id
 _symmetry_equiv_pos_as_xyz
  1  'x, y, z'
loop_
 _atom_site_type_symbol
 _atom_site_label
 _atom_site_symmetry_multiplicity
 _atom_site_fract_x
 _atom_site_fract_y
 _atom_site_fract_z
 _atom_site_occupancy
  Mg  Mg0  1  0.47829400  0.43157100  0.76128500  1
  Mo  Mo1  1  0.49024400  0.99733200  0.00360300  1
  Mo  Mo2  1  0.98717500  0.51601900  0.00435100  1
  Mo  Mo3  1  0.98787400  0.45770100  0.49330000  1
  Mo  Mo4  1  0.50923000  0.94840500  0.49773100  1
  O  O5  1  0.70999700  0.28729000  0.44035200  1
  O  O6  1  0.21328500  0.22545300  0.55702000  1
  O  O7  1  0.78836200  0.81668200  0.03791600  1
  O  O8  1  0.30130600  0.69355400  0.93707400  1
  O  O9  1  0.32478300  0.68710500  0.57013100  1
  O  O10  1  0.80481100  0.79913000  0.45439900  1
  O  O11  1  0.23433700  0.22919500  0.95243500  1
  O  O12  1  0.72182300  0.30749700  0.04044500  1
  O  O13  1  0.09224100  0.50686600  0.26020100  1
  O  O14  1  0.58367400  0.05999300  0.73739200  1
  O  O15  1  0.39463300  0.97667800  0.26403700  1
  O  O16  1  0.86543000  0.52202900  0.73832700  1
