# generated using pymatgen
data_Na10Zn6Si3Ge2(S3O16)3
_symmetry_space_group_name_H-M   'P 1'
_cell_length_a   17.74794144
_cell_length_b   8.94548733
_cell_length_c   22.02300083
_cell_angle_alpha   90.46202992
_cell_angle_beta   89.55727158
_cell_angle_gamma   120.36535893
_symmetry_Int_Tables_number   1
_chemical_formula_structural   Na10Zn6Si3Ge2(S3O16)3
_chemical_formula_sum   'Na30 Zn18 Si9 Ge6 S27 O144'
_cell_volume   3016.68810176
_cell_formula_units_Z   3
loop_
 _symmetry_equiv_pos_site_id
 _symmetry_equiv_pos_as_xyz
  1  'x, y, z'
loop_
 _atom_site_type_symbol
 _atom_site_label
 _atom_site_symmetry_multiplicity
 _atom_site_fract_x
 _atom_site_fract_y
 _atom_site_fract_z
 _atom_site_occupancy
  Na  Na0  1  0.31599952  0.00334823  0.24536698  1
  Na  Na1  1  0.18636717  0.35597688  0.25178920  1
  Na  Na2  1  0.49560512  0.63156253  0.25343647  1
  Na  Na3  1  0.31145623  0.62184044  0.74184061  1
  Na  Na4  1  0.81553312  0.62966148  0.74530771  1
  Na  Na5  1  0.99852674  0.35625221  0.75192626  1
  Na  Na6  1  0.18478775  0.01457313  0.75541375  1
  Na  Na7  1  0.68633742  0.01816044  0.75131664  1
  Na  Na8  1  0.16363503  0.35192266  0.58777839  1
  Na  Na9  1  0.83044959  0.68871522  0.08155213  1
  Na  Na10  1  0.48401806  0.66218919  0.91702227  1
  Na  Na11  1  0.35373531  0.04244349  0.91741160  1
  Na  Na12  1  0.85169380  0.03208203  0.91990201  1
  Na  Na13  1  0.66263143  0.29961722  0.91856710  1
  Na  Na14  1  0.98239769  0.30314487  0.41547749  1
  Na  Na15  1  0.16179654  0.02591450  0.41700133  1
  Na  Na16  1  0.35249741  0.67000014  0.42095869  1
  Na  Na17  1  0.85318843  0.66334381  0.41577504  1
  Na  Na18  1  0.99496091  0.97369482  0.50000702  1
  Na  Na19  1  0.50577779  0.00520111  0.49993960  1
  Na  Na20  1  0.01208104  0.02055412  0.99933537  1
  Na  Na21  1  0.50171529  0.01579753  0.00066841  1
  Na  Na22  1  0.32833902  0.33048513  0.83353293  1
  Na  Na23  1  0.83451460  0.33545082  0.83120130  1
  Na  Na24  1  0.33388597  0.33204936  0.33112336  1
  Na  Na25  1  0.82809715  0.32814784  0.33131076  1
  Na  Na26  1  0.16022428  0.66435373  0.16103889  1
  Na  Na27  1  0.67503433  0.68990576  0.16367345  1
  Na  Na28  1  0.17274448  0.67213282  0.66204369  1
  Na  Na29  1  0.66130324  0.65583205  0.66139937  1
  Zn  Zn30  1  0.00127079  0.97885524  0.34702802  1
  Zn  Zn31  1  0.50267545  0.00065240  0.34955529  1
  Zn  Zn32  1  0.00459956  0.01722749  0.84728436  1
  Zn  Zn33  1  0.50425530  0.02450741  0.84818778  1
  Zn  Zn34  1  0.33202860  0.34903578  0.67692211  1
  Zn  Zn35  1  0.82615682  0.31700467  0.68264312  1
  Zn  Zn36  1  0.32645353  0.33492821  0.18268591  1
  Zn  Zn37  1  0.83330026  0.32012639  0.17768886  1
  Zn  Zn38  1  0.33500140  0.33133572  0.98345820  1
  Zn  Zn39  1  0.84440506  0.31980257  0.99699047  1
  Zn  Zn40  1  0.34930184  0.36806479  0.49571807  1
  Zn  Zn41  1  0.83449869  0.33891300  0.48305389  1
  Zn  Zn42  1  0.16535391  0.66449267  0.01587057  1
  Zn  Zn43  1  0.66558980  0.66910501  0.02067683  1
  Zn  Zn44  1  0.17132053  0.68297951  0.51923783  1
  Zn  Zn45  1  0.66403279  0.66393363  0.51576538  1
  Zn  Zn46  1  0.67129461  0.66521475  0.31826268  1
  Zn  Zn47  1  0.16489310  0.64810878  0.81769064  1
  Si  Si48  1  0.14344155  0.99757997  0.24933748  1
  Si  Si49  1  0.35154625  0.70945151  0.25573718  1
  Si  Si50  1  0.14888466  0.29269345  0.74945496  1
  Si  Si51  1  0.64396739  0.29103419  0.74946913  1
  Si  Si52  1  0.84908534  0.99316485  0.75675218  1
  Si  Si53  1  0.33707422  0.65290402  0.58430935  1
  Si  Si54  1  0.83446665  0.02664646  0.08511996  1
  Si  Si55  1  0.52279043  0.38133155  0.91882105  1
  Si  Si56  1  0.02193047  0.66410227  0.41803085  1
  Ge  Ge57  1  0.99090477  0.00167543  0.65519017  1
  Ge  Ge58  1  0.50219668  0.01559428  0.64512531  1
  Ge  Ge59  1  0.00040977  -0.00053206  0.14902396  1
  Ge  Ge60  1  0.49332849  0.99183647  0.15267540  1
  Ge  Ge61  1  0.15990973  0.67741701  0.30758816  1
  Ge  Ge62  1  0.66055118  0.64460723  0.80937610  1
  S  S63  1  0.64581881  0.00270326  0.24902764  1
  S  S64  1  0.84854995  0.69710895  0.24793619  1
  S  S65  1  -0.00033591  0.29315358  0.25300815  1
  S  S66  1  0.50582937  0.29501588  0.24788549  1
  S  S67  1  0.00138674  0.71467117  0.74769293  1
  S  S68  1  0.50238930  0.71058250  0.75227409  1
  S  S69  1  0.35368476  0.00214762  0.74892407  1
  S  S70  1  0.48347054  0.33060563  0.58528163  1
  S  S71  1  0.97767405  0.31676990  0.58599164  1
  S  S72  1  0.17745329  0.03332871  0.58649645  1
  S  S73  1  0.68168720  0.03235045  0.58349186  1
  S  S74  1  0.83838657  0.64551462  0.58603031  1
  S  S75  1  0.48027169  0.64243631  0.08805327  1
  S  S76  1  0.98470603  0.63854984  0.08563266  1
  S  S77  1  0.33818548  0.03211736  0.08542919  1
  S  S78  1  0.18221856  0.33231190  0.08404992  1
  S  S79  1  0.67710613  0.31545696  0.08710243  1
  S  S80  1  0.31434492  0.66515343  0.91637479  1
  S  S81  1  0.81596925  0.66243098  0.91477179  1
  S  S82  1  0.01610802  0.37149876  0.91717735  1
  S  S83  1  0.16410307  0.95592338  0.91652163  1
  S  S84  1  0.66757884  0.95915319  0.91425055  1
  S  S85  1  0.31541633  0.96868980  0.41413859  1
  S  S86  1  0.81199271  0.95984705  0.41668057  1
  S  S87  1  0.16725981  0.37446137  0.41507459  1
  S  S88  1  0.66407979  0.36776550  0.41749043  1
  S  S89  1  0.51949163  0.66450590  0.41483573  1
  O  O90  1  0.11261138  0.04994891  0.31059192  1
  O  O91  1  0.60640870  0.02279940  0.30478877  1
  O  O92  1  0.40898241  0.78628350  0.31575489  1
  O  O93  1  0.89664349  0.77744234  0.30486113  1
  O  O94  1  0.49259875  0.18933690  0.30140969  1
  O  O95  1  0.98923313  0.19766106  0.30940254  1
  O  O96  1  0.10862468  0.16009430  0.80479865  1
  O  O97  1  0.61362674  0.17565845  0.80998906  1
  O  O98  1  0.48771483  0.78187466  0.80923432  1
  O  O99  1  0.98247483  0.78378744  0.80232741  1
  O  O100  1  0.39834878  0.01518751  0.80671836  1
  O  O101  1  0.90413443  0.02857744  0.81772335  1
  O  O102  1  0.39840184  0.96803385  0.69611963  1
  O  O103  1  0.89218439  0.93861658  0.69789175  1
  O  O104  1  0.07878081  0.19800885  0.68759436  1
  O  O105  1  0.57832923  0.18661240  0.69070550  1
  O  O106  1  0.01657068  0.82981946  0.69249912  1
  O  O107  1  0.51597844  0.82387463  0.69930506  1
  O  O108  1  0.39688527  0.85182790  0.19753510  1
  O  O109  1  0.89415746  0.81008415  0.19279653  1
  O  O110  1  0.01363499  0.20518929  0.19881969  1
  O  O111  1  0.51957184  0.21136014  0.19086261  1
  O  O112  1  0.07807297  0.97435970  0.19120627  1
  O  O113  1  0.58374885  0.96850276  0.19428112  1
  O  O114  1  0.43970704  0.34368021  0.63999330  1
  O  O115  1  0.93494934  0.33442264  0.64103923  1
  O  O116  1  0.22834061  0.11859846  0.64178319  1
  O  O117  1  0.72855350  0.10147963  0.64139658  1
  O  O118  1  0.31784183  0.53046154  0.64292933  1
  O  O119  1  0.83041594  0.54317634  0.64015741  1
  O  O120  1  0.43609680  0.53770928  0.14245435  1
  O  O121  1  0.94344238  0.53945604  0.14083006  1
  O  O122  1  0.33066213  0.11882574  0.14034568  1
  O  O123  1  0.82008403  0.11773262  0.14260075  1
  O  O124  1  0.22981813  0.35830347  0.14165404  1
  O  O125  1  0.73448704  0.34352058  0.13894182  1
  O  O126  1  0.22644910  0.30759080  0.03128683  1
  O  O127  1  0.71436946  0.29237468  0.02875488  1
  O  O128  1  0.43055922  0.56864542  0.03129997  1
  O  O129  1  0.92767032  0.56001845  0.03098801  1
  O  O130  1  0.34976169  0.13103008  0.02902019  1
  O  O131  1  0.85641673  0.12892739  0.02069957  1
  O  O132  1  0.22048431  0.13949881  0.53102357  1
  O  O133  1  0.72689092  0.14433712  0.53127003  1
  O  O134  1  0.35621760  0.57840793  0.52148052  1
  O  O135  1  0.85067019  0.57042097  0.52896451  1
  O  O136  1  0.43207674  0.30080448  0.52917179  1
  O  O137  1  0.92906675  0.29765830  0.52958460  1
  O  O138  1  0.27094775  0.69470631  0.96854063  1
  O  O139  1  0.77691790  0.69229810  0.96951406  1
  O  O140  1  0.06895052  0.46773788  0.96973273  1
  O  O141  1  0.58789957  0.47033263  0.97382287  1
  O  O142  1  0.15945129  0.85477589  0.97044724  1
  O  O143  1  0.66118684  0.85803632  0.96805542  1
  O  O144  1  0.27599815  0.85385611  0.46606264  1
  O  O145  1  0.77159213  0.84753893  0.47015555  1
  O  O146  1  0.16125710  0.45967431  0.47074464  1
  O  O147  1  0.65477539  0.45111451  0.47283172  1
  O  O148  1  0.08723131  0.70654302  0.47316479  1
  O  O149  1  0.57059470  0.67312598  0.46788637  1
  O  O150  1  0.06892343  0.62418729  0.35541956  1
  O  O151  1  0.56017646  0.65457764  0.35611733  1
  O  O152  1  0.26069890  0.88666842  0.35601727  1
  O  O153  1  0.76268922  0.88147617  0.36004836  1
  O  O154  1  0.18170517  0.48321972  0.35919268  1
  O  O155  1  0.67856091  0.47496822  0.36215940  1
  O  O156  1  0.05502584  0.45957070  0.85817865  1
  O  O157  1  0.56845746  0.51366285  0.85647483  1
  O  O158  1  0.17667496  0.87647141  0.85902752  1
  O  O159  1  0.68168505  0.88132690  0.85710934  1
  O  O160  1  0.26896482  0.64951004  0.85796772  1
  O  O161  1  0.75920864  0.63603518  0.85816705  1
  O  O162  1  0.00709246  0.82988239  0.41210009  1
  O  O163  1  0.50963825  0.82081017  0.41664338  1
  O  O164  1  0.40400749  0.99358830  0.40779568  1
  O  O165  1  0.90230524  0.98344264  0.41250644  1
  O  O166  1  0.08417934  0.20385397  0.41196826  1
  O  O167  1  0.58555233  0.19331725  0.41229810  1
  O  O168  1  0.00698007  0.19640208  0.91854503  1
  O  O169  1  0.50754315  0.18456658  0.91280973  1
  O  O170  1  0.08499049  0.96964484  0.91474065  1
  O  O171  1  0.58488513  0.96449508  0.91213010  1
  O  O172  1  0.40480633  0.82173268  0.91422033  1
  O  O173  1  0.90364647  0.81647293  0.90825721  1
  O  O174  1  0.49358506  0.17175726  0.58775800  1
  O  O175  1  0.98237965  0.14958813  0.58904800  1
  O  O176  1  0.08989922  0.02793396  0.58887769  1
  O  O177  1  0.59366118  0.02254731  0.58743514  1
  O  O178  1  0.42952999  0.84665486  0.59518339  1
  O  O179  1  0.92318195  0.82379678  0.59056151  1
  O  O180  1  0.48567199  0.82019321  0.09346997  1
  O  O181  1  0.99248177  0.81554458  0.08861792  1
  O  O182  1  0.42271397  0.02292132  0.08931035  1
  O  O183  1  0.92660843  0.00631538  0.09599166  1
  O  O184  1  0.09339391  0.16758633  0.08861820  1
  O  O185  1  0.58810777  0.14825190  0.09299457  1
  O  O186  1  0.34670924  0.15732098  0.74142350  1
  O  O187  1  0.84003187  0.16214552  0.74518188  1
  O  O188  1  0.24668112  0.31893496  0.74348479  1
  O  O189  1  0.74377074  0.33220198  0.73960926  1
  O  O190  1  0.42899836  0.53288611  0.74525696  1
  O  O191  1  0.92657447  0.53676572  0.73867217  1
  O  O192  1  0.34062868  0.51947364  0.24506942  1
  O  O193  1  0.84096571  0.52621886  0.24102583  1
  O  O194  1  0.42619477  0.30889419  0.24129614  1
  O  O195  1  0.92780892  0.32678978  0.24623188  1
  O  O196  1  0.24348978  0.15642357  0.23984354  1
  O  O197  1  0.73132422  0.15796924  0.24186978  1
  O  O198  1  0.32191929  0.50859016  0.92233131  1
  O  O199  1  0.81816972  0.49939653  0.91851962  1
  O  O200  1  0.42570683  0.36405837  0.92045786  1
  O  O201  1  0.92751887  0.35355008  0.91916098  1
  O  O202  1  0.24554867  0.13185652  0.91992620  1
  O  O203  1  0.74374459  0.13939851  0.91671832  1
  O  O204  1  0.31748910  0.13590628  0.42005417  1
  O  O205  1  0.82130768  0.13339006  0.42288201  1
  O  O206  1  0.24328180  0.34605712  0.41647859  1
  O  O207  1  0.74509623  0.35480911  0.42130109  1
  O  O208  1  0.43002104  0.50491066  0.41616792  1
  O  O209  1  0.92538277  0.48722562  0.41933247  1
  O  O210  1  0.16864341  0.48171832  0.07721547  1
  O  O211  1  0.66446688  0.46624772  0.08480047  1
  O  O212  1  0.07265042  0.66065500  0.07873533  1
  O  O213  1  0.56935704  0.67136894  0.08503314  1
  O  O214  1  0.26224754  0.85384195  0.08184410  1
  O  O215  1  0.75498887  0.82645614  0.07914592  1
  O  O216  1  0.16334460  0.85772566  0.58419615  1
  O  O217  1  0.66692109  0.85503373  0.57651777  1
  O  O218  1  0.24904468  0.66586852  0.57827622  1
  O  O219  1  0.76246310  0.67115191  0.58227911  1
  O  O220  1  0.06812744  0.46404574  0.58348850  1
  O  O221  1  0.57184847  0.48586657  0.58087009  1
  O  O222  1  0.14971805  0.81704144  0.25196660  1
  O  O223  1  0.64995381  0.84048560  0.24918571  1
  O  O224  1  0.25080289  0.68728881  0.25976757  1
  O  O225  1  0.76145898  0.68337919  0.24954628  1
  O  O226  1  0.08753679  0.46526567  0.25300490  1
  O  O227  1  0.58265751  0.47203013  0.25019821  1
  O  O228  1  0.15353986  0.48090182  0.75074284  1
  O  O229  1  0.64949449  0.48270344  0.75323374  1
  O  O230  1  0.08304849  0.70675345  0.75064470  1
  O  O231  1  0.58831736  0.71036030  0.75447058  1
  O  O232  1  0.26451425  0.84478092  0.74931045  1
  O  O233  1  0.74889473  0.81201818  0.76015257  1
