# generated using pymatgen
data_Ge3Bi2O9
_symmetry_space_group_name_H-M   'P 1'
_cell_length_a   6.96209224
_cell_length_b   6.96207042
_cell_length_c   9.92715491
_cell_angle_alpha   90.00003120
_cell_angle_beta   90.00000545
_cell_angle_gamma   119.99974633
_symmetry_Int_Tables_number   1
_chemical_formula_structural   Ge3Bi2O9
_chemical_formula_sum   'Ge6 Bi4 O18'
_cell_volume   416.71076985
_cell_formula_units_Z   2
loop_
 _symmetry_equiv_pos_site_id
 _symmetry_equiv_pos_as_xyz
  1  'x, y, z'
loop_
 _atom_site_type_symbol
 _atom_site_label
 _atom_site_symmetry_multiplicity
 _atom_site_fract_x
 _atom_site_fract_y
 _atom_site_fract_z
 _atom_site_occupancy
  Ge  Ge0  1  0.70653651  0.92532618  0.74999979  1
  Ge  Ge1  1  0.78121045  0.70654241  0.25000002  1
  Ge  Ge2  1  0.92533212  0.21879329  0.25000031  1
  Ge  Ge3  1  0.07466970  0.78120806  0.74999992  1
  Ge  Ge4  1  0.21878927  0.29345784  0.75000039  1
  Ge  Ge5  1  0.29346353  0.07467287  0.25000034  1
  Bi  Bi6  1  0.33333188  0.66666474  0.47029422  1
  Bi  Bi7  1  0.66666872  0.33333570  0.97029369  1
  Bi  Bi8  1  0.66666900  0.33333558  0.52970630  1
  Bi  Bi9  1  0.33333169  0.66666450  0.02970577  1
  O  O10  1  0.42857064  0.07585059  0.39736599  1
  O  O11  1  0.35271552  0.42856362  0.89736457  1
  O  O12  1  0.07584438  0.64727855  0.89736543  1
  O  O13  1  0.92415593  0.35272061  0.39736520  1
  O  O14  1  0.64728501  0.57143730  0.39736475  1
  O  O15  1  0.57142980  0.92414947  0.89736555  1
  O  O16  1  0.57142978  0.92414933  0.60263422  1
  O  O17  1  0.64728488  0.57143685  0.10263521  1
  O  O18  1  0.92415578  0.35272063  0.10263487  1
  O  O19  1  0.07584457  0.64727837  0.60263456  1
  O  O20  1  0.20230055  0.26859102  0.25000013  1
  O  O21  1  0.93370566  0.20229344  0.74999994  1
  O  O22  1  0.26858215  0.06628684  0.74999999  1
  O  O23  1  0.73141602  0.93371007  0.24999999  1
  O  O24  1  0.06629388  0.79770600  0.25000000  1
  O  O25  1  0.79769811  0.73141092  0.74999990  1
  O  O26  1  0.42857084  0.07585066  0.10263406  1
  O  O27  1  0.35271563  0.42856356  0.60263490  1
