# generated using pymatgen
data_Na7Ti2Si5Sn2PO24
_symmetry_space_group_name_H-M   'P 1'
_cell_length_a   8.99751216
_cell_length_b   9.00903516
_cell_length_c   22.36813646
_cell_angle_alpha   90.02105698
_cell_angle_beta   89.82396843
_cell_angle_gamma   119.98685014
_symmetry_Int_Tables_number   1
_chemical_formula_structural   Na7Ti2Si5Sn2PO24
_chemical_formula_sum   'Na21 Ti6 Si15 Sn6 P3 O72'
_cell_volume   1570.42155142
_cell_formula_units_Z   3
loop_
 _symmetry_equiv_pos_site_id
 _symmetry_equiv_pos_as_xyz
  1  'x, y, z'
loop_
 _atom_site_type_symbol
 _atom_site_label
 _atom_site_symmetry_multiplicity
 _atom_site_fract_x
 _atom_site_fract_y
 _atom_site_fract_z
 _atom_site_occupancy
  Na  Na0  1  0.63579534  0.00146773  0.24984691  1
  Na  Na1  1  0.36540045  0.36698387  0.24991933  1
  Na  Na2  1  0.00007526  0.63281773  0.25014018  1
  Na  Na3  1  0.63114005  0.63377269  0.75053214  1
  Na  Na4  1  0.00136815  0.36597931  0.75051961  1
  Na  Na5  1  0.36651905  0.00009325  0.75068373  1
  Na  Na6  1  0.30083604  0.33580258  0.58271534  1
  Na  Na7  1  0.03329201  0.69853785  0.58290869  1
  Na  Na8  1  0.66694156  0.96704761  0.58291365  1
  Na  Na9  1  0.29846849  0.96554872  0.08232481  1
  Na  Na10  1  0.03668863  0.33743738  0.08402866  1
  Na  Na11  1  0.96618625  0.66578144  0.91740754  1
  Na  Na12  1  0.33591700  0.29913028  0.91729490  1
  Na  Na13  1  0.33132181  0.03177496  0.41665232  1
  Na  Na14  1  0.70074350  0.66623209  0.41708055  1
  Na  Na15  1  0.99786973  0.00544723  0.49959827  1
  Na  Na16  1  0.98858518  0.99453335  0.00009733  1
  Na  Na17  1  0.66714287  0.32484343  0.83531874  1
  Na  Na18  1  0.67516667  0.33154466  0.33284428  1
  Na  Na19  1  0.34089229  0.66584047  0.16562152  1
  Na  Na20  1  0.33420543  0.66546151  0.66675181  1
  Ti  Ti21  1  0.66801815  0.34234810  0.18597885  1
  Ti  Ti22  1  0.66649377  0.32794047  0.98195996  1
  Ti  Ti23  1  0.32686901  0.65892185  0.01815853  1
  Ti  Ti24  1  0.33482093  0.67293108  0.51927397  1
  Ti  Ti25  1  0.32995747  0.67183414  0.31364910  1
  Ti  Ti26  1  0.32846331  0.67069370  0.81445668  1
  Si  Si27  1  0.29547903  0.00168868  0.25005980  1
  Si  Si28  1  0.70538214  0.70682777  0.25058644  1
  Si  Si29  1  0.99981059  0.29409998  0.24912603  1
  Si  Si30  1  0.29403935  0.29605807  0.75108852  1
  Si  Si31  1  0.00051919  0.70729836  0.75123545  1
  Si  Si32  1  0.70480294  0.99758405  0.75075812  1
  Si  Si33  1  0.96325006  0.33513737  0.58315096  1
  Si  Si34  1  0.37435345  0.04038272  0.58213847  1
  Si  Si35  1  0.66446377  0.62598810  0.58216632  1
  Si  Si36  1  0.95298280  0.62268148  0.08205658  1
  Si  Si37  1  0.38184486  0.34015597  0.08268265  1
  Si  Si38  1  0.03941250  0.37533396  0.91672302  1
  Si  Si39  1  0.33918708  0.95771519  0.91786370  1
  Si  Si40  1  0.62311822  0.95678466  0.41636174  1
  Si  Si41  1  0.04347878  0.66412414  0.41651128  1
  Sn  Sn42  1  0.99772966  0.00171704  0.35237394  1
  Sn  Sn43  1  0.99821006  0.00204551  0.85366612  1
  Sn  Sn44  1  0.99980673  0.00021962  0.64877881  1
  Sn  Sn45  1  0.99754164  0.99654963  0.14731265  1
  Sn  Sn46  1  0.66768648  0.33361817  0.68482733  1
  Sn  Sn47  1  0.67320951  0.33219299  0.48007535  1
  P  P48  1  0.66409101  0.04390582  0.08354510  1
  P  P49  1  0.61861399  0.66681136  0.91715541  1
  P  P50  1  0.33069074  0.38010076  0.41678329  1
  O  O51  1  0.21803687  0.04664895  0.30953399  1
  O  O52  1  0.82823143  0.77845593  0.30997009  1
  O  O53  1  0.95121551  0.16494213  0.30629590  1
  O  O54  1  0.21602393  0.17135449  0.80969916  1
  O  O55  1  0.95729369  0.78611410  0.81027414  1
  O  O56  1  0.83465862  0.04555506  0.80709071  1
  O  O57  1  0.77836513  0.95258990  0.69011405  1
  O  O58  1  0.17368681  0.21939218  0.69128027  1
  O  O59  1  0.04598734  0.82726965  0.69132864  1
  O  O60  1  0.78475437  0.83542724  0.19334499  1
  O  O61  1  0.04615179  0.21854451  0.18914591  1
  O  O62  1  0.17167209  0.95322466  0.19119632  1
  O  O63  1  0.88951669  0.38137696  0.64344336  1
  O  O64  1  0.49418493  0.11480689  0.64189089  1
  O  O65  1  0.62140133  0.50609901  0.64210250  1
  O  O66  1  0.86548699  0.49906946  0.14110547  1
  O  O67  1  0.63486207  0.12571028  0.14018068  1
  O  O68  1  0.49811844  0.35930672  0.14203065  1
  O  O69  1  0.47242460  0.30282644  0.02491537  1
  O  O70  1  0.83328168  0.52377213  0.02399270  1
  O  O71  1  0.69601200  0.16456793  0.02880986  1
  O  O72  1  0.45264318  0.16313209  0.52320225  1
  O  O73  1  0.70742115  0.54610941  0.52319365  1
  O  O74  1  0.83280449  0.28503293  0.52696741  1
  O  O75  1  0.52785395  0.69112972  0.97184177  1
  O  O76  1  0.16700992  0.46991429  0.97480355  1
  O  O77  1  0.30539945  0.83075301  0.97545020  1
  O  O78  1  0.53005141  0.83349147  0.47504237  1
  O  O79  1  0.30859934  0.46466103  0.47353999  1
  O  O80  1  0.16649263  0.69421955  0.47473088  1
  O  O81  1  0.13829998  0.64091007  0.35738291  1
  O  O82  1  0.50015809  0.86061018  0.35819273  1
  O  O83  1  0.36008376  0.49112651  0.36048014  1
  O  O84  1  0.13504420  0.50006781  0.85866441  1
  O  O85  1  0.36168142  0.86381679  0.85803909  1
  O  O86  1  0.50927909  0.63720867  0.86010959  1
  O  O87  1  0.03354303  0.84271709  0.41341548  1
  O  O88  1  0.80908947  0.96520925  0.41377227  1
  O  O89  1  0.17315690  0.19526056  0.41330949  1
  O  O90  1  0.03391925  0.19098967  0.91444877  1
  O  O91  1  0.16070249  0.96903081  0.91403145  1
  O  O92  1  0.80365793  0.82508307  0.91395597  1
  O  O93  1  0.98095294  0.16315866  0.58777106  1
  O  O94  1  0.18383696  0.02047266  0.58710201  1
  O  O95  1  0.83736355  0.81522267  0.58699460  1
  O  O96  1  0.98090514  0.81657568  0.08558007  1
  O  O97  1  0.83330762  0.03593381  0.08658982  1
  O  O98  1  0.18924860  0.16522614  0.08637478  1
  O  O99  1  0.68645934  0.16929190  0.74594828  1
  O  O100  1  0.48344829  0.31232222  0.74598659  1
  O  O101  1  0.82962097  0.51744917  0.74654003  1
  O  O102  1  0.68739552  0.51641295  0.24200897  1
  O  O103  1  0.82870696  0.31312677  0.24155938  1
  O  O104  1  0.48651770  0.17002498  0.24218367  1
  O  O105  1  0.63698260  0.50360713  0.92299736  1
  O  O106  1  0.85482783  0.36675958  0.92396579  1
  O  O107  1  0.50349399  0.15182840  0.92420299  1
  O  O108  1  0.62643039  0.14017325  0.41908630  1
  O  O109  1  0.49625841  0.36305800  0.42019610  1
  O  O110  1  0.84826038  0.50016321  0.41857868  1
  O  O111  1  0.35589562  0.50670835  0.07615670  1
  O  O112  1  0.14552825  0.64062040  0.07596603  1
  O  O113  1  0.50183361  0.86728902  0.07596485  1
  O  O114  1  0.35576306  0.84987700  0.57530539  1
  O  O115  1  0.49284527  0.64396061  0.57544420  1
  O  O116  1  0.15272207  0.50560877  0.57489120  1
  O  O117  1  0.31385738  0.82937931  0.25728880  1
  O  O118  1  0.51372131  0.68242979  0.25860688  1
  O  O119  1  0.17143174  0.48336244  0.25744027  1
  O  O120  1  0.31361562  0.48580520  0.75875396  1
  O  O121  1  0.17282803  0.68895163  0.75756191  1
  O  O122  1  0.51546740  0.82593581  0.75826179  1
