# generated using pymatgen
data_Na3CaScP2SO12
_symmetry_space_group_name_H-M   'P 1'
_cell_length_a   9.27072105
_cell_length_b   9.22983796
_cell_length_c   22.99694008
_cell_angle_alpha   90.36016386
_cell_angle_beta   90.00000000
_cell_angle_gamma   120.14663342
_symmetry_Int_Tables_number   1
_chemical_formula_structural   Na3CaScP2SO12
_chemical_formula_sum   'Na18 Ca6 Sc6 P12 S6 O72'
_cell_volume   1701.58324165
_cell_formula_units_Z   6
loop_
 _symmetry_equiv_pos_site_id
 _symmetry_equiv_pos_as_xyz
  1  'x, y, z'
loop_
 _atom_site_type_symbol
 _atom_site_label
 _atom_site_symmetry_multiplicity
 _atom_site_fract_x
 _atom_site_fract_y
 _atom_site_fract_z
 _atom_site_occupancy
  Na  Na0  1  0.35956173  0.35507326  0.24707410  1
  Na  Na1  1  0.99943810  0.63298717  0.24492980  1
  Na  Na2  1  0.63354907  0.63298717  0.74492980  1
  Na  Na3  1  0.99551153  0.35507326  0.74707410  1
  Na  Na4  1  0.02622873  0.68840626  0.58040710  1
  Na  Na5  1  0.66610510  0.96632017  0.57826280  1
  Na  Na6  1  0.30021607  0.96632017  0.07826280  1
  Na  Na7  1  0.66217853  0.68840626  0.08040710  1
  Na  Na8  1  0.69289473  0.02174026  0.91374110  1
  Na  Na9  1  0.33277110  0.29965417  0.91159680  1
  Na  Na10  1  0.96688207  0.29965417  0.41159680  1
  Na  Na11  1  0.32884453  0.02174026  0.41374110  1
  Na  Na12  1  0.98165164  0.98507072  0.49796794  1
  Na  Na13  1  0.00341908  0.98507072  0.99796794  1
  Na  Na14  1  0.64831864  0.31840372  0.83130094  1
  Na  Na15  1  0.67008608  0.31840372  0.33130094  1
  Na  Na16  1  0.31498464  0.65173772  0.16463494  1
  Na  Na17  1  0.33675208  0.65173772  0.66463494  1
  Ca  Ca18  1  0.98829814  0.99340322  0.34985374  1
  Ca  Ca19  1  0.00510508  0.99340322  0.84985374  1
  Ca  Ca20  1  0.65496514  0.32673622  0.68318674  1
  Ca  Ca21  1  0.67177208  0.32673622  0.18318674  1
  Ca  Ca22  1  0.32163114  0.66007022  0.01652074  1
  Ca  Ca23  1  0.33843808  0.66007022  0.51652074  1
  Sc  Sc24  1  0.00030393  0.01544307  0.65046181  1
  Sc  Sc25  1  0.01513914  0.01544307  0.15046181  1
  Sc  Sc26  1  0.66697093  0.34877607  0.98379481  1
  Sc  Sc27  1  0.68180614  0.34877607  0.48379481  1
  Sc  Sc28  1  0.33363693  0.68211007  0.31712881  1
  Sc  Sc29  1  0.34847214  0.68211007  0.81712881  1
  P  P30  1  0.29403990  0.99655235  0.25165490  1
  P  P31  1  0.01039076  0.30539395  0.25342583  1
  P  P32  1  0.29500319  0.30539395  0.75342583  1
  P  P33  1  0.70251245  0.99655235  0.75165490  1
  P  P34  1  0.96070690  0.32988535  0.58498790  1
  P  P35  1  0.67705776  0.63872695  0.58675883  1
  P  P36  1  0.96167019  0.63872695  0.08675883  1
  P  P37  1  0.36917945  0.32988535  0.08498790  1
  P  P38  1  0.62737290  0.66321935  0.91832190  1
  P  P39  1  0.34372376  0.97206095  0.92009283  1
  P  P40  1  0.62833619  0.97206095  0.42009283  1
  P  P41  1  0.03584545  0.66321935  0.41832190  1
  S  S42  1  0.69615921  0.70381960  0.24771050  1
  S  S43  1  0.00766039  0.70381960  0.74771050  1
  S  S44  1  0.36282621  0.03715260  0.58104350  1
  S  S45  1  0.67432739  0.03715260  0.08104350  1
  S  S46  1  0.02949221  0.37048660  0.91437750  1
  S  S47  1  0.34099339  0.37048660  0.41437750  1
  O  O48  1  0.21459644  0.01763067  0.30671502  1
  O  O49  1  0.79925117  0.78188845  0.29892887  1
  O  O50  1  0.98950707  0.21257196  0.30996874  1
  O  O51  1  0.22306490  0.21257196  0.80996874  1
  O  O52  1  0.98263728  0.78188845  0.79892887  1
  O  O53  1  0.80303423  0.01763067  0.80671502  1
  O  O54  1  0.79233895  0.97127882  0.69702827  1
  O  O55  1  0.17630741  0.20475047  0.70089072  1
  O  O56  1  0.02676057  0.80358901  0.69438010  1
  O  O57  1  0.77682844  0.80358901  0.19438010  1
  O  O58  1  0.02844306  0.20475047  0.20089072  1
  O  O59  1  0.17893987  0.97127882  0.19702827  1
  O  O60  1  0.88126344  0.35096367  0.64004802  1
  O  O61  1  0.46591817  0.11522145  0.63226187  1
  O  O62  1  0.65617407  0.54590496  0.64330174  1
  O  O63  1  0.88973190  0.54590496  0.14330174  1
  O  O64  1  0.64930428  0.11522145  0.13226187  1
  O  O65  1  0.46970123  0.35096367  0.14004802  1
  O  O66  1  0.45900595  0.30461182  0.03036127  1
  O  O67  1  0.84297441  0.53808347  0.03422372  1
  O  O68  1  0.69342757  0.13692201  0.02771310  1
  O  O69  1  0.44349544  0.13692201  0.52771310  1
  O  O70  1  0.69511006  0.53808347  0.53422372  1
  O  O71  1  0.84560687  0.30461182  0.53036127  1
  O  O72  1  0.54792944  0.68429767  0.97338202  1
  O  O73  1  0.13258417  0.44855545  0.96559587  1
  O  O74  1  0.32284007  0.87923896  0.97663574  1
  O  O75  1  0.55639790  0.87923896  0.47663574  1
  O  O76  1  0.31597028  0.44855545  0.46559587  1
  O  O77  1  0.13636723  0.68429767  0.47338202  1
  O  O78  1  0.12567195  0.63794582  0.36369527  1
  O  O79  1  0.50964041  0.87141747  0.36755772  1
  O  O80  1  0.36009357  0.47025601  0.36104710  1
  O  O81  1  0.11016144  0.47025601  0.86104710  1
  O  O82  1  0.36177606  0.87141747  0.86755772  1
  O  O83  1  0.51227287  0.63794582  0.86369527  1
  O  O84  1  0.02045299  0.82020243  0.41217330  1
  O  O85  1  0.80850996  0.00798808  0.41346618  1
  O  O86  1  0.19114166  0.19903437  0.41040598  1
  O  O87  1  0.00789271  0.19903437  0.91040598  1
  O  O88  1  0.19947813  0.00798808  0.91346618  1
  O  O89  1  0.79974944  0.82020243  0.91217330  1
  O  O90  1  0.96807265  0.16269823  0.58817313  1
  O  O91  1  0.19232356  0.01698996  0.58684115  1
  O  O92  1  0.84671399  0.81363420  0.58794991  1
  O  O93  1  0.96692021  0.81363420  0.08794991  1
  O  O94  1  0.82466640  0.01698996  0.08684115  1
  O  O95  1  0.19462558  0.16269823  0.08817313  1
  O  O96  1  0.68711999  0.15353543  0.74550630  1
  O  O97  1  0.47517696  0.34132108  0.74679918  1
  O  O98  1  0.85780866  0.53236737  0.74373898  1
  O  O99  1  0.67455971  0.53236737  0.24373898  1
  O  O100  1  0.86614513  0.34132108  0.24679918  1
  O  O101  1  0.46641644  0.15353543  0.24550630  1
  O  O102  1  0.63473965  0.49603123  0.92150613  1
  O  O103  1  0.85899056  0.35032296  0.92017415  1
  O  O104  1  0.51338099  0.14696720  0.92128291  1
  O  O105  1  0.63358721  0.14696720  0.42128291  1
  O  O106  1  0.49133340  0.35032296  0.42017415  1
  O  O107  1  0.86129258  0.49603123  0.42150613  1
  O  O108  1  0.35378599  0.48686943  0.07884030  1
  O  O109  1  0.14184296  0.67465508  0.08013318  1
  O  O110  1  0.52447466  0.86570137  0.07707298  1
  O  O111  1  0.34122571  0.86570137  0.57707298  1
  O  O112  1  0.53281113  0.67465508  0.58013318  1
  O  O113  1  0.13308244  0.48686943  0.57884030  1
  O  O114  1  0.30140565  0.82936523  0.25484013  1
  O  O115  1  0.52565656  0.68365696  0.25350815  1
  O  O116  1  0.18004699  0.48030120  0.25461691  1
  O  O117  1  0.30025321  0.48030120  0.75461691  1
  O  O118  1  0.15799940  0.68365696  0.75350815  1
  O  O119  1  0.52795858  0.82936523  0.75484013  1
