# generated using pymatgen
data_Na5MnO4
_symmetry_space_group_name_H-M   'P 1'
_cell_length_a   5.75727280
_cell_length_b   11.90148748
_cell_length_c   7.66451850
_cell_angle_alpha   90.00000000
_cell_angle_beta   90.00000000
_cell_angle_gamma   90.00000000
_symmetry_Int_Tables_number   1
_chemical_formula_structural   Na5MnO4
_chemical_formula_sum   'Na20 Mn4 O16'
_cell_volume   525.17365185
_cell_formula_units_Z   4
loop_
 _symmetry_equiv_pos_site_id
 _symmetry_equiv_pos_as_xyz
  1  'x, y, z'
loop_
 _atom_site_type_symbol
 _atom_site_label
 _atom_site_symmetry_multiplicity
 _atom_site_fract_x
 _atom_site_fract_y
 _atom_site_fract_z
 _atom_site_occupancy
  Na  Na0  1  0.24237038  0.34034556  0.50000000  1
  Na  Na1  1  0.24237038  0.84034556  0.50000000  1
  Na  Na2  1  0.74237038  0.15965444  0.00000000  1
  Na  Na3  1  0.74237038  0.65965444  0.00000000  1
  Na  Na4  1  0.74573502  0.30306539  0.30238011  1
  Na  Na5  1  0.74573502  0.80306539  0.30238011  1
  Na  Na6  1  0.24573502  0.19693461  0.80238011  1
  Na  Na7  1  0.24573502  0.69693461  0.80238011  1
  Na  Na8  1  0.74573502  0.30306539  0.69761989  1
  Na  Na9  1  0.74573502  0.80306539  0.69761989  1
  Na  Na10  1  0.24573502  0.19693461  0.19761989  1
  Na  Na11  1  0.24573502  0.69693461  0.19761989  1
  Na  Na12  1  0.43591141  0.46415086  0.82115856  1
  Na  Na13  1  0.43591141  0.96415086  0.82115856  1
  Na  Na14  1  0.43591141  0.46415086  0.17884144  1
  Na  Na15  1  0.43591141  0.96415086  0.17884144  1
  Na  Na16  1  0.93591141  0.03584914  0.32115856  1
  Na  Na17  1  0.93591141  0.53584914  0.32115856  1
  Na  Na18  1  0.93591141  0.03584914  0.67884144  1
  Na  Na19  1  0.93591141  0.53584914  0.67884144  1
  Mn  Mn20  1  0.49480527  0.58774182  0.50000000  1
  Mn  Mn21  1  0.99480527  0.91225818  0.00000000  1
  Mn  Mn22  1  0.49480527  0.08774182  0.50000000  1
  Mn  Mn23  1  0.99480527  0.41225818  0.00000000  1
  O  O24  1  0.61223498  0.43987041  0.50000000  1
  O  O25  1  0.61223498  0.93987041  0.50000000  1
  O  O26  1  0.11223498  0.06012959  0.00000000  1
  O  O27  1  0.11223498  0.56012959  0.00000000  1
  O  O28  1  0.19274583  0.14155562  0.50000000  1
  O  O29  1  0.19274583  0.64155562  0.50000000  1
  O  O30  1  0.69274583  0.35844438  0.00000000  1
  O  O31  1  0.69274583  0.85844438  0.00000000  1
  O  O32  1  0.59357484  0.12906965  0.27466320  1
  O  O33  1  0.59357484  0.62906965  0.27466320  1
  O  O34  1  0.09357484  0.37093035  0.22533680  1
  O  O35  1  0.09357484  0.87093035  0.22533680  1
  O  O36  1  0.09357484  0.37093035  0.77466320  1
  O  O37  1  0.09357484  0.87093035  0.77466320  1
  O  O38  1  0.59357484  0.12906965  0.72533680  1
  O  O39  1  0.59357484  0.62906965  0.72533680  1
