# generated using pymatgen
data_MgV4O7F5
_symmetry_space_group_name_H-M   'P 1'
_cell_length_a   5.26395899
_cell_length_b   7.26252947
_cell_length_c   5.62707160
_cell_angle_alpha   92.19286766
_cell_angle_beta   87.38928853
_cell_angle_gamma   89.54067883
_symmetry_Int_Tables_number   1
_chemical_formula_structural   MgV4O7F5
_chemical_formula_sum   'Mg1 V4 O7 F5'
_cell_volume   214.73010339
_cell_formula_units_Z   1
loop_
 _symmetry_equiv_pos_site_id
 _symmetry_equiv_pos_as_xyz
  1  'x, y, z'
loop_
 _atom_site_type_symbol
 _atom_site_label
 _atom_site_symmetry_multiplicity
 _atom_site_fract_x
 _atom_site_fract_y
 _atom_site_fract_z
 _atom_site_occupancy
  Mg  Mg0  1  0.51060000  0.21259600  0.10623200  1
  V  V1  1  0.52426900  0.50511800  0.47541800  1
  V  V2  1  0.56147000  0.00163600  0.54325200  1
  V  V3  1  0.00019900  0.48874700  0.95303500  1
  V  V4  1  0.02283700  0.99543600  0.03210600  1
  O  O5  1  0.87423200  0.23695200  0.99149800  1
  O  O6  1  0.75814100  0.55055800  0.27002600  1
  O  O7  1  0.81591400  0.95439100  0.69232500  1
  O  O8  1  0.56472400  0.24682300  0.46268400  1
  O  O9  1  0.20289200  0.05097300  0.26123600  1
  O  O10  1  0.19933200  0.46609100  0.71055100  1
  O  O11  1  0.06208400  0.76244200  0.99909200  1
  F  F12  1  0.68839700  0.95504100  0.19921700  1
  F  F13  1  0.69101700  0.54284400  0.77728800  1
  F  F14  1  0.38930000  0.76468600  0.51717700  1
  F  F15  1  0.28951000  0.43831600  0.18036200  1
  F  F16  1  0.33258000  0.07734700  0.82850300  1
