# generated using pymatgen
data_MgFe2W2(ClO4)2
_symmetry_space_group_name_H-M   'P 1'
_cell_length_a   5.69188600
_cell_length_b   6.94236000
_cell_length_c   6.94236000
_cell_angle_alpha   90.00000000
_cell_angle_beta   90.00000000
_cell_angle_gamma   90.00000000
_symmetry_Int_Tables_number   1
_chemical_formula_structural   MgFe2W2(ClO4)2
_chemical_formula_sum   'Mg1 Fe2 W2 Cl2 O8'
_cell_volume   274.32820022
_cell_formula_units_Z   1
loop_
 _symmetry_equiv_pos_site_id
 _symmetry_equiv_pos_as_xyz
  1  'x, y, z'
loop_
 _atom_site_type_symbol
 _atom_site_label
 _atom_site_symmetry_multiplicity
 _atom_site_fract_x
 _atom_site_fract_y
 _atom_site_fract_z
 _atom_site_occupancy
  Mg  Mg0  1  0.50000000  0.25000000  0.75000000  1
  Fe  Fe1  1  0.25376000  0.25000000  0.25000000  1
  Fe  Fe2  1  0.74624000  0.75000000  0.75000000  1
  W  W3  1  0.00000000  0.25000000  0.75000000  1
  W  W4  1  0.00000000  0.75000000  0.25000000  1
  Cl  Cl5  1  0.31608600  0.75000000  0.75000000  1
  Cl  Cl6  1  0.68391400  0.25000000  0.25000000  1
  O  O7  1  0.21915100  0.25000000  0.55868600  1
  O  O8  1  0.18207400  0.96464600  0.25000000  1
  O  O9  1  0.78084900  0.05868600  0.75000000  1
  O  O10  1  0.78084900  0.44131400  0.75000000  1
  O  O11  1  0.81792600  0.75000000  0.46464600  1
  O  O12  1  0.18207400  0.53535400  0.25000000  1
  O  O13  1  0.21915100  0.25000000  0.94131400  1
  O  O14  1  0.81792600  0.75000000  0.03535400  1
