# generated using pymatgen
data_NaYHfSi(SO6)2
_symmetry_space_group_name_H-M   'P 1'
_cell_length_a   9.05715853
_cell_length_b   9.09241556
_cell_length_c   23.64519891
_cell_angle_alpha   90.21053072
_cell_angle_beta   90.00000000
_cell_angle_gamma   119.87181165
_symmetry_Int_Tables_number   1
_chemical_formula_structural   NaYHfSi(SO6)2
_chemical_formula_sum   'Na6 Y6 Hf6 Si6 S12 O72'
_cell_volume   1688.49774591
_cell_formula_units_Z   6
loop_
 _symmetry_equiv_pos_site_id
 _symmetry_equiv_pos_as_xyz
  1  'x, y, z'
loop_
 _atom_site_type_symbol
 _atom_site_label
 _atom_site_symmetry_multiplicity
 _atom_site_fract_x
 _atom_site_fract_y
 _atom_site_fract_z
 _atom_site_occupancy
  Na  Na0  1  0.03442273  0.01551599  0.50206227  1
  Na  Na1  1  0.98109326  0.01551599  0.00206227  1
  Na  Na2  1  0.69846843  0.33109624  0.83418367  1
  Na  Na3  1  0.63262881  0.33109624  0.33418367  1
  Na  Na4  1  0.34401999  0.70416378  0.16773863  1
  Na  Na5  1  0.36014279  0.70416378  0.66773863  1
  Y  Y6  1  0.99770290  0.99797511  0.64707065  1
  Y  Y7  1  0.00027221  0.99797511  0.14707065  1
  Y  Y8  1  0.67636111  0.32430979  0.97997688  1
  Y  Y9  1  0.64794968  0.32430979  0.47997688  1
  Y  Y10  1  0.33698175  0.66802014  0.31354198  1
  Y  Y11  1  0.33103739  0.66802014  0.81354198  1
  Hf  Hf12  1  0.02138899  0.01199096  0.35262720  1
  Hf  Hf13  1  0.99060197  0.01199096  0.85262720  1
  Hf  Hf14  1  0.65681108  0.31017053  0.68552330  1
  Hf  Hf15  1  0.65336045  0.31017053  0.18552330  1
  Hf  Hf16  1  0.33074095  0.66389960  0.01886157  1
  Hf  Hf17  1  0.33315765  0.66389960  0.51886157  1
  Si  Si18  1  0.29853720  0.00246616  0.24831048  1
  Si  Si19  1  0.70392895  0.00246616  0.74831048  1
  Si  Si20  1  0.36835287  0.02723722  0.58220438  1
  Si  Si21  1  0.65888536  0.02723722  0.08220438  1
  Si  Si22  1  0.04345843  0.37213290  0.91554937  1
  Si  Si23  1  0.32867347  0.37213290  0.41554937  1
  S  S24  1  0.71422700  0.70244744  0.25059032  1
  S  S25  1  0.99007680  0.28797594  0.25069839  1
  S  S26  1  0.29789913  0.28797594  0.75069839  1
  S  S27  1  0.98822044  0.70244744  0.75059032  1
  S  S28  1  0.96289625  0.34379538  0.58284411  1
  S  S29  1  0.65787957  0.62030819  0.58368767  1
  S  S30  1  0.96242961  0.62030819  0.08368767  1
  S  S31  1  0.38090013  0.34379538  0.08284411  1
  S  S32  1  0.63051340  0.67480043  0.91736174  1
  S  S33  1  0.32087956  0.95396755  0.91764292  1
  S  S34  1  0.63308698  0.95396755  0.41764292  1
  S  S35  1  0.04428603  0.67480043  0.41736174  1
  O  O36  1  0.19935748  0.02463262  0.30531707  1
  O  O37  1  0.81635887  0.79093451  0.30196766  1
  O  O38  1  0.96616941  0.17993814  0.30154779  1
  O  O39  1  0.21376873  0.17993814  0.80154779  1
  O  O40  1  0.97457565  0.79093451  0.80196766  1
  O  O41  1  0.82527514  0.02463262  0.80531707  1
  O  O42  1  0.79481583  0.98531091  0.69306014  1
  O  O43  1  0.19858158  0.20944443  0.69951913  1
  O  O44  1  0.01488466  0.80449707  0.69957005  1
  O  O45  1  0.78961241  0.80449707  0.19957005  1
  O  O46  1  0.01086285  0.20944443  0.19951913  1
  O  O47  1  0.19049508  0.98531091  0.19306014  1
  O  O48  1  0.87726514  0.36521160  0.63431449  1
  O  O49  1  0.49100793  0.13009750  0.63910371  1
  O  O50  1  0.63949663  0.51767916  0.63484923  1
  O  O51  1  0.87818353  0.51767916  0.13484923  1
  O  O52  1  0.63909057  0.13009750  0.13910371  1
  O  O53  1  0.48794745  0.36521160  0.13431449  1
  O  O54  1  0.45911477  0.32430760  0.03190099  1
  O  O55  1  0.86107299  0.54551611  0.03266495  1
  O  O56  1  0.68065492  0.14063549  0.02800495  1
  O  O57  1  0.45998157  0.14063549  0.52800495  1
  O  O58  1  0.68444412  0.54551611  0.53266495  1
  O  O59  1  0.86519383  0.32430760  0.53190099  1
  O  O60  1  0.54636673  0.70133342  0.96824174  1
  O  O61  1  0.16204942  0.47188657  0.97231008  1
  O  O62  1  0.30713704  0.84880460  0.96845673  1
  O  O63  1  0.54166655  0.84880460  0.46845673  1
  O  O64  1  0.30983616  0.47188657  0.47231008  1
  O  O65  1  0.15496569  0.70133342  0.46824174  1
  O  O66  1  0.12328635  0.65601036  0.36588351  1
  O  O67  1  0.52823353  0.88213855  0.36664851  1
  O  O68  1  0.34248838  0.47682539  0.35987623  1
  O  O69  1  0.13433602  0.47682539  0.85987623  1
  O  O70  1  0.35390402  0.88213855  0.86664851  1
  O  O71  1  0.53272301  0.65601036  0.86588351  1
  O  O72  1  0.02594216  0.83015013  0.41215095  1
  O  O73  1  0.79752685  0.95576916  0.41176322  1
  O  O74  1  0.15062265  0.18103530  0.41080917  1
  O  O75  1  0.03041265  0.18103530  0.91080917  1
  O  O76  1  0.15824231  0.95576916  0.91176322  1
  O  O77  1  0.80420797  0.83015013  0.91215095  1
  O  O78  1  0.98751243  0.19620470  0.58897001  1
  O  O79  1  0.17933536  0.00225899  0.58677561  1
  O  O80  1  0.80273070  0.79424147  0.58864786  1
  O  O81  1  0.99151077  0.79424147  0.08864786  1
  O  O82  1  0.82292364  0.00225899  0.08677561  1
  O  O83  1  0.20869227  0.19620470  0.08897001  1
  O  O84  1  0.69721771  0.18327089  0.74395907  1
  O  O85  1  0.47103258  0.30491132  0.74528841  1
  O  O86  1  0.82860301  0.53506453  0.74460891  1
  O  O87  1  0.70646251  0.53506453  0.24460891  1
  O  O88  1  0.83387975  0.30491132  0.24528841  1
  O  O89  1  0.48605419  0.18327089  0.24395907  1
  O  O90  1  0.64872265  0.52535297  0.92447745  1
  O  O91  1  0.85249934  0.34472755  0.91743012  1
  O  O92  1  0.46230129  0.12881225  0.92404994  1
  O  O93  1  0.66651196  0.12881225  0.42404994  1
  O  O94  1  0.49222921  0.34472755  0.41743012  1
  O  O95  1  0.87663133  0.52535297  0.42447745  1
  O  O96  1  0.36671277  0.50155529  0.07858831  1
  O  O97  1  0.13348211  0.63084943  0.07777087  1
  O  O98  1  0.48143425  0.84132894  0.07619720  1
  O  O99  1  0.35989369  0.84132894  0.57619720  1
  O  O100  1  0.49736632  0.63084943  0.57777087  1
  O  O101  1  0.13484152  0.50155529  0.57858831  1
  O  O102  1  0.32935000  0.84321794  0.25315845  1
  O  O103  1  0.53978234  0.67543570  0.25503565  1
  O  O104  1  0.13836383  0.45833604  0.25660633  1
  O  O105  1  0.31997121  0.45833604  0.75660633  1
  O  O106  1  0.13565236  0.67543570  0.75503565  1
  O  O107  1  0.51386694  0.84321794  0.75315845  1
