# generated using pymatgen
data_Na4ZnGe3(PO4)6
_symmetry_space_group_name_H-M   'P 1'
_cell_length_a   8.57004978
_cell_length_b   8.57706171
_cell_length_c   21.78837715
_cell_angle_alpha   89.99790242
_cell_angle_beta   89.98282422
_cell_angle_gamma   119.96316681
_symmetry_Int_Tables_number   1
_chemical_formula_structural   Na4ZnGe3(PO4)6
_chemical_formula_sum   'Na12 Zn3 Ge9 P18 O72'
_cell_volume   1387.51739664
_cell_formula_units_Z   3
loop_
 _symmetry_equiv_pos_site_id
 _symmetry_equiv_pos_as_xyz
  1  'x, y, z'
loop_
 _atom_site_type_symbol
 _atom_site_label
 _atom_site_symmetry_multiplicity
 _atom_site_fract_x
 _atom_site_fract_y
 _atom_site_fract_z
 _atom_site_occupancy
  Na  Na0  1  0.63987398  0.00899154  0.24759365  1
  Na  Na1  1  0.36909855  0.35993786  0.24751159  1
  Na  Na2  1  0.99139836  0.63041010  0.24730354  1
  Na  Na3  1  0.99025440  0.36544619  0.74596415  1
  Na  Na4  1  0.37400534  0.00629266  0.74612946  1
  Na  Na5  1  0.70754384  0.67450636  0.41591460  1
  Na  Na6  1  0.00827436  0.00900822  0.49797034  1
  Na  Na7  1  0.99980314  0.99987403  0.00046776  1
  Na  Na8  1  0.66549394  0.34173180  0.83345031  1
  Na  Na9  1  0.66561566  0.32470761  0.33354397  1
  Na  Na10  1  0.33309348  0.66662147  0.16163024  1
  Na  Na11  1  0.34161343  0.66537668  0.66278329  1
  Zn  Zn12  1  0.00580472  0.00654686  0.35518117  1
  Zn  Zn13  1  0.66577018  0.33925286  0.68096318  1
  Zn  Zn14  1  0.66684211  0.33321446  0.17703854  1
  Ge  Ge15  1  0.99971701  0.99883797  0.85560211  1
  Ge  Ge16  1  0.99815396  0.99839561  0.64374476  1
  Ge  Ge17  1  0.00104170  0.00077827  0.14456488  1
  Ge  Ge18  1  0.66696956  0.33355544  0.98250171  1
  Ge  Ge19  1  0.66618250  0.32884412  0.48348631  1
  Ge  Ge20  1  0.33378151  0.66675546  0.01863966  1
  Ge  Ge21  1  0.33214224  0.66625081  0.52078262  1
  Ge  Ge22  1  0.33213825  0.66712041  0.31719132  1
  Ge  Ge23  1  0.33763955  0.66567594  0.81636352  1
  P  P24  1  0.28854075  0.99804185  0.25080207  1
  P  P25  1  0.70914165  0.71119320  0.25166425  1
  P  P26  1  0.00141800  0.28996991  0.25090923  1
  P  P27  1  0.28474546  0.28796634  0.75199613  1
  P  P28  1  0.99904532  0.71590798  0.75216068  1
  P  P29  1  0.71310714  0.99083375  0.75177535  1
  P  P30  1  0.96145522  0.33408360  0.58392421  1
  P  P31  1  0.37321327  0.03859211  0.58392633  1
  P  P32  1  0.66537437  0.62680375  0.58260058  1
  P  P33  1  0.96246975  0.62811662  0.08237255  1
  P  P34  1  0.66551817  0.03756890  0.08237223  1
  P  P35  1  0.37228247  0.33459571  0.08239203  1
  P  P36  1  0.62258755  0.66558025  0.91746324  1
  P  P37  1  0.04324317  0.37748497  0.91694730  1
  P  P38  1  0.33467421  0.95699633  0.91696768  1
  P  P39  1  0.61667721  0.95918360  0.41905975  1
  P  P40  1  0.33376522  0.37809031  0.41962351  1
  P  P41  1  0.04445559  0.66082703  0.41934691  1
  O  O42  1  0.21184655  0.03544638  0.30703173  1
  O  O43  1  0.81823905  0.78473200  0.30978836  1
  O  O44  1  0.96161460  0.17446182  0.30690818  1
  O  O45  1  0.19758120  0.16541151  0.80921993  1
  O  O46  1  0.97142582  0.80324550  0.81003554  1
  O  O47  1  0.83579589  0.03105705  0.80892065  1
  O  O48  1  0.79510348  0.95786438  0.69321016  1
  O  O49  1  0.16051553  0.20778538  0.69442999  1
  O  O50  1  0.04502060  0.83997961  0.69456794  1
  O  O51  1  0.79246772  0.83738327  0.19402212  1
  O  O52  1  0.04658722  0.21051896  0.19237830  1
  O  O53  1  0.16414762  0.95363591  0.19231019  1
  O  O54  1  0.89381368  0.37032169  0.64341800  1
  O  O55  1  0.47792580  0.10523598  0.64332055  1
  O  O56  1  0.62607736  0.51651854  0.63971482  1
  O  O57  1  0.89738532  0.52520446  0.14207431  1
  O  O58  1  0.62758247  0.10262654  0.14205252  1
  O  O59  1  0.47512537  0.37239720  0.14211998  1
  O  O60  1  0.46057557  0.29698932  0.02571018  1
  O  O61  1  0.83670655  0.53975087  0.02571527  1
  O  O62  1  0.70321572  0.16340533  0.02566170  1
  O  O63  1  0.45976810  0.16380798  0.52690108  1
  O  O64  1  0.70298971  0.54514616  0.52313352  1
  O  O65  1  0.83690811  0.29657133  0.52684312  1
  O  O66  1  0.53785726  0.70336513  0.97340243  1
  O  O67  1  0.16698490  0.46400567  0.97237217  1
  O  O68  1  0.29742986  0.83324890  0.97237929  1
  O  O69  1  0.52566423  0.83073682  0.47342338  1
  O  O70  1  0.30894250  0.47411812  0.47469306  1
  O  O71  1  0.16632320  0.69176818  0.47439778  1
  O  O72  1  0.12236926  0.62525269  0.35810469  1
  O  O73  1  0.50263870  0.87919289  0.35777262  1
  O  O74  1  0.37932536  0.50077568  0.35910740  1
  O  O75  1  0.12312175  0.49362691  0.85714508  1
  O  O76  1  0.37035806  0.87689571  0.85707522  1
  O  O77  1  0.50337031  0.62746202  0.85895178  1
  O  O78  1  0.01855579  0.82214238  0.41527820  1
  O  O79  1  0.79900518  0.97305931  0.41474048  1
  O  O80  1  0.17061771  0.19625381  0.41537910  1
  O  O81  1  0.02539650  0.18864912  0.90990702  1
  O  O82  1  0.16338843  0.97479346  0.91019605  1
  O  O83  1  0.81103280  0.83676466  0.91013522  1
  O  O84  1  0.97944707  0.16131054  0.58827737  1
  O  O85  1  0.18260042  0.02128365  0.58867185  1
  O  O86  1  0.83877233  0.81722429  0.58773677  1
  O  O87  1  0.97931347  0.81806741  0.08750774  1
  O  O88  1  0.83848311  0.02017523  0.08760267  1
  O  O89  1  0.18224610  0.16154869  0.08736803  1
  O  O90  1  0.68909798  0.15539657  0.74821965  1
  O  O91  1  0.46858545  0.30580671  0.74782120  1
  O  O92  1  0.84022010  0.52756126  0.74821175  1
  O  O93  1  0.68034934  0.52197752  0.24398505  1
  O  O94  1  0.84210973  0.32092187  0.24335371  1
  O  O95  1  0.47843523  0.15776917  0.24340769  1
  O  O96  1  0.64136128  0.49564925  0.92445292  1
  O  O97  1  0.85467408  0.35939446  0.92399687  1
  O  O98  1  0.50468415  0.14549958  0.92400640  1
  O  O99  1  0.62910285  0.14513861  0.42515083  1
  O  O100  1  0.51344624  0.37100245  0.42464123  1
  O  O101  1  0.85376409  0.48681719  0.42452204  1
  O  O102  1  0.35172802  0.50331462  0.07213344  1
  O  O103  1  0.15167503  0.64819613  0.07199894  1
  O  O104  1  0.49649532  0.84861164  0.07212088  1
  O  O105  1  0.35110997  0.84907547  0.57379008  1
  O  O106  1  0.49838032  0.65082001  0.57335991  1
  O  O107  1  0.15094619  0.50201121  0.57415992  1
  O  O108  1  0.30295970  0.82010450  0.25593277  1
  O  O109  1  0.51668988  0.69662001  0.25620648  1
  O  O110  1  0.17956781  0.48203540  0.25644389  1
  O  O111  1  0.29476266  0.47572495  0.75875222  1
  O  O112  1  0.17760333  0.70148929  0.75799696  1
  O  O113  1  0.52055463  0.81984175  0.75826187  1
