# generated using pymatgen
data_Bi4B2O9
_symmetry_space_group_name_H-M   'P 1'
_cell_length_a   6.57010976
_cell_length_b   11.07295662
_cell_length_c   11.14115447
_cell_angle_alpha   89.38560555
_cell_angle_beta   90.00000000
_cell_angle_gamma   90.00000000
_symmetry_Int_Tables_number   1
_chemical_formula_structural   Bi4B2O9
_chemical_formula_sum   'Bi16 B8 O36'
_cell_volume   810.47840905
_cell_formula_units_Z   4
loop_
 _symmetry_equiv_pos_site_id
 _symmetry_equiv_pos_as_xyz
  1  'x, y, z'
loop_
 _atom_site_type_symbol
 _atom_site_label
 _atom_site_symmetry_multiplicity
 _atom_site_fract_x
 _atom_site_fract_y
 _atom_site_fract_z
 _atom_site_occupancy
  Bi  Bi0  1  0.94213500  0.01964500  0.34384120  1
  Bi  Bi1  1  0.44213500  0.48035500  0.65615880  1
  Bi  Bi2  1  0.05786500  0.98035500  0.65615880  1
  Bi  Bi3  1  0.55786500  0.51964500  0.34384120  1
  Bi  Bi4  1  0.92736593  0.34043441  0.50208733  1
  Bi  Bi5  1  0.42736593  0.15956559  0.49791267  1
  Bi  Bi6  1  0.07263407  0.65956559  0.49791267  1
  Bi  Bi7  1  0.57263407  0.84043441  0.50208733  1
  Bi  Bi8  1  0.54411213  0.00866031  0.80475249  1
  Bi  Bi9  1  0.04411213  0.49133969  0.19524751  1
  Bi  Bi10  1  0.45588787  0.99133969  0.19524751  1
  Bi  Bi11  1  0.95588787  0.50866031  0.80475249  1
  Bi  Bi12  1  0.98166043  0.15357552  0.99075102  1
  Bi  Bi13  1  0.48166043  0.34642448  0.00924898  1
  Bi  Bi14  1  0.01833957  0.84642448  0.00924898  1
  Bi  Bi15  1  0.51833957  0.65357552  0.99075102  1
  B  B16  1  0.75357503  0.24503686  0.22374846  1
  B  B17  1  0.25357503  0.25496314  0.77625154  1
  B  B18  1  0.24642497  0.75496314  0.77625154  1
  B  B19  1  0.74642497  0.74503686  0.22374846  1
  B  B20  1  0.73431749  0.23428481  0.74981612  1
  B  B21  1  0.23431749  0.26571519  0.25018388  1
  B  B22  1  0.26568251  0.76571519  0.25018388  1
  B  B23  1  0.76568251  0.73428481  0.74981612  1
  O  O24  1  0.81507686  0.34207719  0.71033364  1
  O  O25  1  0.31507686  0.15792281  0.28966636  1
  O  O26  1  0.18492314  0.65792281  0.28966636  1
  O  O27  1  0.68492314  0.84207719  0.71033364  1
  O  O28  1  0.82318877  0.22106078  0.33836072  1
  O  O29  1  0.32318877  0.27893922  0.66163928  1
  O  O30  1  0.73569699  0.14789704  0.14615002  1
  O  O31  1  0.17681123  0.77893922  0.66163928  1
  O  O32  1  0.90207659  0.89111187  0.49871078  1
  O  O33  1  0.40207659  0.60888813  0.50128922  1
  O  O34  1  0.09792341  0.10888813  0.50128922  1
  O  O35  1  0.59792341  0.39111187  0.49871078  1
  O  O36  1  0.89640568  0.50523994  0.38448615  1
  O  O37  1  0.39640568  0.99476006  0.61551385  1
  O  O38  1  0.10359432  0.49476006  0.61551385  1
  O  O39  1  0.60359432  0.00523994  0.38448615  1
  O  O40  1  0.84061753  0.71722445  0.86350965  1
  O  O41  1  0.34061753  0.78277555  0.13649035  1
  O  O42  1  0.15938247  0.28277555  0.13649035  1
  O  O43  1  0.65938247  0.21722445  0.86350965  1
  O  O44  1  0.84269091  0.98605164  0.92078147  1
  O  O45  1  0.34269091  0.51394836  0.07921853  1
  O  O46  1  0.15730909  0.01394836  0.07921853  1
  O  O47  1  0.65730909  0.48605164  0.92078147  1
  O  O48  1  0.79241199  0.86071081  0.18642422  1
  O  O49  1  0.29241199  0.63928919  0.81357578  1
  O  O50  1  0.20758801  0.13928919  0.81357578  1
  O  O51  1  0.70758801  0.36071081  0.18642422  1
  O  O52  1  0.77271649  0.63405427  0.67500842  1
  O  O53  1  0.27271649  0.86594573  0.32499158  1
  O  O54  1  0.22728351  0.36594573  0.32499158  1
  O  O55  1  0.72728351  0.13405427  0.67500842  1
  O  O56  1  0.76430301  0.64789704  0.14615002  1
  O  O57  1  0.26430301  0.85210296  0.85384998  1
  O  O58  1  0.23569699  0.35210296  0.85384998  1
  O  O59  1  0.67681123  0.72106078  0.33836072  1
