# generated using pymatgen
data_Na4HfMgSi2SO12
_symmetry_space_group_name_H-M   'P 1'
_cell_length_a   9.14882872
_cell_length_b   9.19693180
_cell_length_c   22.23009758
_cell_angle_alpha   89.97005046
_cell_angle_beta   90.00000000
_cell_angle_gamma   119.82713203
_symmetry_Int_Tables_number   1
_chemical_formula_structural   Na4HfMgSi2SO12
_chemical_formula_sum   'Na24 Hf6 Mg6 Si12 S6 O72'
_cell_volume   1622.68515894
_cell_formula_units_Z   6
loop_
 _symmetry_equiv_pos_site_id
 _symmetry_equiv_pos_as_xyz
  1  'x, y, z'
loop_
 _atom_site_type_symbol
 _atom_site_label
 _atom_site_symmetry_multiplicity
 _atom_site_fract_x
 _atom_site_fract_y
 _atom_site_fract_z
 _atom_site_occupancy
  Na  Na0  1  0.64616297  0.02583124  0.25658768  1
  Na  Na1  1  0.35982972  0.34527200  0.24040925  1
  Na  Na2  1  0.99346884  0.61997799  0.23760549  1
  Na  Na3  1  0.62650915  0.61997799  0.73760549  1
  Na  Na4  1  0.98544228  0.34527200  0.74040925  1
  Na  Na5  1  0.37966826  0.02583124  0.75658768  1
  Na  Na6  1  0.31282997  0.35916424  0.58992068  1
  Na  Na7  1  0.02649672  0.67860500  0.57374225  1
  Na  Na8  1  0.66013584  0.95331099  0.57093849  1
  Na  Na9  1  0.29317615  0.95331099  0.07093849  1
  Na  Na10  1  0.65210928  0.67860500  0.07374225  1
  Na  Na11  1  0.04633526  0.35916424  0.08992068  1
  Na  Na12  1  0.97949597  0.69249824  0.92325468  1
  Na  Na13  1  0.69316272  0.01193900  0.90707625  1
  Na  Na14  1  0.32680184  0.28664499  0.90427249  1
  Na  Na15  1  0.95984215  0.28664499  0.40427249  1
  Na  Na16  1  0.31877528  0.01193900  0.40707625  1
  Na  Na17  1  0.71300126  0.69249824  0.42325468  1
  Na  Na18  1  0.97873607  0.98499059  0.49393307  1
  Na  Na19  1  0.00625452  0.98499059  0.99393307  1
  Na  Na20  1  0.64540307  0.31832359  0.82726607  1
  Na  Na21  1  0.67292152  0.31832359  0.32726607  1
  Na  Na22  1  0.31206907  0.65165759  0.16060007  1
  Na  Na23  1  0.33958752  0.65165759  0.66060007  1
  Hf  Hf24  1  0.98974872  0.00550129  0.64744023  1
  Hf  Hf25  1  0.01575257  0.00550129  0.14744023  1
  Hf  Hf26  1  0.65641572  0.33883429  0.98077323  1
  Hf  Hf27  1  0.68241957  0.33883429  0.48077323  1
  Hf  Hf28  1  0.32308172  0.67216829  0.31410723  1
  Hf  Hf29  1  0.34908557  0.67216829  0.81410723  1
  Mg  Mg30  1  0.00198890  0.00238682  0.35137630  1
  Mg  Mg31  1  0.00039793  0.00238682  0.85137630  1
  Mg  Mg32  1  0.66865590  0.33571982  0.68470930  1
  Mg  Mg33  1  0.66706493  0.33571982  0.18470930  1
  Mg  Mg34  1  0.33532190  0.66905382  0.01804330  1
  Mg  Mg35  1  0.33373093  0.66905382  0.51804330  1
  Si  Si36  1  0.30135608  0.00446254  0.25369813  1
  Si  Si37  1  0.00007982  0.29529477  0.25262476  1
  Si  Si38  1  0.29521495  0.29529477  0.75262476  1
  Si  Si39  1  0.70310646  0.00446254  0.75369813  1
  Si  Si40  1  0.96802308  0.33779554  0.58703113  1
  Si  Si41  1  0.66674682  0.62862777  0.58595776  1
  Si  Si42  1  0.96188195  0.62862777  0.08595776  1
  Si  Si43  1  0.36977346  0.33779554  0.08703113  1
  Si  Si44  1  0.63468908  0.67112954  0.92036513  1
  Si  Si45  1  0.33341282  0.96196177  0.91929176  1
  Si  Si46  1  0.62854795  0.96196177  0.41929176  1
  Si  Si47  1  0.03643946  0.67112954  0.42036513  1
  S  S48  1  0.70575471  0.70811515  0.25199876  1
  S  S49  1  0.00236044  0.70811515  0.75199876  1
  S  S50  1  0.37242171  0.04144815  0.58533176  1
  S  S51  1  0.66902744  0.04144815  0.08533176  1
  S  S52  1  0.03908771  0.37478215  0.91866576  1
  S  S53  1  0.33569344  0.37478215  0.41866576  1
  O  O54  1  0.21034617  0.02428910  0.31237919  1
  O  O55  1  0.80394090  0.79182217  0.30588001  1
  O  O56  1  0.97542547  0.18328349  0.31137965  1
  O  O57  1  0.20785802  0.18328349  0.81137965  1
  O  O58  1  0.98788127  0.79182217  0.80588001  1
  O  O59  1  0.81394293  0.02428910  0.81237919  1
  O  O60  1  0.79536683  0.97347313  0.69372193  1
  O  O61  1  0.17746548  0.19629237  0.69248599  1
  O  O62  1  0.02529435  0.81095344  0.69669029  1
  O  O63  1  0.78565909  0.81095344  0.19669029  1
  O  O64  1  0.01882688  0.19629237  0.19248599  1
  O  O65  1  0.17810630  0.97347313  0.19372193  1
  O  O66  1  0.87701317  0.35762210  0.64571219  1
  O  O67  1  0.47060790  0.12515517  0.63921301  1
  O  O68  1  0.64209247  0.51661649  0.64471265  1
  O  O69  1  0.87452502  0.51661649  0.14471265  1
  O  O70  1  0.65454827  0.12515517  0.13921301  1
  O  O71  1  0.48060993  0.35762210  0.14571219  1
  O  O72  1  0.46203383  0.30680613  0.02705493  1
  O  O73  1  0.84413248  0.52962537  0.02581899  1
  O  O74  1  0.69196135  0.14428644  0.03002329  1
  O  O75  1  0.45232609  0.14428644  0.53002329  1
  O  O76  1  0.68549388  0.52962537  0.52581899  1
  O  O77  1  0.84477330  0.30680613  0.52705493  1
  O  O78  1  0.54367917  0.69095610  0.97904619  1
  O  O79  1  0.13727390  0.45848917  0.97254701  1
  O  O80  1  0.30875847  0.84995049  0.97804665  1
  O  O81  1  0.54119102  0.84995049  0.47804665  1
  O  O82  1  0.32121427  0.45848917  0.47254701  1
  O  O83  1  0.14727593  0.69095610  0.47904619  1
  O  O84  1  0.12869983  0.64014013  0.36038893  1
  O  O85  1  0.51079848  0.86295937  0.35915299  1
  O  O86  1  0.35862735  0.47762044  0.36335729  1
  O  O87  1  0.11899209  0.47762044  0.86335729  1
  O  O88  1  0.35215988  0.86295937  0.85915299  1
  O  O89  1  0.51143930  0.64014013  0.86038893  1
  O  O90  1  0.00862635  0.83142969  0.41280361  1
  O  O91  1  0.81963219  0.99367413  0.41345697  1
  O  O92  1  0.18495261  0.20669295  0.41465391  1
  O  O93  1  0.02174034  0.20669295  0.91465391  1
  O  O94  1  0.17404194  0.99367413  0.91345697  1
  O  O95  1  0.82280334  0.83142969  0.91280361  1
  O  O96  1  0.98233975  0.16242600  0.58646411  1
  O  O97  1  0.19926498  0.02192577  0.58760956  1
  O  O98  1  0.84904548  0.81190535  0.58680110  1
  O  O99  1  0.96285988  0.81190535  0.08680110  1
  O  O100  1  0.82266079  0.02192577  0.08760956  1
  O  O101  1  0.18008625  0.16242600  0.08646411  1
  O  O102  1  0.67529335  0.16476269  0.74613661  1
  O  O103  1  0.48629919  0.32700713  0.74678997  1
  O  O104  1  0.85161961  0.54002595  0.74798691  1
  O  O105  1  0.68840734  0.54002595  0.24798691  1
  O  O106  1  0.84070894  0.32700713  0.24678997  1
  O  O107  1  0.48947034  0.16476269  0.24613661  1
  O  O108  1  0.64900675  0.49575900  0.91979711  1
  O  O109  1  0.86593198  0.35525877  0.92094256  1
  O  O110  1  0.51571248  0.14523835  0.92013410  1
  O  O111  1  0.62952688  0.14523835  0.42013410  1
  O  O112  1  0.48932779  0.35525877  0.42094256  1
  O  O113  1  0.84675325  0.49575900  0.41979711  1
  O  O114  1  0.34195935  0.49809669  0.07947061  1
  O  O115  1  0.15296519  0.66034113  0.08012397  1
  O  O116  1  0.51828561  0.87335995  0.08132091  1
  O  O117  1  0.35507334  0.87335995  0.58132091  1
  O  O118  1  0.50737494  0.66034113  0.58012397  1
  O  O119  1  0.15613634  0.49809669  0.57947061  1
  O  O120  1  0.31567275  0.82909300  0.25313111  1
  O  O121  1  0.53259798  0.68859277  0.25427656  1
  O  O122  1  0.18237848  0.47857235  0.25346810  1
  O  O123  1  0.29619288  0.47857235  0.75346810  1
  O  O124  1  0.15599379  0.68859277  0.75427656  1
  O  O125  1  0.51341925  0.82909300  0.75313111  1
