# generated using pymatgen
data_Na6Mg16Ta8Si3(S11O48)3
_symmetry_space_group_name_H-M   'P 1'
_cell_length_a   17.43851040
_cell_length_b   8.71708736
_cell_length_c   22.58673662
_cell_angle_alpha   90.09672208
_cell_angle_beta   89.91882028
_cell_angle_gamma   119.97559119
_symmetry_Int_Tables_number   1
_chemical_formula_structural   Na6Mg16Ta8Si3(S11O48)3
_chemical_formula_sum   'Na6 Mg16 Ta8 Si3 S33 O144'
_cell_volume   2974.20537946
_cell_formula_units_Z   1
loop_
 _symmetry_equiv_pos_site_id
 _symmetry_equiv_pos_as_xyz
  1  'x, y, z'
loop_
 _atom_site_type_symbol
 _atom_site_label
 _atom_site_symmetry_multiplicity
 _atom_site_fract_x
 _atom_site_fract_y
 _atom_site_fract_z
 _atom_site_occupancy
  Na  Na0  1  0.00170937  0.98832468  0.49050767  1
  Na  Na1  1  0.49181408  0.00434024  0.99924027  1
  Na  Na2  1  0.33371698  0.33286155  0.83994817  1
  Na  Na3  1  0.84380039  0.35101686  0.82828632  1
  Na  Na4  1  0.33473777  0.33830321  0.33357476  1
  Na  Na5  1  0.83754876  0.34094192  0.33998919  1
  Mg  Mg6  1  0.00026435  0.99564446  0.35578924  1
  Mg  Mg7  1  0.49828499  0.99703229  0.35372402  1
  Mg  Mg8  1  0.00102211  0.99666482  0.85542425  1
  Mg  Mg9  1  0.49705856  0.00063747  0.85691279  1
  Mg  Mg10  1  0.49394421  0.99823743  0.14961097  1
  Mg  Mg11  1  0.33129411  0.33089790  0.68349215  1
  Mg  Mg12  1  0.83907142  0.34089995  0.68362734  1
  Mg  Mg13  1  0.33673885  0.33316802  0.18297292  1
  Mg  Mg14  1  0.83093213  0.33139887  0.18575742  1
  Mg  Mg15  1  0.33340750  0.32439250  0.97944398  1
  Mg  Mg16  1  0.83840482  0.34054359  0.98078788  1
  Mg  Mg17  1  0.33188905  0.32963354  0.47952136  1
  Mg  Mg18  1  0.84108163  0.34390438  0.47787110  1
  Mg  Mg19  1  0.17113284  0.67591441  0.02233958  1
  Mg  Mg20  1  0.16151470  0.66737106  0.52017100  1
  Mg  Mg21  1  0.66731732  0.66648769  0.52081507  1
  Ta  Ta22  1  0.00156294  0.99185056  0.64566212  1
  Ta  Ta23  1  0.49930193  0.00008891  0.64082529  1
  Ta  Ta24  1  0.00283044  0.00102408  0.14374927  1
  Ta  Ta25  1  0.66092691  0.65114422  0.02289057  1
  Ta  Ta26  1  0.16436946  0.66600884  0.31569202  1
  Ta  Ta27  1  0.66492518  0.66534625  0.31294924  1
  Ta  Ta28  1  0.16259267  0.66794514  0.81128282  1
  Ta  Ta29  1  0.66327723  0.65901903  0.81071391  1
  Si  Si30  1  0.99133163  0.70051873  0.75457143  1
  Si  Si31  1  0.51391440  0.36165003  0.91608666  1
  Si  Si32  1  0.01527140  0.66754870  0.42149678  1
  S  S33  1  0.14667117  0.00414739  0.25088403  1
  S  S34  1  0.64581669  0.00530844  0.25061405  1
  S  S35  1  0.35528314  0.70549637  0.25069088  1
  S  S36  1  0.85600934  0.70982416  0.25070316  1
  S  S37  1  0.99874322  0.28668815  0.25107069  1
  S  S38  1  0.49790448  0.28717109  0.25103258  1
  S  S39  1  0.14677496  0.28890078  0.75153462  1
  S  S40  1  0.64384442  0.28167328  0.75068576  1
  S  S41  1  0.49798494  0.71148946  0.75091741  1
  S  S42  1  0.35708410  0.00393554  0.75084287  1
  S  S43  1  0.85634330  0.00327326  0.75177060  1
  S  S44  1  0.47843139  0.34118314  0.58353201  1
  S  S45  1  0.97938404  0.33355250  0.58345789  1
  S  S46  1  0.19140750  0.04416680  0.58347582  1
  S  S47  1  0.69280406  0.04502675  0.58355046  1
  S  S48  1  0.32919051  0.61588105  0.58323528  1
  S  S49  1  0.82971582  0.61984009  0.58331054  1
  S  S50  1  0.47623570  0.62877612  0.08272995  1
  S  S51  1  0.97824762  0.61713757  0.08405694  1
  S  S52  1  0.33432850  0.04247140  0.08315393  1
  S  S53  1  0.83332973  0.04562488  0.08333355  1
  S  S54  1  0.19215214  0.34177650  0.08326946  1
  S  S55  1  0.68826313  0.32512487  0.08283437  1
  S  S56  1  0.31053885  0.66370280  0.91726447  1
  S  S57  1  0.81145309  0.66824210  0.91705214  1
  S  S58  1  0.02133486  0.37462321  0.91806571  1
  S  S59  1  0.16504229  0.95661310  0.91840160  1
  S  S60  1  0.66866222  0.95647121  0.91692901  1
  S  S61  1  0.31377044  0.95888351  0.41810262  1
  S  S62  1  0.81018009  0.95571550  0.41806453  1
  S  S63  1  0.16806186  0.37713190  0.41811360  1
  S  S64  1  0.66408041  0.37273739  0.41785020  1
  S  S65  1  0.52098579  0.66773122  0.41845500  1
  O  O66  1  0.10378693  0.02985554  0.30169757  1
  O  O67  1  0.60553654  0.02915200  0.30388326  1
  O  O68  1  0.40938339  0.78743109  0.30360522  1
  O  O69  1  0.90983834  0.79443663  0.30210321  1
  O  O70  1  0.48645566  0.18298702  0.30404931  1
  O  O71  1  0.98612160  0.17806282  0.30260884  1
  O  O72  1  0.10570120  0.18404548  0.80379511  1
  O  O73  1  0.60202388  0.17750217  0.80308905  1
  O  O74  1  0.48755918  0.79450210  0.80348346  1
  O  O75  1  0.98313375  0.79968412  0.80982944  1
  O  O76  1  0.41186274  0.03124009  0.80250111  1
  O  O77  1  0.90951570  0.03251190  0.80425629  1
  O  O78  1  0.39921907  0.97371967  0.69649735  1
  O  O79  1  0.89727444  0.97186715  0.69769628  1
  O  O80  1  0.09004540  0.21038524  0.69700285  1
  O  O81  1  0.58591236  0.20350224  0.69697984  1
  O  O82  1  0.01284724  0.83347140  0.69408202  1
  O  O83  1  0.51347398  0.82446206  0.69702825  1
  O  O84  1  0.39276384  0.81271024  0.19747020  1
  O  O85  1  0.89730185  0.82303783  0.19600532  1
  O  O86  1  0.01120024  0.19693664  0.19633013  1
  O  O87  1  0.51822353  0.22046930  0.19774196  1
  O  O88  1  0.08775991  0.97359992  0.19620556  1
  O  O89  1  0.59300968  0.96870181  0.19710084  1
  O  O90  1  0.43844831  0.36177692  0.63738758  1
  O  O91  1  0.93837466  0.35519642  0.63667041  1
  O  O92  1  0.24014023  0.12803743  0.63749053  1
  O  O93  1  0.74225585  0.12481476  0.63742718  1
  O  O94  1  0.32010917  0.51728485  0.63724816  1
  O  O95  1  0.81914220  0.51965475  0.63710328  1
  O  O96  1  0.44402166  0.52232545  0.13616853  1
  O  O97  1  0.93675406  0.51291053  0.13712025  1
  O  O98  1  0.32185276  0.12423352  0.13703018  1
  O  O99  1  0.81729405  0.11887584  0.13648418  1
  O  O100  1  0.24254899  0.36204654  0.13688847  1
  O  O101  1  0.74201693  0.36236260  0.13597138  1
  O  O102  1  0.22417020  0.29557739  0.03074546  1
  O  O103  1  0.72951189  0.30503133  0.02917344  1
  O  O104  1  0.42459002  0.54670170  0.02975418  1
  O  O105  1  0.92228828  0.55234012  0.03146201  1
  O  O106  1  0.34945088  0.15444710  0.03031584  1
  O  O107  1  0.85218904  0.15346641  0.03056481  1
  O  O108  1  0.22721382  0.15550661  0.53076344  1
  O  O109  1  0.72512767  0.15644521  0.53113577  1
  O  O110  1  0.35326419  0.54941677  0.53122563  1
  O  O111  1  0.85148143  0.55164810  0.53076156  1
  O  O112  1  0.42234814  0.29523494  0.53122582  1
  O  O113  1  0.92277962  0.28967461  0.53091254  1
  O  O114  1  0.27000486  0.69325157  0.96935278  1
  O  O115  1  0.76515858  0.68894775  0.97038612  1
  O  O116  1  0.07529775  0.46057571  0.96983937  1
  O  O117  1  0.58278061  0.48054629  0.97266007  1
  O  O118  1  0.15305113  0.84534968  0.96941403  1
  O  O119  1  0.65918739  0.84568457  0.97030128  1
  O  O120  1  0.27363394  0.85115787  0.46999638  1
  O  O121  1  0.76908044  0.84403395  0.46941102  1
  O  O122  1  0.15837393  0.46101248  0.47062796  1
  O  O123  1  0.65208317  0.45958435  0.46899276  1
  O  O124  1  0.07998924  0.69595020  0.47446890  1
  O  O125  1  0.57559874  0.69084943  0.46968008  1
  O  O126  1  0.07275097  0.64489322  0.35911645  1
  O  O127  1  0.56799689  0.64112446  0.36279753  1
  O  O128  1  0.25393314  0.86526005  0.36225942  1
  O  O129  1  0.75325428  0.85949320  0.36228987  1
  O  O130  1  0.18204847  0.49316292  0.36199077  1
  O  O131  1  0.67809986  0.49586194  0.36235272  1
  O  O132  1  0.06744580  0.49371799  0.86256070  1
  O  O133  1  0.57447179  0.50187337  0.85936389  1
  O  O134  1  0.17888885  0.86249074  0.86296401  1
  O  O135  1  0.68231855  0.86913265  0.86226528  1
  O  O136  1  0.25564543  0.64505967  0.86188985  1
  O  O137  1  0.75326974  0.64341549  0.86306268  1
  O  O138  1  0.00984606  0.84333173  0.41088993  1
  O  O139  1  0.51417872  0.82370293  0.40655866  1
  O  O140  1  0.39953158  0.97659129  0.40578040  1
  O  O141  1  0.89754207  0.97741694  0.40774032  1
  O  O142  1  0.08799775  0.20745756  0.40761722  1
  O  O143  1  0.58535674  0.20441335  0.40545439  1
  O  O144  1  0.01300634  0.20385713  0.90622192  1
  O  O145  1  0.51879794  0.18547156  0.91421264  1
  O  O146  1  0.08785283  0.97354322  0.90872060  1
  O  O147  1  0.58725537  0.96127339  0.91054253  1
  O  O148  1  0.39928004  0.81923986  0.90898060  1
  O  O149  1  0.89513055  0.82875781  0.91174068  1
  O  O150  1  0.48793318  0.17181171  0.59507910  1
  O  O151  1  0.98852437  0.16623381  0.59391536  1
  O  O152  1  0.09769233  0.02968772  0.59087972  1
  O  O153  1  0.59734545  0.02438036  0.59625785  1
  O  O154  1  0.41457954  0.80503303  0.59525386  1
  O  O155  1  0.91378876  0.81068275  0.59231747  1
  O  O156  1  0.49386158  0.81054957  0.08919177  1
  O  O157  1  0.98749952  0.80415677  0.09611665  1
  O  O158  1  0.41477237  0.02362185  0.08910412  1
  O  O159  1  0.91274055  0.01995704  0.09424047  1
  O  O160  1  0.09695149  0.16993251  0.09600072  1
  O  O161  1  0.59799556  0.17814930  0.08905117  1
  O  O162  1  0.34449468  0.15556523  0.74151913  1
  O  O163  1  0.83843768  0.14682435  0.74188420  1
  O  O164  1  0.23523801  0.31322808  0.74218552  1
  O  O165  1  0.73134320  0.30699864  0.74122928  1
  O  O166  1  0.42370702  0.53344337  0.74217340  1
  O  O167  1  0.91283619  0.50489401  0.74468887  1
  O  O168  1  0.34231699  0.52513298  0.24377239  1
  O  O169  1  0.84340156  0.53298775  0.24142556  1
  O  O170  1  0.42294375  0.31849406  0.24479247  1
  O  O171  1  0.92302632  0.31148115  0.24099408  1
  O  O172  1  0.23388373  0.15678092  0.24102818  1
  O  O173  1  0.73695628  0.15522221  0.24414568  1
  O  O174  1  0.31419307  0.49967897  0.92082478  1
  O  O175  1  0.81513244  0.50490892  0.92188113  1
  O  O176  1  0.42512323  0.36746049  0.91773892  1
  O  O177  1  0.93380059  0.36407716  0.92028476  1
  O  O178  1  0.24669885  0.12882539  0.91949241  1
  O  O179  1  0.74818881  0.13003023  0.92244171  1
  O  O180  1  0.31809229  0.13249926  0.41973551  1
  O  O181  1  0.81031309  0.12319970  0.41998032  1
  O  O182  1  0.24871149  0.36185419  0.41944096  1
  O  O183  1  0.74478532  0.36164413  0.41988884  1
  O  O184  1  0.43440873  0.50359749  0.42024252  1
  O  O185  1  0.92313140  0.48422689  0.41590300  1
  O  O186  1  0.17265254  0.48357057  0.07556847  1
  O  O187  1  0.68145523  0.49654604  0.07428658  1
  O  O188  1  0.06715815  0.64950509  0.07578439  1
  O  O189  1  0.57087013  0.64960929  0.07279059  1
  O  O190  1  0.25560501  0.86650345  0.07585718  1
  O  O191  1  0.75690996  0.86363302  0.07324411  1
  O  O192  1  0.17768210  0.86726483  0.57836906  1
  O  O193  1  0.67402158  0.86444520  0.57572267  1
  O  O194  1  0.25733539  0.65081582  0.57514909  1
  O  O195  1  0.75607710  0.65145090  0.57568271  1
  O  O196  1  0.06879977  0.48058298  0.57664000  1
  O  O197  1  0.56798051  0.48577944  0.57575476  1
  O  O198  1  0.15281126  0.83893611  0.25513458  1
  O  O199  1  0.65578339  0.83966301  0.26143771  1
  O  O200  1  0.26477204  0.68800295  0.26022639  1
  O  O201  1  0.76632865  0.69560540  0.25682645  1
  O  O202  1  0.08284315  0.46153443  0.25512144  1
  O  O203  1  0.58076694  0.47325721  0.26131158  1
  O  O204  1  0.15534299  0.46947413  0.75848466  1
  O  O205  1  0.65234151  0.46545408  0.75706998  1
  O  O206  1  0.08706166  0.69369471  0.76091757  1
  O  O207  1  0.58314649  0.70174290  0.75687235  1
  O  O208  1  0.26908614  0.83774997  0.75709011  1
  O  O209  1  0.76713692  0.83340494  0.75959740  1
