# generated using pymatgen
data_KNi4(PO4)3
_symmetry_space_group_name_H-M   'P 1'
_cell_length_a   6.12899160
_cell_length_b   9.45731584
_cell_length_c   16.17895347
_cell_angle_alpha   90.00000000
_cell_angle_beta   90.00000000
_cell_angle_gamma   90.00000000
_symmetry_Int_Tables_number   1
_chemical_formula_structural   KNi4(PO4)3
_chemical_formula_sum   'K4 Ni16 P12 O48'
_cell_volume   937.79377429
_cell_formula_units_Z   4
loop_
 _symmetry_equiv_pos_site_id
 _symmetry_equiv_pos_as_xyz
  1  'x, y, z'
loop_
 _atom_site_type_symbol
 _atom_site_label
 _atom_site_symmetry_multiplicity
 _atom_site_fract_x
 _atom_site_fract_y
 _atom_site_fract_z
 _atom_site_occupancy
  K  K0  1  0.50000000  0.70165103  0.03232388  1
  K  K1  1  0.50000000  0.29834897  0.96767612  1
  K  K2  1  -0.00000000  0.20165103  0.46767612  1
  K  K3  1  -0.00000000  0.79834897  0.53232388  1
  Ni  Ni4  1  0.50000000  0.53346751  0.59256869  1
  Ni  Ni5  1  0.50000000  0.46653249  0.40743131  1
  Ni  Ni6  1  -0.00000000  0.03346751  0.90743131  1
  Ni  Ni7  1  -0.00000000  0.96653249  0.09256869  1
  Ni  Ni8  1  0.50000000  0.01059897  0.35723113  1
  Ni  Ni9  1  0.50000000  0.98940103  0.64276887  1
  Ni  Ni10  1  -0.00000000  0.51059897  0.14276887  1
  Ni  Ni11  1  -0.00000000  0.48940103  0.85723113  1
  Ni  Ni12  1  0.75055250  0.75155748  0.29573218  1
  Ni  Ni13  1  0.75055250  0.24844252  0.70426782  1
  Ni  Ni14  1  0.74944750  0.25155748  0.20426782  1
  Ni  Ni15  1  0.74944750  0.74844252  0.79573218  1
  Ni  Ni16  1  0.24944750  0.24844252  0.70426782  1
  Ni  Ni17  1  0.24944750  0.75155748  0.29573218  1
  Ni  Ni18  1  0.25055250  0.74844252  0.79573218  1
  Ni  Ni19  1  0.25055250  0.25155748  0.20426782  1
  P  P20  1  0.50000000  0.96047375  0.16207246  1
  P  P21  1  0.50000000  0.03952625  0.83792754  1
  P  P22  1  -0.00000000  0.46047375  0.33792754  1
  P  P23  1  -0.00000000  0.53952625  0.66207246  1
  P  P24  1  0.50000000  0.54713766  0.22029426  1
  P  P25  1  0.50000000  0.45286234  0.77970574  1
  P  P26  1  -0.00000000  0.04713766  0.27970574  1
  P  P27  1  -0.00000000  0.95286234  0.72029426  1
  P  P28  1  0.50000000  0.79505938  0.46347723  1
  P  P29  1  0.50000000  0.20494062  0.53652277  1
  P  P30  1  -0.00000000  0.29505938  0.03652277  1
  P  P31  1  -0.00000000  0.70494062  0.96347723  1
  O  O32  1  0.50000000  0.12289263  0.17376197  1
  O  O33  1  0.50000000  0.87710737  0.82623803  1
  O  O34  1  -0.00000000  0.62289263  0.32623803  1
  O  O35  1  -0.00000000  0.37710737  0.67376197  1
  O  O36  1  0.50000000  0.61455121  0.77420983  1
  O  O37  1  0.50000000  0.38544879  0.22579017  1
  O  O38  1  -0.00000000  0.11455121  0.72579017  1
  O  O39  1  -0.00000000  0.88544879  0.27420983  1
  O  O40  1  0.70150288  0.91239658  0.11667449  1
  O  O41  1  0.70150288  0.08760342  0.88332551  1
  O  O42  1  0.79849712  0.41239658  0.38332551  1
  O  O43  1  0.79849712  0.58760342  0.61667449  1
  O  O44  1  0.29849712  0.08760342  0.88332551  1
  O  O45  1  0.29849712  0.91239658  0.11667449  1
  O  O46  1  0.20150288  0.58760342  0.61667449  1
  O  O47  1  0.20150288  0.41239658  0.38332551  1
  O  O48  1  0.50000000  0.60956535  0.31096396  1
  O  O49  1  0.50000000  0.39043465  0.68903604  1
  O  O50  1  -0.00000000  0.10956535  0.18903604  1
  O  O51  1  -0.00000000  0.89043465  0.81096396  1
  O  O52  1  0.50000000  0.88786179  0.25181853  1
  O  O53  1  0.50000000  0.11213821  0.74818147  1
  O  O54  1  -0.00000000  0.38786179  0.24818147  1
  O  O55  1  -0.00000000  0.61213821  0.75181853  1
  O  O56  1  0.50000000  0.13346634  0.45408444  1
  O  O57  1  0.50000000  0.86653366  0.54591556  1
  O  O58  1  -0.00000000  0.63346634  0.04591556  1
  O  O59  1  -0.00000000  0.36653366  0.95408444  1
  O  O60  1  0.69877039  0.84158975  0.40927065  1
  O  O61  1  0.69877039  0.15841025  0.59072935  1
  O  O62  1  0.80122961  0.34158975  0.09072935  1
  O  O63  1  0.80122961  0.65841025  0.90927065  1
  O  O64  1  0.30122961  0.15841025  0.59072935  1
  O  O65  1  0.30122961  0.84158975  0.40927065  1
  O  O66  1  0.19877039  0.65841025  0.90927065  1
  O  O67  1  0.19877039  0.34158975  0.09072935  1
  O  O68  1  0.70921626  0.60750081  0.18268119  1
  O  O69  1  0.70921626  0.39249919  0.81731881  1
  O  O70  1  0.79078374  0.10750081  0.31731881  1
  O  O71  1  0.79078374  0.89249919  0.68268119  1
  O  O72  1  0.29078374  0.39249919  0.81731881  1
  O  O73  1  0.29078374  0.60750081  0.18268119  1
  O  O74  1  0.20921626  0.89249919  0.68268119  1
  O  O75  1  0.20921626  0.10750081  0.31731881  1
  O  O76  1  0.50000000  0.63495659  0.47975191  1
  O  O77  1  0.50000000  0.36504341  0.52024809  1
  O  O78  1  -0.00000000  0.13495659  0.02024809  1
  O  O79  1  -0.00000000  0.86504341  0.97975191  1
