# generated using pymatgen
data_Na4In2Si3Ge2(SO8)3
_symmetry_space_group_name_H-M   'P 1'
_cell_length_a   8.91567707
_cell_length_b   8.95561647
_cell_length_c   22.59758608
_cell_angle_alpha   90.47309334
_cell_angle_beta   87.67823027
_cell_angle_gamma   119.71467492
_symmetry_Int_Tables_number   1
_chemical_formula_structural   Na4In2Si3Ge2(SO8)3
_chemical_formula_sum   'Na12 In6 Si9 Ge6 S9 O72'
_cell_volume   1565.62229041
_cell_formula_units_Z   3
loop_
 _symmetry_equiv_pos_site_id
 _symmetry_equiv_pos_as_xyz
  1  'x, y, z'
loop_
 _atom_site_type_symbol
 _atom_site_label
 _atom_site_symmetry_multiplicity
 _atom_site_fract_x
 _atom_site_fract_y
 _atom_site_fract_z
 _atom_site_occupancy
  Na  Na0  1  0.98192845  0.62997277  0.25517265  1
  Na  Na1  1  0.99633090  0.36653374  0.74336558  1
  Na  Na2  1  0.65902135  0.97434591  0.59126048  1
  Na  Na3  1  0.66484580  0.70215930  0.08058020  1
  Na  Na4  1  0.33560398  0.30266844  0.90563073  1
  Na  Na5  1  0.31738564  0.02562217  0.42016818  1
  Na  Na6  1  0.00307832  0.98828133  0.50411408  1
  Na  Na7  1  0.99006881  0.98737370  0.99802626  1
  Na  Na8  1  0.65298755  0.31364147  0.82477542  1
  Na  Na9  1  0.64664546  0.33353229  0.33344595  1
  Na  Na10  1  0.32206635  0.67258746  0.16957517  1
  Na  Na11  1  0.30745135  0.66939187  0.66029092  1
  In  In12  1  0.99737763  0.98771601  0.35146308  1
  In  In13  1  0.99434801  0.98590923  0.84834667  1
  In  In14  1  0.66042884  0.32890910  0.68569105  1
  In  In15  1  0.66234893  0.33334426  0.18765273  1
  In  In16  1  0.33071021  0.67793381  0.01534146  1
  In  In17  1  0.31525998  0.66166261  0.51880638  1
  Si  Si18  1  0.29698205  0.99074375  0.25536731  1
  Si  Si19  1  0.68559122  0.70229061  0.25309118  1
  Si  Si20  1  0.29833530  0.29895356  0.75563498  1
  Si  Si21  1  0.72250312  0.00126995  0.74800348  1
  Si  Si22  1  0.96751183  0.33425938  0.58824051  1
  Si  Si23  1  0.37410937  0.05397778  0.58218438  1
  Si  Si24  1  0.96481162  0.63634286  0.08780669  1
  Si  Si25  1  0.63484908  0.66279623  0.92105845  1
  Si  Si26  1  0.02377986  0.64923054  0.41743315  1
  Ge  Ge27  1  0.03285606  0.05829529  0.64812918  1
  Ge  Ge28  1  0.99114965  0.95302663  0.16234657  1
  Ge  Ge29  1  0.68994205  0.37233896  0.98515162  1
  Ge  Ge30  1  0.69399077  0.34293633  0.49451236  1
  Ge  Ge31  1  0.32746141  0.67508405  0.31570536  1
  Ge  Ge32  1  0.39998153  0.66887536  0.80608227  1
  S  S33  1  0.00965969  0.28355078  0.24674260  1
  S  S34  1  0.01522200  0.70966366  0.74961344  1
  S  S35  1  0.67549670  0.63090549  0.57991123  1
  S  S36  1  0.67764974  0.05770368  0.07723386  1
  S  S37  1  0.36516624  0.31969963  0.08113225  1
  S  S38  1  0.02387667  0.37242858  0.92010497  1
  S  S39  1  0.34513969  0.96893143  0.91430086  1
  S  S40  1  0.61820822  0.96058702  0.41462433  1
  S  S41  1  0.33286193  0.38127739  0.41168855  1
  O  O42  1  0.23360512  0.03557496  0.31695105  1
  O  O43  1  0.82540020  0.79650612  0.30167721  1
  O  O44  1  0.99185802  0.19544259  0.30303537  1
  O  O45  1  0.21889600  0.19593313  0.81737446  1
  O  O46  1  0.99320758  0.77341212  0.80851079  1
  O  O47  1  0.82112415  0.02515853  0.80767310  1
  O  O48  1  0.81962116  0.97354720  0.68697504  1
  O  O49  1  0.16739736  0.21470437  0.69988944  1
  O  O50  1  0.03301620  0.82136666  0.69937100  1
  O  O51  1  0.77134239  0.81757650  0.18783798  1
  O  O52  1  0.02398590  0.18481051  0.19269254  1
  O  O53  1  0.15410373  0.94387843  0.20045411  1
  O  O54  1  0.89311647  0.36843791  0.64909345  1
  O  O55  1  0.49578964  0.12943820  0.63659927  1
  O  O56  1  0.64674143  0.53209425  0.63387518  1
  O  O57  1  0.88169390  0.53033451  0.14816027  1
  O  O58  1  0.65586806  0.13186747  0.13237658  1
  O  O59  1  0.47667878  0.34610439  0.13084638  1
  O  O60  1  0.45245297  0.30218789  0.02294209  1
  O  O61  1  0.82896621  0.54729177  0.03133781  1
  O  O62  1  0.68470149  0.16280013  0.02305527  1
  O  O63  1  0.47289125  0.18134233  0.51887459  1
  O  O64  1  0.69318572  0.53806560  0.52491813  1
  O  O65  1  0.83249205  0.29412382  0.53316879  1
  O  O66  1  0.54335281  0.67533894  0.98256074  1
  O  O67  1  0.12706982  0.46171040  0.97194230  1
  O  O68  1  0.31899625  0.87721306  0.97163996  1
  O  O69  1  0.55172049  0.86051150  0.47026099  1
  O  O70  1  0.33237022  0.46529737  0.46751626  1
  O  O71  1  0.16319140  0.70567858  0.46713252  1
  O  O72  1  0.11465136  0.61898307  0.35329330  1
  O  O73  1  0.50519876  0.86542952  0.36320974  1
  O  O74  1  0.34539722  0.48855868  0.35804440  1
  O  O75  1  0.09700333  0.46619932  0.86429991  1
  O  O76  1  0.35623531  0.87256529  0.86240422  1
  O  O77  1  0.49819961  0.62107067  0.86471396  1
  O  O78  1  0.99711613  0.81702791  0.41462283  1
  O  O79  1  0.79733814  0.99863102  0.40584653  1
  O  O80  1  0.17009581  0.20990851  0.41267851  1
  O  O81  1  0.00400502  0.19840102  0.92069124  1
  O  O82  1  0.19319728  0.99809088  0.91337032  1
  O  O83  1  0.82487864  0.82384505  0.91448646  1
  O  O84  1  0.96422521  0.14609333  0.58922658  1
  O  O85  1  0.17901784  0.03579169  0.59412679  1
  O  O86  1  0.83508291  0.79884502  0.57896235  1
  O  O87  1  0.97100000  0.83044732  0.09377235  1
  O  O88  1  0.83584689  0.04420777  0.07534485  1
  O  O89  1  0.19615756  0.16296162  0.08649042  1
  O  O90  1  0.68863841  0.16124314  0.74565110  1
  O  O91  1  0.49561529  0.34801228  0.74786843  1
  O  O92  1  0.85992060  0.53503940  0.74658106  1
  O  O93  1  0.66859109  0.51363919  0.24812525  1
  O  O94  1  0.85783828  0.30907558  0.24350408  1
  O  O95  1  0.48972585  0.13768601  0.24017597  1
  O  O96  1  0.63698258  0.47514500  0.92556345  1
  O  O97  1  0.84509784  0.35867236  0.92772664  1
  O  O98  1  0.50446050  0.14126234  0.91594018  1
  O  O99  1  0.61414469  0.12457912  0.41738858  1
  O  O100  1  0.48302456  0.35448682  0.40739571  1
  O  O101  1  0.83279582  0.46448054  0.43044612  1
  O  O102  1  0.34870352  0.47713226  0.07808737  1
  O  O103  1  0.15672348  0.66519099  0.07827761  1
  O  O104  1  0.52550798  0.87891740  0.07545131  1
  O  O105  1  0.35876085  0.86685199  0.57366438  1
  O  O106  1  0.52620190  0.65909999  0.57308214  1
  O  O107  1  0.16557187  0.48182553  0.58101660  1
  O  O108  1  0.28617076  0.79964928  0.25957286  1
  O  O109  1  0.49544442  0.68954697  0.26267178  1
  O  O110  1  0.16827149  0.45545807  0.24439385  1
  O  O111  1  0.29367024  0.48593054  0.76146544  1
  O  O112  1  0.17262257  0.68958930  0.75039293  1
  O  O113  1  0.53100821  0.81592456  0.75142317  1
