# generated using pymatgen
data_Na6Ca6Ti2SiS11O48
_symmetry_space_group_name_H-M   'P 1'
_cell_length_a   18.24287989
_cell_length_b   9.10267671
_cell_length_c   23.54678088
_cell_angle_alpha   90.12137335
_cell_angle_beta   90.02269943
_cell_angle_gamma   119.89861286
_symmetry_Int_Tables_number   1
_chemical_formula_structural   Na6Ca6Ti2SiS11O48
_chemical_formula_sum   'Na18 Ca18 Ti6 Si3 S33 O144'
_cell_volume   3389.73615966
_cell_formula_units_Z   3
loop_
 _symmetry_equiv_pos_site_id
 _symmetry_equiv_pos_as_xyz
  1  'x, y, z'
loop_
 _atom_site_type_symbol
 _atom_site_label
 _atom_site_symmetry_multiplicity
 _atom_site_fract_x
 _atom_site_fract_y
 _atom_site_fract_z
 _atom_site_occupancy
  Na  Na0  1  0.68400386  0.36229397  0.24541316  1
  Na  Na1  1  0.99119997  0.63472322  0.25402517  1
  Na  Na2  1  0.33659134  0.96231518  0.59456326  1
  Na  Na3  1  0.83690303  0.96246743  0.59548446  1
  Na  Na4  1  0.33299882  0.69095781  0.08223919  1
  Na  Na5  1  0.34711025  0.66473680  0.41399133  1
  Na  Na6  1  0.00958733  0.99334459  0.49632876  1
  Na  Na7  1  0.51191070  0.01306439  0.50056000  1
  Na  Na8  1  0.00599355  0.00355068  0.99935682  1
  Na  Na9  1  0.51228697  0.01509796  0.99993231  1
  Na  Na10  1  0.33008393  0.33171804  0.83737909  1
  Na  Na11  1  0.82898688  0.33112887  0.83717722  1
  Na  Na12  1  0.33147039  0.32284516  0.33043283  1
  Na  Na13  1  0.83617122  0.33632809  0.33476871  1
  Na  Na14  1  0.16806734  0.66844141  0.16474617  1
  Na  Na15  1  0.66218141  0.67297180  0.15723196  1
  Na  Na16  1  0.16945360  0.66893500  0.67595240  1
  Na  Na17  1  0.67011009  0.66877114  0.67660767  1
  Ca  Ca18  1  0.00103990  0.00203304  0.35197099  1
  Ca  Ca19  1  0.49869313  0.00121695  0.34914002  1
  Ca  Ca20  1  0.00268604  0.99869275  0.65100034  1
  Ca  Ca21  1  0.50305711  0.99792079  0.65146262  1
  Ca  Ca22  1  0.50507545  0.00757256  0.15218700  1
  Ca  Ca23  1  0.33458285  0.33170661  0.18191323  1
  Ca  Ca24  1  0.83064285  0.32748760  0.17930654  1
  Ca  Ca25  1  0.32861665  0.32359672  0.98313796  1
  Ca  Ca26  1  0.83492398  0.33268378  0.98469837  1
  Ca  Ca27  1  0.33590132  0.33312901  0.48133078  1
  Ca  Ca28  1  0.83179872  0.33792853  0.47808877  1
  Ca  Ca29  1  0.16122669  0.66865829  0.01095743  1
  Ca  Ca30  1  0.66718791  0.66884969  0.01071731  1
  Ca  Ca31  1  0.15986729  0.65902172  0.52148062  1
  Ca  Ca32  1  0.66133256  0.65854658  0.52274746  1
  Ca  Ca33  1  0.16663742  0.66631131  0.31450535  1
  Ca  Ca34  1  0.16823876  0.67224510  0.81551205  1
  Ca  Ca35  1  0.66832604  0.67349519  0.81570736  1
  Ti  Ti36  1  0.99119585  0.00193069  0.84649735  1
  Ti  Ti37  1  0.49242780  0.00471838  0.84688310  1
  Ti  Ti38  1  0.98774854  0.98533120  0.15349079  1
  Ti  Ti39  1  0.33443293  0.32550436  0.69285476  1
  Ti  Ti40  1  0.83532944  0.32788598  0.69213552  1
  Ti  Ti41  1  0.67568538  0.67662042  0.31463396  1
  Si  Si42  1  0.85099668  0.70449690  0.25288993  1
  Si  Si43  1  0.35185594  0.99936026  0.74427464  1
  Si  Si44  1  0.85142446  0.00030291  0.74412997  1
  S  S45  1  0.14185848  0.99753551  0.24576775  1
  S  S46  1  0.65121343  0.99044368  0.25401843  1
  S  S47  1  0.34744085  0.69467369  0.24983431  1
  S  S48  1  0.00051837  0.29223033  0.24604809  1
  S  S49  1  0.50680279  0.31728722  0.25471621  1
  S  S50  1  0.15099271  0.28914732  0.75004809  1
  S  S51  1  0.65073254  0.28878900  0.75029432  1
  S  S52  1  0.99269601  0.69611109  0.75002640  1
  S  S53  1  0.49250354  0.69543676  0.74993603  1
  S  S54  1  0.47660554  0.33558556  0.58908577  1
  S  S55  1  0.97442448  0.33540391  0.58775068  1
  S  S56  1  0.19365292  0.05019946  0.58828525  1
  S  S57  1  0.69372563  0.05152923  0.58715094  1
  S  S58  1  0.33369758  0.62483305  0.58494947  1
  S  S59  1  0.83279023  0.62147767  0.58702431  1
  S  S60  1  0.48403668  0.63490447  0.08292984  1
  S  S61  1  0.98595707  0.64998542  0.08897346  1
  S  S62  1  0.33273984  0.02414260  0.08322920  1
  S  S63  1  0.83829901  0.02674572  0.08589977  1
  S  S64  1  0.17695064  0.32619324  0.08574722  1
  S  S65  1  0.68042184  0.33565822  0.08424696  1
  S  S66  1  0.32485303  0.67906577  0.91412322  1
  S  S67  1  0.82438421  0.67798422  0.91228268  1
  S  S68  1  0.01464949  0.35210132  0.91189589  1
  S  S69  1  0.51471668  0.35323071  0.91192351  1
  S  S70  1  0.15806733  0.97110174  0.91193247  1
  S  S71  1  0.65954045  0.97237928  0.91304610  1
  S  S72  1  0.31678354  0.96215581  0.41937943  1
  S  S73  1  0.80858443  0.95419786  0.41592663  1
  S  S74  1  0.16854031  0.37021083  0.41789211  1
  S  S75  1  0.66749286  0.38240829  0.41177899  1
  S  S76  1  0.01556709  0.66608672  0.41465217  1
  S  S77  1  0.52221321  0.66687581  0.41301640  1
  O  O78  1  0.10880760  0.01913768  0.29965724  1
  O  O79  1  0.60951447  0.02097801  0.30239774  1
  O  O80  1  0.39399984  0.77920808  0.30298546  1
  O  O81  1  0.91497065  0.78565646  0.30357853  1
  O  O82  1  0.49537500  0.21281054  0.30471969  1
  O  O83  1  0.99525602  0.20371337  0.29867067  1
  O  O84  1  0.10744032  0.17724562  0.80022209  1
  O  O85  1  0.60635269  0.17617180  0.80051677  1
  O  O86  1  0.48089787  0.78250004  0.80020245  1
  O  O87  1  0.98121360  0.78371051  0.80027943  1
  O  O88  1  0.42076705  0.02544332  0.79996232  1
  O  O89  1  0.92022651  0.02533256  0.79986612  1
  O  O90  1  0.39149668  0.98591213  0.68610225  1
  O  O91  1  0.89145871  0.98613115  0.68625355  1
  O  O92  1  0.10414181  0.21702795  0.69758246  1
  O  O93  1  0.60400670  0.21664047  0.69789054  1
  O  O94  1  0.00709421  0.79341687  0.69804462  1
  O  O95  1  0.50700150  0.79242152  0.69795279  1
  O  O96  1  0.39305628  0.79414297  0.19898329  1
  O  O97  1  0.90131797  0.83224434  0.19488424  1
  O  O98  1  0.00357617  0.19151572  0.19551599  1
  O  O99  1  0.52566062  0.24631089  0.20369167  1
  O  O100  1  0.08422294  0.98787915  0.19721554  1
  O  O101  1  0.60215912  0.95696685  0.20130237  1
  O  O102  1  0.42699907  0.34209231  0.63957129  1
  O  O103  1  0.92547714  0.34322228  0.63910198  1
  O  O104  1  0.24663771  0.14980425  0.63916681  1
  O  O105  1  0.74612617  0.14993414  0.63816980  1
  O  O106  1  0.33062735  0.51884614  0.63395910  1
  O  O107  1  0.82944320  0.51996980  0.63786055  1
  O  O108  1  0.44452334  0.53812529  0.13510284  1
  O  O109  1  0.94797478  0.55120375  0.14111587  1
  O  O110  1  0.32595863  0.10666994  0.13517974  1
  O  O111  1  0.82638725  0.10489642  0.13681591  1
  O  O112  1  0.23310440  0.35573707  0.13488475  1
  O  O113  1  0.72178543  0.34373125  0.13985608  1
  O  O114  1  0.21282893  0.29754674  0.03350624  1
  O  O115  1  0.72969805  0.32453201  0.03661943  1
  O  O116  1  0.43130582  0.54687414  0.03262635  1
  O  O117  1  0.93368499  0.57332339  0.03833388  1
  O  O118  1  0.33869542  0.12105864  0.03207890  1
  O  O119  1  0.85374344  0.12972476  0.03472778  1
  O  O120  1  0.23290728  0.14080205  0.53568345  1
  O  O121  1  0.73257237  0.14158941  0.53438255  1
  O  O122  1  0.33757030  0.54912231  0.53002366  1
  O  O123  1  0.83514797  0.53862704  0.53416165  1
  O  O124  1  0.43034109  0.32209381  0.53657659  1
  O  O125  1  0.92649810  0.31977354  0.53588666  1
  O  O126  1  0.29385547  0.70916171  0.96891700  1
  O  O127  1  0.79209515  0.71267478  0.96477577  1
  O  O128  1  0.06341586  0.41878232  0.96485761  1
  O  O129  1  0.56403662  0.41927996  0.96453833  1
  O  O130  1  0.14505802  0.87479897  0.96537035  1
  O  O131  1  0.64612208  0.87368347  0.96594367  1
  O  O132  1  0.27536998  0.86962005  0.47231129  1
  O  O133  1  0.76917609  0.86514963  0.46882574  1
  O  O134  1  0.16446427  0.45682973  0.46978130  1
  O  O135  1  0.66213939  0.46582632  0.46339728  1
  O  O136  1  0.06629594  0.67012312  0.46406175  1
  O  O137  1  0.56626253  0.67740712  0.46630136  1
  O  O138  1  0.05536375  0.65978297  0.36018188  1
  O  O139  1  0.57160947  0.66063961  0.36294249  1
  O  O140  1  0.26709430  0.87320630  0.36860974  1
  O  O141  1  0.75348305  0.84552687  0.36558265  1
  O  O142  1  0.17376718  0.46801347  0.36661446  1
  O  O143  1  0.67066956  0.48641951  0.35948501  1
  O  O144  1  0.05589680  0.45770489  0.86285717  1
  O  O145  1  0.55593273  0.45839624  0.86264256  1
  O  O146  1  0.17068941  0.88517949  0.86366050  1
  O  O147  1  0.67255479  0.88834657  0.86413417  1
  O  O148  1  0.26807714  0.65479968  0.86715126  1
  O  O149  1  0.77023893  0.65053000  0.86331821  1
  O  O150  1  0.00756856  0.82040897  0.41793069  1
  O  O151  1  0.50982914  0.81682470  0.41030774  1
  O  O152  1  0.40060344  0.96680090  0.41756831  1
  O  O153  1  0.89292550  0.97451549  0.41068834  1
  O  O154  1  0.09458632  0.19707093  0.41705947  1
  O  O155  1  0.59176889  0.21298221  0.40812758  1
  O  O156  1  0.00802591  0.17765477  0.90239331  1
  O  O157  1  0.50860315  0.17834599  0.90201294  1
  O  O158  1  0.07996159  0.98573004  0.90272917  1
  O  O159  1  0.58130771  0.98694125  0.90346504  1
  O  O160  1  0.41092658  0.83866974  0.90263729  1
  O  O161  1  0.91139161  0.83810559  0.90137784  1
  O  O162  1  0.48494810  0.18139528  0.59069371  1
  O  O163  1  0.98294821  0.18166881  0.59049950  1
  O  O164  1  0.10744214  0.02342400  0.59129461  1
  O  O165  1  0.60727057  0.02420089  0.59002136  1
  O  O166  1  0.40968091  0.79850288  0.58655754  1
  O  O167  1  0.90863966  0.79484517  0.58759795  1
  O  O168  1  0.48724308  0.80282993  0.08589721  1
  O  O169  1  0.99389724  0.82501633  0.09680037  1
  O  O170  1  0.40891871  0.00206464  0.08600724  1
  O  O171  1  0.91886505  0.01417276  0.09443297  1
  O  O172  1  0.09063339  0.17533403  0.09509891  1
  O  O173  1  0.59505816  0.18067574  0.08324561  1
  O  O174  1  0.34860838  0.18718294  0.73895309  1
  O  O175  1  0.84853974  0.18805361  0.73856866  1
  O  O176  1  0.23792284  0.30224059  0.74463267  1
  O  O177  1  0.73728124  0.30100219  0.74539668  1
  O  O178  1  0.40994913  0.52488723  0.74300577  1
  O  O179  1  0.91033816  0.52543985  0.74351434  1
  O  O180  1  0.33849684  0.52351404  0.24876733  1
  O  O181  1  0.83003661  0.51229671  0.24201745  1
  O  O182  1  0.43323942  0.34012175  0.24804186  1
  O  O183  1  0.92608849  0.31651763  0.24190394  1
  O  O184  1  0.22827427  0.13882721  0.23834220  1
  O  O185  1  0.73634954  0.14123287  0.24882349  1
  O  O186  1  0.33946430  0.53360598  0.91818386  1
  O  O187  1  0.84017997  0.53420122  0.91858366  1
  O  O188  1  0.42740365  0.32215826  0.91750779  1
  O  O189  1  0.92749156  0.32296292  0.91773941  1
  O  O190  1  0.23295397  0.14438994  0.91675398  1
  O  O191  1  0.73445136  0.14551672  0.91902323  1
  O  O192  1  0.33044659  0.13638045  0.41907672  1
  O  O193  1  0.81040003  0.11764537  0.41105800  1
  O  O194  1  0.24931169  0.36305732  0.41800210  1
  O  O195  1  0.74514182  0.37063506  0.40945376  1
  O  O196  1  0.43603732  0.51363242  0.41128380  1
  O  O197  1  0.93051680  0.51078435  0.41566108  1
  O  O198  1  0.17145236  0.48458429  0.07954223  1
  O  O199  1  0.67260180  0.48989255  0.08012171  1
  O  O200  1  0.07191411  0.67472271  0.08225091  1
  O  O201  1  0.57056463  0.65992301  0.07843713  1
  O  O202  1  0.25724309  0.84817500  0.08033899  1
  O  O203  1  0.76560790  0.85370265  0.07972238  1
  O  O204  1  0.19231262  0.88465555  0.58953818  1
  O  O205  1  0.69251319  0.88576756  0.58819923  1
  O  O206  1  0.25730673  0.64586521  0.58689132  1
  O  O207  1  0.75646871  0.64389613  0.58813273  1
  O  O208  1  0.05822845  0.49021235  0.58932020  1
  O  O209  1  0.56062144  0.49033741  0.59046391  1
  O  O210  1  0.14040999  0.83162062  0.24420787  1
  O  O211  1  0.66000175  0.83602071  0.26489291  1
  O  O212  1  0.26289227  0.68172540  0.24982074  1
  O  O213  1  0.75538153  0.69062459  0.26350816  1
  O  O214  1  0.07760626  0.46297146  0.24373975  1
  O  O215  1  0.58680059  0.48995238  0.26271071  1
  O  O216  1  0.16455407  0.46048189  0.75801907  1
  O  O217  1  0.66371182  0.45960356  0.75838125  1
  O  O218  1  0.06149439  0.65957685  0.75822435  1
  O  O219  1  0.56120260  0.65837382  0.75810377  1
  O  O220  1  0.25817804  0.85142870  0.75492136  1
  O  O221  1  0.75771406  0.85203226  0.75464950  1
