# generated using pymatgen
data_Na3LaIn(PO4)3
_symmetry_space_group_name_H-M   'P 1'
_cell_length_a   16.33032626
_cell_length_b   9.34713316
_cell_length_c   9.39198486
_cell_angle_alpha   90.17700603
_cell_angle_beta   125.23893525
_cell_angle_gamma   89.73153661
_symmetry_Int_Tables_number   1
_chemical_formula_structural   Na3LaIn(PO4)3
_chemical_formula_sum   'Na12 La4 In4 P12 O48'
_cell_volume   1170.89134334
_cell_formula_units_Z   4
loop_
 _symmetry_equiv_pos_site_id
 _symmetry_equiv_pos_as_xyz
  1  'x, y, z'
loop_
 _atom_site_type_symbol
 _atom_site_label
 _atom_site_symmetry_multiplicity
 _atom_site_fract_x
 _atom_site_fract_y
 _atom_site_fract_z
 _atom_site_occupancy
  Na  Na0  1  0.24130298  0.77142354  0.99622390  1
  Na  Na1  1  0.75150637  0.72996194  0.51300215  1
  Na  Na2  1  0.75069892  0.26660057  0.01393993  1
  Na  Na3  1  0.24117080  0.23011718  0.49831697  1
  Na  Na4  1  0.50496664  0.09512607  0.76006172  1
  Na  Na5  1  0.49946232  0.91758810  0.23063752  1
  Na  Na6  1  0.00609639  0.59239086  0.75279331  1
  Na  Na7  1  0.99891348  0.39490162  0.23540611  1
  Na  Na8  1  0.81681427  0.92834960  0.20073170  1
  Na  Na9  1  0.81517341  0.07739539  0.70489717  1
  Na  Na10  1  0.30360236  0.42610064  0.18214256  1
  Na  Na11  1  0.31253503  0.56428979  0.71327976  1
  La  La12  1  0.10537986  0.76482476  0.55146534  1
  La  La13  1  0.60130226  0.26569370  0.55234059  1
  La  La14  1  0.39814937  0.74877471  0.44441673  1
  La  La15  1  0.60613800  0.73466448  0.05332693  1
  In  In16  1  0.90075484  0.75044914  0.94733119  1
  In  In17  1  0.90213183  0.24829556  0.44870618  1
  In  In18  1  0.10142170  0.24232982  0.04878053  1
  In  In19  1  0.39938576  0.25174768  0.94652000  1
  P  P20  1  0.99464389  0.95145817  0.75134981  1
  P  P21  1  0.99254921  0.06140138  0.23455485  1
  P  P22  1  0.48800902  0.42807509  0.74577404  1
  P  P23  1  0.48622459  0.55963801  0.22729007  1
  P  P24  1  0.35708753  0.91060768  0.77598211  1
  P  P25  1  0.66439778  0.89929155  0.75446921  1
  P  P26  1  0.65854362  0.10645242  0.24916102  1
  P  P27  1  0.34844737  0.10338590  0.24716637  1
  P  P28  1  0.86249855  0.40539044  0.75995810  1
  P  P29  1  0.15131719  0.39171089  0.75011493  1
  P  P30  1  0.14957491  0.59036734  0.23769713  1
  P  P31  1  0.86040992  0.59135092  0.26108327  1
  O  O32  1  0.15866365  0.55910749  0.74994862  1
  O  O33  1  0.85366348  0.57232788  0.75371977  1
  O  O34  1  0.85098613  0.42513445  0.25059049  1
  O  O35  1  0.15404343  0.42256814  0.23843589  1
  O  O36  1  0.67461203  0.06536400  0.75629975  1
  O  O37  1  0.34376874  0.07552129  0.75612058  1
  O  O38  1  0.33812633  0.93830801  0.22736508  1
  O  O39  1  0.66720847  0.93967509  0.25029027  1
  O  O40  1  0.43287514  0.51911632  0.57680251  1
  O  O41  1  0.54114071  0.52749299  0.90449144  1
  O  O42  1  0.53358734  0.46684322  0.39268827  1
  O  O43  1  0.43507469  0.46347420  0.06269012  1
  O  O44  1  0.93179703  0.04144548  0.57995583  1
  O  O45  1  0.05195732  0.04837523  0.91328402  1
  O  O46  1  0.05703590  0.97243926  0.40172792  1
  O  O47  1  0.92693010  0.96136040  0.07420677  1
  O  O48  1  0.27329942  0.83284210  0.77501700  1
  O  O49  1  0.74803485  0.82800763  0.74779047  1
  O  O50  1  0.74636569  0.17054185  0.24891444  1
  O  O51  1  0.25922895  0.17608163  0.23740611  1
  O  O52  1  0.77403471  0.33462573  0.75242899  1
  O  O53  1  0.24140380  0.33092490  0.75449400  1
  O  O54  1  0.23407973  0.64838579  0.22482446  1
  O  O55  1  0.77417374  0.66513184  0.25836843  1
  O  O56  1  0.35853721  0.85605773  0.62057501  1
  O  O57  1  0.67279092  0.86016827  0.92289030  1
  O  O58  1  0.66644467  0.14527349  0.41783437  1
  O  O59  1  0.35856307  0.16148587  0.10316621  1
  O  O60  1  0.86327650  0.36003650  0.60160965  1
  O  O61  1  0.15547034  0.35683815  0.91686819  1
  O  O62  1  0.16799117  0.63120181  0.41493332  1
  O  O63  1  0.86133389  0.64146401  0.10397781  1
  O  O64  1  0.45866988  0.87347043  0.94743126  1
  O  O65  1  0.56055377  0.85205885  0.59189691  1
  O  O66  1  0.55589446  0.15789472  0.08464423  1
  O  O67  1  0.44603205  0.13986558  0.42831260  1
  O  O68  1  0.96093955  0.35741724  0.93225323  1
  O  O69  1  0.05217721  0.33772313  0.58290730  1
  O  O70  1  0.04748271  0.64891972  0.08167063  1
  O  O71  1  0.95887138  0.63487970  0.43424882  1
  O  O72  1  0.06850184  0.84541967  0.75247258  1
  O  O73  1  0.91553410  0.85865671  0.75421275  1
  O  O74  1  0.91557048  0.15356434  0.24563986  1
  O  O75  1  0.06325543  0.16530925  0.22464160  1
  O  O76  1  0.56628202  0.32146271  0.76192085  1
  O  O77  1  0.40397503  0.34132399  0.73823190  1
  O  O78  1  0.40104555  0.65236460  0.20894300  1
  O  O79  1  0.56810522  0.66189366  0.25193522  1
