# generated using pymatgen
data_Na4Si3SnGeO12
_symmetry_space_group_name_H-M   'P 1'
_cell_length_a   8.94351204
_cell_length_b   8.94351174
_cell_length_c   22.11945874
_cell_angle_alpha   90.00000000
_cell_angle_beta   90.00000000
_cell_angle_gamma   120.00000111
_symmetry_Int_Tables_number   1
_chemical_formula_structural   Na4Si3SnGeO12
_chemical_formula_sum   'Na24 Si18 Sn6 Ge6 O72'
_cell_volume   1532.22061055
_cell_formula_units_Z   6
loop_
 _symmetry_equiv_pos_site_id
 _symmetry_equiv_pos_as_xyz
  1  'x, y, z'
loop_
 _atom_site_type_symbol
 _atom_site_label
 _atom_site_symmetry_multiplicity
 _atom_site_fract_x
 _atom_site_fract_y
 _atom_site_fract_z
 _atom_site_occupancy
  Na  Na0  1  0.63369447  0.00007628  0.24977476  1
  Na  Na1  1  0.36638181  0.36630553  0.24977476  1
  Na  Na2  1  0.99992372  0.63361819  0.24977476  1
  Na  Na3  1  0.63129602  0.63369507  0.75097103  1
  Na  Na4  1  0.00239905  0.36870398  0.75097103  1
  Na  Na5  1  0.36630493  0.99760095  0.75097103  1
  Na  Na6  1  0.30052460  0.33339738  0.58336048  1
  Na  Na7  1  0.03287378  0.69947540  0.58336048  1
  Na  Na8  1  0.66660262  0.96712622  0.58336048  1
  Na  Na9  1  0.29902942  0.96397229  0.08255312  1
  Na  Na10  1  0.66494387  0.70097058  0.08255312  1
  Na  Na11  1  0.03602771  0.33505613  0.08255312  1
  Na  Na12  1  0.96445292  0.66651609  0.91683588  1
  Na  Na13  1  0.70206217  0.03554708  0.91683588  1
  Na  Na14  1  0.33348391  0.29793783  0.91683588  1
  Na  Na15  1  0.96672683  0.29922561  0.41647785  1
  Na  Na16  1  0.33249778  0.03327317  0.41647785  1
  Na  Na17  1  0.70077439  0.66750222  0.41647785  1
  Na  Na18  1  -0.00000000  -0.00000000  0.49993516  1
  Na  Na19  1  -0.00000000  -0.00000000  0.99862979  1
  Na  Na20  1  0.66666700  0.33333300  0.83498167  1
  Na  Na21  1  0.66666700  0.33333300  0.33178046  1
  Na  Na22  1  0.33333300  0.66666700  0.16655172  1
  Na  Na23  1  0.33333300  0.66666700  0.66802162  1
  Si  Si24  1  0.30022165  0.00029548  0.24962241  1
  Si  Si25  1  0.70007383  0.69977835  0.24962241  1
  Si  Si26  1  0.99970452  0.29992617  0.24962241  1
  Si  Si27  1  0.28746254  0.29342711  0.75395438  1
  Si  Si28  1  0.00596457  0.71253746  0.75395438  1
  Si  Si29  1  0.70657289  0.99403543  0.75395438  1
  Si  Si30  1  0.96013660  0.33311917  0.58351891  1
  Si  Si31  1  0.37298357  0.03986340  0.58351891  1
  Si  Si32  1  0.66688083  0.62701643  0.58351891  1
  Si  Si33  1  0.95302670  0.61471818  0.08175138  1
  Si  Si34  1  0.66169249  0.04697330  0.08175138  1
  Si  Si35  1  0.38528182  0.33830751  0.08175138  1
  Si  Si36  1  0.62028209  0.66650375  0.91680903  1
  Si  Si37  1  0.04622066  0.37971791  0.91680903  1
  Si  Si38  1  0.33349625  0.95377934  0.91680903  1
  Si  Si39  1  0.62118145  0.95352628  0.41436883  1
  Si  Si40  1  0.33234383  0.37881855  0.41436883  1
  Si  Si41  1  0.04647372  0.66765617  0.41436883  1
  Sn  Sn42  1  -0.00000000  -0.00000000  0.35040864  1
  Sn  Sn43  1  -0.00000000  -0.00000000  0.64990442  1
  Sn  Sn44  1  -0.00000000  -0.00000000  0.14745202  1
  Sn  Sn45  1  0.66666700  0.33333300  0.68734069  1
  Sn  Sn46  1  0.66666700  0.33333300  0.47980874  1
  Sn  Sn47  1  0.33333300  0.66666700  0.51827010  1
  Ge  Ge48  1  -0.00000000  -0.00000000  0.85339819  1
  Ge  Ge49  1  0.66666700  0.33333300  0.18460735  1
  Ge  Ge50  1  0.66666700  0.33333300  0.98062595  1
  Ge  Ge51  1  0.33333300  0.66666700  0.01810363  1
  Ge  Ge52  1  0.33333300  0.66666700  0.31366927  1
  Ge  Ge53  1  0.33333300  0.66666700  0.81588985  1
  O  O54  1  0.22267032  0.04718188  0.30870792  1
  O  O55  1  0.82451156  0.77732968  0.30870792  1
  O  O56  1  0.95281812  0.17548844  0.30870792  1
  O  O57  1  0.19839382  0.16112088  0.81110895  1
  O  O58  1  0.96272706  0.80160618  0.81110895  1
  O  O59  1  0.83887912  0.03727294  0.81110895  1
  O  O60  1  0.77855305  0.95274401  0.69205200  1
  O  O61  1  0.17419096  0.22144695  0.69205200  1
  O  O62  1  0.04725599  0.82580904  0.69205200  1
  O  O63  1  0.77865451  0.82574309  0.19068923  1
  O  O64  1  0.04708858  0.22134549  0.19068923  1
  O  O65  1  0.17425691  0.95291142  0.19068923  1
  O  O66  1  0.88275048  0.37685929  0.64344245  1
  O  O67  1  0.49410982  0.11724952  0.64344245  1
  O  O68  1  0.62314071  0.50589018  0.64344245  1
  O  O69  1  0.86919016  0.49520940  0.14254975  1
  O  O70  1  0.62602024  0.13080984  0.14254975  1
  O  O71  1  0.50479060  0.37397976  0.14254975  1
  O  O72  1  0.46862616  0.29626421  0.02268180  1
  O  O73  1  0.82763905  0.53137384  0.02268180  1
  O  O74  1  0.70373579  0.17236095  0.02268180  1
  O  O75  1  0.45003552  0.16047173  0.52332271  1
  O  O76  1  0.71043721  0.54996448  0.52332271  1
  O  O77  1  0.83952827  0.28956279  0.52332271  1
  O  O78  1  0.53571259  0.70697823  0.97646734  1
  O  O79  1  0.17126465  0.46428741  0.97646734  1
  O  O80  1  0.29302177  0.82873535  0.97646734  1
  O  O81  1  0.55025242  0.84020218  0.47569437  1
  O  O82  1  0.28994876  0.44974758  0.47569437  1
  O  O83  1  0.15979782  0.71005124  0.47569437  1
  O  O84  1  0.13483320  0.62907921  0.35593485  1
  O  O85  1  0.49424500  0.86516680  0.35593485  1
  O  O86  1  0.37092079  0.50575500  0.35593485  1
  O  O87  1  0.13057419  0.50397916  0.85740308  1
  O  O88  1  0.37340397  0.86942581  0.85740308  1
  O  O89  1  0.49602084  0.62659603  0.85740308  1
  O  O90  1  0.02523962  0.83848349  0.41114273  1
  O  O91  1  0.81324387  0.97476038  0.41114273  1
  O  O92  1  0.16151651  0.18675613  0.41114273  1
  O  O93  1  0.02600783  0.18527274  0.90984871  1
  O  O94  1  0.15926491  0.97399217  0.90984871  1
  O  O95  1  0.81472726  0.84073509  0.90984871  1
  O  O96  1  0.97659189  0.16001379  0.58747560  1
  O  O97  1  0.18342190  0.02340811  0.58747560  1
  O  O98  1  0.83998621  0.81657810  0.58747560  1
  O  O99  1  0.97330612  0.80804423  0.08645133  1
  O  O100  1  0.83473811  0.02669388  0.08645133  1
  O  O101  1  0.19195577  0.16526189  0.08645133  1
  O  O102  1  0.69102114  0.16884524  0.74889372  1
  O  O103  1  0.47782511  0.30897886  0.74889372  1
  O  O104  1  0.83115476  0.52217489  0.74889372  1
  O  O105  1  0.68619244  0.51024036  0.24168292  1
  O  O106  1  0.82404892  0.31380756  0.24168292  1
  O  O107  1  0.48975964  0.17595108  0.24168292  1
  O  O108  1  0.64089746  0.49273104  0.92372867  1
  O  O109  1  0.85183459  0.35910254  0.92372867  1
  O  O110  1  0.50726896  0.14816541  0.92372867  1
  O  O111  1  0.63864790  0.14467012  0.41801250  1
  O  O112  1  0.50602322  0.36135210  0.41801250  1
  O  O113  1  0.85532988  0.49397678  0.41801250  1
  O  O114  1  0.36255184  0.51086793  0.07568820  1
  O  O115  1  0.14831509  0.63744816  0.07568820  1
  O  O116  1  0.48913207  0.85168491  0.07568820  1
  O  O117  1  0.35645232  0.85061566  0.57981962  1
  O  O118  1  0.49416234  0.64354768  0.57981962  1
  O  O119  1  0.14938434  0.50583766  0.57981962  1
  O  O120  1  0.31380031  0.82446194  0.25756329  1
  O  O121  1  0.51066064  0.68619969  0.25756329  1
  O  O122  1  0.17553806  0.48933936  0.25756329  1
  O  O123  1  0.30823150  0.48654006  0.75984712  1
  O  O124  1  0.17830757  0.69176850  0.75984712  1
  O  O125  1  0.51345994  0.82169243  0.75984712  1
