# generated using pymatgen
data_Na2NbIn3Si2(SO6)4
_symmetry_space_group_name_H-M   'P 1'
_cell_length_a   8.95131331
_cell_length_b   8.93833490
_cell_length_c   23.43418798
_cell_angle_alpha   90.57430393
_cell_angle_beta   89.43427962
_cell_angle_gamma   119.98193963
_symmetry_Int_Tables_number   1
_chemical_formula_structural   Na2NbIn3Si2(SO6)4
_chemical_formula_sum   'Na6 Nb3 In9 Si6 S12 O72'
_cell_volume   1623.95601816
_cell_formula_units_Z   3
loop_
 _symmetry_equiv_pos_site_id
 _symmetry_equiv_pos_as_xyz
  1  'x, y, z'
loop_
 _atom_site_type_symbol
 _atom_site_label
 _atom_site_symmetry_multiplicity
 _atom_site_fract_x
 _atom_site_fract_y
 _atom_site_fract_z
 _atom_site_occupancy
  Na  Na0  1  0.00233997  0.98893876  0.49601404  1
  Na  Na1  1  0.00173153  0.97682476  0.99652244  1
  Na  Na2  1  0.64230206  0.32609750  0.83293306  1
  Na  Na3  1  0.69016892  0.34008654  0.33069770  1
  Na  Na4  1  0.31445312  0.65754005  0.15619511  1
  Na  Na5  1  0.32695894  0.65164741  0.67096780  1
  Nb  Nb6  1  0.66761823  0.34731194  0.97788467  1
  Nb  Nb7  1  0.31233564  0.65428035  0.31233002  1
  Nb  Nb8  1  0.34423127  0.66561445  0.81927176  1
  In  In9  1  0.99673559  0.99611438  0.35002279  1
  In  In10  1  0.01414393  0.99941260  0.85314600  1
  In  In11  1  0.01030360  0.01123541  0.65377063  1
  In  In12  1  0.99760261  0.99820607  0.14430149  1
  In  In13  1  0.65641599  0.33452733  0.68573786  1
  In  In14  1  0.68863728  0.34013282  0.18436495  1
  In  In15  1  0.67769037  0.34183464  0.47850220  1
  In  In16  1  0.33295130  0.67643396  0.01789626  1
  In  In17  1  0.32315889  0.66830525  0.51646130  1
  Si  Si18  1  0.98812099  0.27512773  0.25070790  1
  Si  Si19  1  0.29461186  0.29848386  0.75002027  1
  Si  Si20  1  0.96685341  0.63200783  0.08366151  1
  Si  Si21  1  0.63028281  0.67636447  0.92008502  1
  Si  Si22  1  0.33692925  0.96352878  0.91901560  1
  Si  Si23  1  0.03491272  0.67192287  0.41809552  1
  S  S24  1  0.29982869  -0.00046113  0.25057202  1
  S  S25  1  0.69554364  0.70005035  0.25172452  1
  S  S26  1  0.00328962  0.70077906  0.74862531  1
  S  S27  1  0.70222574  0.99592283  0.75017160  1
  S  S28  1  0.95812177  0.32949715  0.58414070  1
  S  S29  1  0.37447229  0.04011178  0.58156501  1
  S  S30  1  0.66767249  0.63590928  0.58285488  1
  S  S31  1  0.66641459  0.04493231  0.08245909  1
  S  S32  1  0.38041680  0.33391985  0.08344613  1
  S  S33  1  0.03949967  0.37655387  0.91714320  1
  S  S34  1  0.62138695  0.95472621  0.41712975  1
  S  S35  1  0.33453240  0.37734426  0.41653489  1
  O  O36  1  0.22335498  0.02404316  0.30336902  1
  O  O37  1  0.80466766  0.77330340  0.30294576  1
  O  O38  1  0.97281072  0.17806215  0.30970922  1
  O  O39  1  0.20332873  0.18118674  0.80448867  1
  O  O40  1  0.96610229  0.77585728  0.79885703  1
  O  O41  1  0.80601818  0.01841831  0.80038974  1
  O  O42  1  0.77030256  0.95950157  0.69663359  1
  O  O43  1  0.18869579  0.23480120  0.68990739  1
  O  O44  1  0.02942370  0.80219130  0.69541534  1
  O  O45  1  0.76873581  0.80561489  0.20035448  1
  O  O46  1  0.03753039  0.20564753  0.19376544  1
  O  O47  1  0.19031184  0.95669110  0.20011403  1
  O  O48  1  0.87524837  0.35304511  0.63585587  1
  O  O49  1  0.47593366  0.12181714  0.63360037  1
  O  O50  1  0.64183786  0.53040598  0.63411006  1
  O  O51  1  0.88328861  0.52872711  0.14171120  1
  O  O52  1  0.63782322  0.11556188  0.13636756  1
  O  O53  1  0.47732959  0.34779940  0.13562254  1
  O  O54  1  0.47239211  0.31777557  0.03053810  1
  O  O55  1  0.83805161  0.51901903  0.02688122  1
  O  O56  1  0.67569538  0.14981845  0.03200816  1
  O  O57  1  0.45710175  0.14393200  0.52963289  1
  O  O58  1  0.69307479  0.55569066  0.53038406  1
  O  O59  1  0.85822629  0.31035807  0.53169949  1
  O  O60  1  0.53950607  0.68762231  0.97672090  1
  O  O61  1  0.14036793  0.44861473  0.96861569  1
  O  O62  1  0.29906816  0.84773274  0.97366266  1
  O  O63  1  0.54883744  0.85565637  0.47042084  1
  O  O64  1  0.31602276  0.45605179  0.46998426  1
  O  O65  1  0.14639843  0.70078365  0.47471992  1
  O  O66  1  0.14575605  0.65134393  0.36133305  1
  O  O67  1  0.51592574  0.86165105  0.36624190  1
  O  O68  1  0.35442213  0.48764676  0.36563913  1
  O  O69  1  0.12688909  0.48850896  0.86531503  1
  O  O70  1  0.35958354  0.85958057  0.86087623  1
  O  O71  1  0.50049735  0.63488757  0.86214392  1
  O  O72  1  0.01921594  0.84321284  0.40967780  1
  O  O73  1  0.79751481  0.98122184  0.41266496  1
  O  O74  1  0.17902477  0.20625022  0.41158460  1
  O  O75  1  0.00805718  0.20189630  0.90843044  1
  O  O76  1  0.18017082  0.00043710  0.91272148  1
  O  O77  1  0.81429336  0.83911629  0.90712413  1
  O  O78  1  0.97158727  0.17020246  0.58732743  1
  O  O79  1  0.19775635  0.01757724  0.58582078  1
  O  O80  1  0.82499073  0.81033519  0.58899201  1
  O  O81  1  0.97288595  0.81938305  0.08328543  1
  O  O82  1  0.83155594  0.04293701  0.08318307  1
  O  O83  1  0.20986136  0.17436034  0.08275073  1
  O  O84  1  0.68386148  0.15160145  0.74365029  1
  O  O85  1  0.49113948  0.32809213  0.74674422  1
  O  O86  1  0.85442321  0.52215431  0.74229551  1
  O  O87  1  0.65975054  0.52002689  0.24575813  1
  O  O88  1  0.83007714  0.31422396  0.24931815  1
  O  O89  1  0.47229351  0.15215861  0.24360438  1
  O  O90  1  0.64276988  0.49473248  0.92527849  1
  O  O91  1  0.86892930  0.37094120  0.92100356  1
  O  O92  1  0.52278824  0.15107365  0.92594657  1
  O  O93  1  0.62539374  0.12375058  0.41989581  1
  O  O94  1  0.49317640  0.36348186  0.41793362  1
  O  O95  1  0.85122771  0.49048081  0.41637462  1
  O  O96  1  0.36573835  0.48990673  0.07885476  1
  O  O97  1  0.15235640  0.64169020  0.07920579  1
  O  O98  1  0.51831923  0.86718818  0.07981108  1
  O  O99  1  0.36152833  0.86682075  0.57886296  1
  O  O100  1  0.51010333  0.65286529  0.57751481  1
  O  O101  1  0.13524542  0.48514883  0.58062254  1
  O  O102  1  0.32486737  0.84246840  0.25977813  1
  O  O103  1  0.52445625  0.69013741  0.26263059  1
  O  O104  1  0.17062158  0.47966930  0.26268358  1
  O  O105  1  0.31236162  0.49441177  0.76085642  1
  O  O106  1  0.16279700  0.68962131  0.75595851  1
  O  O107  1  0.52340447  0.83980897  0.75684684  1
