# generated using pymatgen
data_MgNb2(FeO4)2
_symmetry_space_group_name_H-M   'P 1'
_cell_length_a   3.89372300
_cell_length_b   6.80030316
_cell_length_c   6.87862930
_cell_angle_alpha   106.19006919
_cell_angle_beta   90.00000000
_cell_angle_gamma   106.63600174
_symmetry_Int_Tables_number   1
_chemical_formula_structural   MgNb2(FeO4)2
_chemical_formula_sum   'Mg1 Nb2 Fe2 O8'
_cell_volume   166.95945232
_cell_formula_units_Z   1
loop_
 _symmetry_equiv_pos_site_id
 _symmetry_equiv_pos_as_xyz
  1  'x, y, z'
loop_
 _atom_site_type_symbol
 _atom_site_label
 _atom_site_symmetry_multiplicity
 _atom_site_fract_x
 _atom_site_fract_y
 _atom_site_fract_z
 _atom_site_occupancy
  Mg  Mg0  1  0.50300800  0.00000000  0.50000000  1
  Nb  Nb1  1  0.10051000  0.20114700  0.21513000  1
  Nb  Nb2  1  0.89936300  0.79885300  0.78487000  1
  Fe  Fe3  1  0.20099300  0.39928200  0.80680400  1
  Fe  Fe4  1  0.80171200  0.60071800  0.19319600  1
  O  O5  1  0.24837800  0.49952000  0.17105500  1
  O  O6  1  0.74885800  0.50048000  0.82894500  1
  O  O7  1  0.37943400  0.76357400  0.75458900  1
  O  O8  1  0.61586000  0.23642600  0.24541100  1
  O  O9  1  0.05199900  0.11454200  0.88565200  1
  O  O10  1  0.93745600  0.88545800  0.11434800  1
  O  O11  1  0.09317500  0.19688300  0.49858600  1
  O  O12  1  0.89629200  0.80311700  0.50141400  1
