# generated using pymatgen
data_Na9Ta5Zn(SiO4)9
_symmetry_space_group_name_H-M   'P 1'
_cell_length_a   9.07336467
_cell_length_b   27.18488094
_cell_length_c   22.41600312
_cell_angle_alpha   90.05095318
_cell_angle_beta   89.96601786
_cell_angle_gamma   120.08076941
_symmetry_Int_Tables_number   1
_chemical_formula_structural   Na9Ta5Zn(SiO4)9
_chemical_formula_sum   'Na54 Ta30 Zn6 Si54 O216'
_cell_volume   4784.43205629
_cell_formula_units_Z   6
loop_
 _symmetry_equiv_pos_site_id
 _symmetry_equiv_pos_as_xyz
  1  'x, y, z'
loop_
 _atom_site_type_symbol
 _atom_site_label
 _atom_site_symmetry_multiplicity
 _atom_site_fract_x
 _atom_site_fract_y
 _atom_site_fract_z
 _atom_site_occupancy
  Na  Na0  1  0.00150965  0.00189170  0.49591671  1
  Na  Na1  1  0.98667224  0.32794032  0.49875348  1
  Na  Na2  1  0.00586738  0.66883405  0.50597879  1
  Na  Na3  1  0.98350204  0.99564449  0.99879068  1
  Na  Na4  1  0.99607398  0.32736016  0.99921792  1
  Na  Na5  1  0.01197722  0.66870102  0.00908914  1
  Na  Na6  1  0.66605324  0.11027508  0.82945377  1
  Na  Na7  1  0.66899035  0.44203888  0.83850181  1
  Na  Na8  1  0.66651740  0.78891176  0.83296488  1
  Na  Na9  1  0.66345154  0.10954248  0.32800766  1
  Na  Na10  1  0.65990252  0.44314058  0.33871709  1
  Na  Na11  1  0.68583994  0.78353224  0.33377216  1
  Na  Na12  1  0.34462468  0.22643535  0.16777707  1
  Na  Na13  1  0.34110610  0.55169136  0.16911948  1
  Na  Na14  1  0.33485034  0.88945431  0.16689313  1
  Na  Na15  1  0.33589957  0.22700288  0.66786311  1
  Na  Na16  1  0.31545371  0.55139726  0.66716969  1
  Na  Na17  1  0.34674722  0.88795686  0.66873093  1
  Na  Na18  1  0.62243570  0.00628804  0.24223231  1
  Na  Na19  1  0.64800805  0.66485373  0.24602158  1
  Na  Na20  1  0.38984744  0.12377449  0.24135079  1
  Na  Na21  1  0.35134714  0.78560269  0.24440572  1
  Na  Na22  1  0.97899289  0.20088366  0.24198435  1
  Na  Na23  1  0.00765061  0.55028921  0.24381977  1
  Na  Na24  1  0.62520493  0.20156989  0.74197551  1
  Na  Na25  1  0.64080069  0.54963981  0.74124805  1
  Na  Na26  1  0.98125077  0.12447476  0.74311582  1
  Na  Na27  1  0.00604733  0.78680084  0.74443727  1
  Na  Na28  1  0.39728179  0.00663063  0.74301218  1
  Na  Na29  1  0.34628304  0.66428966  0.74306067  1
  Na  Na30  1  0.32077405  0.11286703  0.58750722  1
  Na  Na31  1  0.31925778  0.44210575  0.57471671  1
  Na  Na32  1  0.26883295  0.77013147  0.59134641  1
  Na  Na33  1  0.01764924  0.22629244  0.59044858  1
  Na  Na34  1  0.03243568  0.57463464  0.58920230  1
  Na  Na35  1  0.02841689  0.89965632  0.57916434  1
  Na  Na36  1  0.67345519  0.32873929  0.57406638  1
  Na  Na37  1  0.68487002  0.65322141  0.59484123  1
  Na  Na38  1  0.66017268  0.99432250  0.58781623  1
  Na  Na39  1  0.31194872  0.32813787  0.07501194  1
  Na  Na40  1  0.27945279  0.65431107  0.09648576  1
  Na  Na41  1  0.31716873  0.99308410  0.08862107  1
  Na  Na42  1  0.66080482  0.22547759  0.09098809  1
  Na  Na43  1  0.69239293  0.57532396  0.09154383  1
  Na  Na44  1  0.02008221  0.11269038  0.09001303  1
  Na  Na45  1  0.00572331  0.44173642  0.07671410  1
  Na  Na46  1  0.04452508  0.77124985  0.09215797  1
  Na  Na47  1  0.93584483  0.54810375  0.92851085  1
  Na  Na48  1  0.70453553  0.35122508  0.92464371  1
  Na  Na49  1  0.70392048  0.68009441  0.91951550  1
  Na  Na50  1  0.35198570  0.43074617  0.92489114  1
  Na  Na51  1  0.94254161  0.43172155  0.42488519  1
  Na  Na52  1  0.35052305  0.35195715  0.42421635  1
  Na  Na53  1  0.71098734  0.54906627  0.42720890  1
  Ta  Ta54  1  0.99697047  0.99781443  0.35777277  1
  Ta  Ta55  1  0.99945185  0.33399371  0.35595279  1
  Ta  Ta56  1  0.00426223  0.66790922  0.35433871  1
  Ta  Ta57  1  0.99854731  0.99850835  0.85854583  1
  Ta  Ta58  1  0.00197926  0.33360467  0.85615660  1
  Ta  Ta59  1  0.00276916  0.66818547  0.85346153  1
  Ta  Ta60  1  0.99708947  0.99985600  0.64623195  1
  Ta  Ta61  1  0.00188756  0.33338548  0.64813573  1
  Ta  Ta62  1  0.99667652  0.99822158  0.14510684  1
  Ta  Ta63  1  0.99805010  0.33329252  0.14828661  1
  Ta  Ta64  1  0.66401657  0.44279250  0.68688209  1
  Ta  Ta65  1  0.66687817  0.77913019  0.68862970  1
  Ta  Ta66  1  0.66443257  0.44294997  0.18719282  1
  Ta  Ta67  1  0.67070330  0.77980977  0.18838939  1
  Ta  Ta68  1  0.66730774  0.11077465  0.97857404  1
  Ta  Ta69  1  0.66987376  0.78215733  0.97614980  1
  Ta  Ta70  1  0.66525549  0.11118015  0.47801951  1
  Ta  Ta71  1  0.66979462  0.77922711  0.47438737  1
  Ta  Ta72  1  0.32944430  0.22164010  0.01849603  1
  Ta  Ta73  1  0.33216075  0.55625312  0.02255209  1
  Ta  Ta74  1  0.33843889  0.88836037  0.02148430  1
  Ta  Ta75  1  0.33630842  0.22195183  0.51833179  1
  Ta  Ta76  1  0.33566945  0.55658447  0.52148672  1
  Ta  Ta77  1  0.32893343  0.88796588  0.51965262  1
  Ta  Ta78  1  0.33299698  0.22063653  0.31085843  1
  Ta  Ta79  1  0.33551123  0.55545243  0.31270564  1
  Ta  Ta80  1  0.33058426  0.89056059  0.31206213  1
  Ta  Ta81  1  0.32911439  0.22075834  0.81102491  1
  Ta  Ta82  1  0.32969352  0.55461944  0.81213642  1
  Ta  Ta83  1  0.34107356  0.89095772  0.81241154  1
  Zn  Zn84  1  0.99817563  0.66541537  0.64948327  1
  Zn  Zn85  1  0.00204567  0.66603770  0.15104135  1
  Zn  Zn86  1  0.66928391  0.11145992  0.68518702  1
  Zn  Zn87  1  0.66400197  0.11096464  0.18457763  1
  Zn  Zn88  1  0.65968084  0.44070812  0.98279102  1
  Zn  Zn89  1  0.66526359  0.44183310  0.48198421  1
  Si  Si90  1  0.28397705  0.99812943  0.25098825  1
  Si  Si91  1  0.29093904  0.33361703  0.25147014  1
  Si  Si92  1  0.29453551  0.66671432  0.24843390  1
  Si  Si93  1  0.70729157  0.23647807  0.25148340  1
  Si  Si94  1  0.71009255  0.56968715  0.24746431  1
  Si  Si95  1  0.70927929  0.90372662  0.25215200  1
  Si  Si96  1  0.00103449  0.09498069  0.25078732  1
  Si  Si97  1  0.99854755  0.43095826  0.25237558  1
  Si  Si98  1  0.00148151  0.76360418  0.24705964  1
  Si  Si99  1  0.28642935  0.09571159  0.75155259  1
  Si  Si100  1  0.29398953  0.43056332  0.75249251  1
  Si  Si101  1  0.29018585  0.76455854  0.74620280  1
  Si  Si102  1  0.00249523  0.23659074  0.75124474  1
  Si  Si103  1  0.99771669  0.56939407  0.74730490  1
  Si  Si104  1  0.00258734  0.90394365  0.75081403  1
  Si  Si105  1  0.71013834  0.99859316  0.75233211  1
  Si  Si106  1  0.71024802  0.33377810  0.75155868  1
  Si  Si107  1  0.70573622  0.66666318  0.74863442  1
  Si  Si108  1  0.95758425  0.11177857  0.58532028  1
  Si  Si109  1  0.95634532  0.44435672  0.58093848  1
  Si  Si110  1  0.95649781  0.77892892  0.58190903  1
  Si  Si111  1  0.37795979  0.01493263  0.58628811  1
  Si  Si112  1  0.37134731  0.34581812  0.58014525  1
  Si  Si113  1  0.38327036  0.68223672  0.58223384  1
  Si  Si114  1  0.66623272  0.20799020  0.58609441  1
  Si  Si115  1  0.66895064  0.54067742  0.58019838  1
  Si  Si116  1  0.66108708  0.87364237  0.58166310  1
  Si  Si117  1  0.95774269  0.20793577  0.08592019  1
  Si  Si118  1  0.95200737  0.54050597  0.08026876  1
  Si  Si119  1  0.96004569  0.87461669  0.08193609  1
  Si  Si120  1  0.66682059  0.01473580  0.08625910  1
  Si  Si121  1  0.66601940  0.34568048  0.08038599  1
  Si  Si122  1  0.66433903  0.68262238  0.08079821  1
  Si  Si123  1  0.37681659  0.11162905  0.08534052  1
  Si  Si124  1  0.37719565  0.44416849  0.08078333  1
  Si  Si125  1  0.38323048  0.78058856  0.08337608  1
  Si  Si126  1  0.62088602  0.22070739  0.91545126  1
  Si  Si127  1  0.62534871  0.55707380  0.91487969  1
  Si  Si128  1  0.62518021  0.88943902  0.91643022  1
  Si  Si129  1  0.03744612  0.12393799  0.91440950  1
  Si  Si130  1  0.04551788  0.45740351  0.91876950  1
  Si  Si131  1  0.04573976  0.79401200  0.91524171  1
  Si  Si132  1  0.33050154  0.31836818  0.91552310  1
  Si  Si133  1  0.32925438  0.65276024  0.91633537  1
  Si  Si134  1  0.33267075  0.98542753  0.91841222  1
  Si  Si135  1  0.62528281  0.31864769  0.41514280  1
  Si  Si136  1  0.62802009  0.65287541  0.41587163  1
  Si  Si137  1  0.62475543  0.98607235  0.41724101  1
  Si  Si138  1  0.33375469  0.12394154  0.41437607  1
  Si  Si139  1  0.32784381  0.45776412  0.41861258  1
  Si  Si140  1  0.33459804  0.79303888  0.41446652  1
  Si  Si141  1  0.04214497  0.22120638  0.41553865  1
  Si  Si142  1  0.04815328  0.55845754  0.41521025  1
  Si  Si143  1  0.04059914  0.88930195  0.41717945  1
  O  O144  1  0.17009532  0.99680292  0.30814771  1
  O  O145  1  0.19845153  0.34192790  0.31084794  1
  O  O146  1  0.19393609  0.67536921  0.30547263  1
  O  O147  1  0.83194253  0.27657890  0.30617272  1
  O  O148  1  0.83536483  0.60098296  0.30576753  1
  O  O149  1  0.81490525  0.93396066  0.31234856  1
  O  O150  1  0.99394664  0.05504989  0.30663795  1
  O  O151  1  0.99031607  0.39602804  0.31318395  1
  O  O152  1  0.96718055  0.71971189  0.30339258  1
  O  O153  1  0.17309531  0.05586865  0.80713546  1
  O  O154  1  0.19809984  0.39614573  0.81355447  1
  O  O155  1  0.18819461  0.72093560  0.80303448  1
  O  O156  1  0.99787053  0.27657974  0.80612318  1
  O  O157  1  0.96802214  0.60198942  0.80547870  1
  O  O158  1  0.98883655  0.93554199  0.80996385  1
  O  O159  1  0.82141676  0.99752351  0.80870338  1
  O  O160  1  0.82776553  0.34198108  0.81092069  1
  O  O161  1  0.82469662  0.67481537  0.80836869  1
  O  O162  1  0.80760993  0.32547044  0.69333571  1
  O  O163  1  0.78025400  0.65197113  0.69105738  1
  O  O164  1  0.80544560  0.99348478  0.69043194  1
  O  O165  1  0.17137650  0.06356035  0.69037248  1
  O  O166  1  0.17412233  0.39541681  0.69519164  1
  O  O167  1  0.17834854  0.74113776  0.68685143  1
  O  O168  1  0.01159781  0.27204249  0.68998385  1
  O  O169  1  0.05672620  0.60920494  0.68920517  1
  O  O170  1  0.01900780  0.94187141  0.69065373  1
  O  O171  1  0.80497514  0.27204578  0.19019140  1
  O  O172  1  0.77307414  0.60961444  0.18912007  1
  O  O173  1  0.81305090  0.94435269  0.19456502  1
  O  O174  1  0.02436077  0.06468220  0.18958566  1
  O  O175  1  0.01267068  0.39562755  0.19491265  1
  O  O176  1  0.04718384  0.74118273  0.18738924  1
  O  O177  1  0.16900330  0.32549290  0.19317510  1
  O  O178  1  0.17767470  0.65123583  0.19003635  1
  O  O179  1  0.17449629  0.99320426  0.18952799  1
  O  O180  1  0.89660151  0.12903794  0.64523675  1
  O  O181  1  0.85510559  0.45205292  0.63823014  1
  O  O182  1  0.86102454  0.78626662  0.64234227  1
  O  O183  1  0.49051460  0.03690394  0.64592628  1
  O  O184  1  0.49886989  0.38011932  0.63657789  1
  O  O185  1  0.49757347  0.71242981  0.64381300  1
  O  O186  1  0.61912041  0.17034233  0.64564627  1
  O  O187  1  0.63637840  0.49950399  0.64032484  1
  O  O188  1  0.64077946  0.83324075  0.63975044  1
  O  O189  1  0.89160855  0.17053047  0.14557847  1
  O  O190  1  0.86218323  0.49918838  0.13995143  1
  O  O191  1  0.85513620  0.83404447  0.13899592  1
  O  O192  1  0.61995169  0.03687909  0.14584681  1
  O  O193  1  0.64089286  0.38006302  0.13642137  1
  O  O194  1  0.64136133  0.71405245  0.14077084  1
  O  O195  1  0.49314096  0.13025461  0.14456420  1
  O  O196  1  0.50154407  0.45230191  0.13786429  1
  O  O197  1  0.49256067  0.78508239  0.14427710  1
  O  O198  1  0.47557823  0.10202334  0.02902563  1
  O  O199  1  0.43348683  0.42415515  0.02179486  1
  O  O200  1  0.50014386  0.78223067  0.02616712  1
  O  O201  1  0.83041211  0.17679709  0.02911337  1
  O  O202  1  0.84388914  0.51029979  0.02146575  1
  O  O203  1  0.85347417  0.84263971  0.02151257  1
  O  O204  1  0.70099225  0.05863523  0.03017890  1
  O  O205  1  0.71086649  0.38173658  0.01989913  1
  O  O206  1  0.67016560  0.72007928  0.02208992  1
  O  O207  1  0.47332543  0.05850953  0.53024726  1
  O  O208  1  0.43645810  0.38193866  0.51982208  1
  O  O209  1  0.49625656  0.72332217  0.52708853  1
  O  O210  1  0.69997748  0.17648190  0.52951361  1
  O  O211  1  0.68722761  0.51058938  0.52149991  1
  O  O212  1  0.68723059  0.84424439  0.52285149  1
  O  O213  1  0.82825580  0.10097975  0.52941371  1
  O  O214  1  0.83929042  0.42411421  0.52218273  1
  O  O215  1  0.84959541  0.78197713  0.52487220  1
  O  O216  1  0.52639496  0.23075816  0.97354738  1
  O  O217  1  0.52381116  0.56488906  0.97314773  1
  O  O218  1  0.51833971  0.89141012  0.97446295  1
  O  O219  1  0.15996320  0.16051693  0.97143690  1
  O  O220  1  0.15850449  0.48896741  0.97962925  1
  O  O221  1  0.15676493  0.82424525  0.97562461  1
  O  O222  1  0.32124682  0.28373899  0.97729285  1
  O  O223  1  0.30475754  0.61156049  0.97445895  1
  O  O224  1  0.31014823  0.94529817  0.97670123  1
  O  O225  1  0.52981990  0.28377731  0.47704702  1
  O  O226  1  0.52637309  0.61135537  0.47374267  1
  O  O227  1  0.52282660  0.94621529  0.47624368  1
  O  O228  1  0.32156134  0.16027967  0.47187285  1
  O  O229  1  0.30910224  0.48890998  0.47987062  1
  O  O230  1  0.31288075  0.82456363  0.47482062  1
  O  O231  1  0.16541925  0.23054944  0.47389824  1
  O  O232  1  0.16507433  0.56292035  0.47486937  1
  O  O233  1  0.14880191  0.89195625  0.47791262  1
  O  O234  1  0.13548710  0.21336918  0.35623446  1
  O  O235  1  0.15364376  0.55798958  0.35547952  1
  O  O236  1  0.15237493  0.88639542  0.36096293  1
  O  O237  1  0.50034153  0.27916548  0.36037591  1
  O  O238  1  0.51645661  0.62087428  0.35616195  1
  O  O239  1  0.51089399  0.95469558  0.35726328  1
  O  O240  1  0.34813582  0.16058740  0.35399592  1
  O  O241  1  0.32404640  0.49743128  0.36369134  1
  O  O242  1  0.35963853  0.83291076  0.35602341  1
  O  O243  1  0.13333437  0.16018061  0.85364694  1
  O  O244  1  0.16837671  0.49711329  0.86358788  1
  O  O245  1  0.13977256  0.83247461  0.85595796  1
  O  O246  1  0.33684307  0.27908825  0.86050007  1
  O  O247  1  0.35015400  0.62056779  0.85769314  1
  O  O248  1  0.35350169  0.95420577  0.85792278  1
  O  O249  1  0.50466235  0.21340199  0.85602803  1
  O  O250  1  0.52232870  0.55798164  0.85462460  1
  O  O251  1  0.50921635  0.88551091  0.85841870  1
  O  O252  1  0.03473852  0.28045453  0.41081605  1
  O  O253  1  0.02675314  0.61503427  0.41248759  1
  O  O254  1  0.02276056  0.94577339  0.41623050  1
  O  O255  1  0.81429463  0.32403760  0.41330020  1
  O  O256  1  0.81105884  0.65489540  0.41119678  1
  O  O257  1  0.81338913  0.99304163  0.41384680  1
  O  O258  1  0.16513554  0.06115584  0.41266761  1
  O  O259  1  0.15146815  0.39501582  0.41748934  1
  O  O260  1  0.16092922  0.73133680  0.40737008  1
  O  O261  1  0.01802789  0.06104058  0.91282656  1
  O  O262  1  0.03388832  0.39481991  0.91760814  1
  O  O263  1  0.02599893  0.73043319  0.90795578  1
  O  O264  1  0.15798708  0.32399220  0.91326144  1
  O  O265  1  0.15318910  0.65520928  0.91057275  1
  O  O266  1  0.16485000  0.99250188  0.91291123  1
  O  O267  1  0.80636327  0.28022610  0.91056856  1
  O  O268  1  0.81458368  0.61572026  0.91281823  1
  O  O269  1  0.81369117  0.94510172  0.91516886  1
  O  O270  1  0.97310725  0.05328979  0.58833911  1
  O  O271  1  0.99612889  0.39153591  0.59350737  1
  O  O272  1  0.96839772  0.72232607  0.58133040  1
  O  O273  1  0.18391362  0.00746117  0.58837230  1
  O  O274  1  0.17862537  0.33639162  0.59175448  1
  O  O275  1  0.19798851  0.67542028  0.58173266  1
  O  O276  1  0.83591680  0.27295144  0.58864151  1
  O  O277  1  0.83225177  0.60361241  0.58611094  1
  O  O278  1  0.83270046  0.93687085  0.58892369  1
  O  O279  1  0.98373820  0.27309295  0.08866410  1
  O  O280  1  0.98005622  0.60373092  0.08591457  1
  O  O281  1  0.98265173  0.93811466  0.08758971  1
  O  O282  1  0.84130895  0.00965204  0.08888200  1
  O  O283  1  0.83034445  0.33616509  0.09196037  1
  O  O284  1  0.82947959  0.67588098  0.07957708  1
  O  O285  1  0.18744954  0.05354839  0.08850241  1
  O  O286  1  0.17856731  0.39166128  0.09327122  1
  O  O287  1  0.20259961  0.72312314  0.08124529  1
  O  O288  1  0.69921738  0.05569435  0.75229693  1
  O  O289  1  0.68809202  0.38911192  0.74213967  1
  O  O290  1  0.69728070  0.72614437  0.74568960  1
  O  O291  1  0.47037489  0.10114725  0.75139578  1
  O  O292  1  0.48154092  0.43668957  0.74449633  1
  O  O293  1  0.47753173  0.76778422  0.74502927  1
  O  O294  1  0.83311723  0.17558074  0.75455302  1
  O  O295  1  0.82041457  0.50804242  0.74149519  1
  O  O296  1  0.83433628  0.83995214  0.74461053  1
  O  O297  1  0.69319739  0.17545850  0.25460661  1
  O  O298  1  0.70260996  0.50806668  0.24060254  1
  O  O299  1  0.68521158  0.83997292  0.24469592  1
  O  O300  1  0.83370133  0.10075362  0.25137783  1
  O  O301  1  0.82839530  0.43658197  0.24417297  1
  O  O302  1  0.82564566  0.76779793  0.24367415  1
  O  O303  1  0.46680315  0.05532705  0.25172065  1
  O  O304  1  0.47883446  0.38899235  0.24188291  1
  O  O305  1  0.48271892  0.72554741  0.24588834  1
  O  O306  1  0.64258291  0.16559458  0.92471832  1
  O  O307  1  0.63661217  0.50034258  0.91536070  1
  O  O308  1  0.64326867  0.83241762  0.91775222  1
  O  O309  1  0.85331595  0.12005026  0.92334100  1
  O  O310  1  0.86352514  0.45277197  0.91382457  1
  O  O311  1  0.84953310  0.78256641  0.91901992  1
  O  O312  1  0.50492153  0.04771275  0.92603410  1
  O  O313  1  0.49977007  0.37961032  0.91267231  1
  O  O314  1  0.50006029  0.71519454  0.92171278  1
  O  O315  1  0.63830050  0.04810783  0.42594446  1
  O  O316  1  0.64015726  0.37986396  0.41256481  1
  O  O317  1  0.65033544  0.71586880  0.42284562  1
  O  O318  1  0.50663526  0.12021779  0.42375365  1
  O  O319  1  0.49592425  0.45309440  0.41386673  1
  O  O320  1  0.50096739  0.78519407  0.42156476  1
  O  O321  1  0.85497149  0.16591274  0.42538125  1
  O  O322  1  0.86641121  0.50095167  0.41519777  1
  O  O323  1  0.85277294  0.83239084  0.41749714  1
  O  O324  1  0.34113174  0.16541119  0.07377209  1
  O  O325  1  0.37255071  0.50437367  0.07774532  1
  O  O326  1  0.35669384  0.83636036  0.08165517  1
  O  O327  1  0.15209435  0.21811379  0.07490903  1
  O  O328  1  0.14485727  0.54438107  0.07923983  1
  O  O329  1  0.14909841  0.88037128  0.08165925  1
  O  O330  1  0.49430326  0.28187876  0.07968953  1
  O  O331  1  0.48489501  0.61957655  0.07943412  1
  O  O332  1  0.49871323  0.95166897  0.07390012  1
  O  O333  1  0.35146900  0.28192910  0.57974353  1
  O  O334  1  0.37538596  0.61975365  0.57960294  1
  O  O335  1  0.34944022  0.95043720  0.57508813  1
  O  O336  1  0.50259551  0.21819010  0.57483795  1
  O  O337  1  0.48881793  0.54485648  0.57958118  1
  O  O338  1  0.49166181  0.88066591  0.58060446  1
  O  O339  1  0.15464255  0.16517918  0.57392081  1
  O  O340  1  0.14172542  0.50425820  0.57876977  1
  O  O341  1  0.14937057  0.83686444  0.58206718  1
  O  O342  1  0.29614487  0.27399527  0.25546428  1
  O  O343  1  0.33310408  0.61346265  0.25514594  1
  O  O344  1  0.31130602  0.94220453  0.25233216  1
  O  O345  1  0.51810527  0.23118024  0.25300597  1
  O  O346  1  0.51556488  0.55827840  0.25962543  1
  O  O347  1  0.51880230  0.89752104  0.25185515  1
  O  O348  1  0.17791182  0.15830533  0.25181696  1
  O  O349  1  0.16188225  0.49643528  0.25321666  1
  O  O350  1  0.16853362  0.82685863  0.25942215  1
  O  O351  1  0.29663150  0.15831310  0.75103007  1
  O  O352  1  0.32631642  0.49619342  0.75302378  1
  O  O353  1  0.31145615  0.82740254  0.75805045  1
  O  O354  1  0.17545466  0.23114998  0.75300363  1
  O  O355  1  0.15807563  0.55846539  0.76106376  1
  O  O356  1  0.17398479  0.89752218  0.75126523  1
  O  O357  1  0.52609710  0.27411592  0.75544759  1
  O  O358  1  0.50631522  0.61374079  0.75471304  1
  O  O359  1  0.51561319  0.94260354  0.75230308  1
