# generated using pymatgen
data_Li8CoO6
_symmetry_space_group_name_H-M   'P 1'
_cell_length_a   5.45702488
_cell_length_b   5.45707010
_cell_length_c   10.67414812
_cell_angle_alpha   89.99955681
_cell_angle_beta   90.00056865
_cell_angle_gamma   120.00256692
_symmetry_Int_Tables_number   1
_chemical_formula_structural   Li8CoO6
_chemical_formula_sum   'Li16 Co2 O12'
_cell_volume   275.27583524
_cell_formula_units_Z   2
loop_
 _symmetry_equiv_pos_site_id
 _symmetry_equiv_pos_as_xyz
  1  'x, y, z'
loop_
 _atom_site_type_symbol
 _atom_site_label
 _atom_site_symmetry_multiplicity
 _atom_site_fract_x
 _atom_site_fract_y
 _atom_site_fract_z
 _atom_site_occupancy
  Li  Li0  1  0.68869819  0.00003870  0.76779661  1
  Li  Li1  1  0.68866926  0.68866499  0.26779644  1
  Li  Li2  1  0.99996288  0.31129981  0.26780076  1
  Li  Li3  1  0.00004280  0.68870020  0.76779876  1
  Li  Li4  1  0.31132604  0.31133514  0.76779028  1
  Li  Li5  1  0.31130165  0.99995959  0.26780070  1
  Li  Li6  1  0.61049965  0.99997614  0.12783982  1
  Li  Li7  1  0.61050863  0.61050978  0.62784012  1
  Li  Li8  1  0.00001521  0.38949380  0.62782117  1
  Li  Li9  1  0.99997955  0.61050556  0.12784000  1
  Li  Li10  1  0.38950356  0.38949828  0.12785646  1
  Li  Li11  1  0.38949698  0.00001677  0.62782309  1
  Li  Li12  1  0.66669699  0.33335917  0.40569671  1
  Li  Li13  1  0.33332242  0.66664970  0.90570229  1
  Li  Li14  1  0.33335923  0.66669212  0.40569647  1
  Li  Li15  1  0.66664371  0.33330547  0.90570126  1
  Co  Co16  1  0.99985512  0.99985849  0.49573426  1
  Co  Co17  1  0.00011077  0.00014661  0.99580985  1
  O  O18  1  0.68667499  0.00002222  0.94901068  1
  O  O19  1  0.68647749  0.68647615  0.44898738  1
  O  O20  1  0.99998203  0.31332722  0.44899284  1
  O  O21  1  0.00001794  0.68670919  0.94901235  1
  O  O22  1  0.31353305  0.31353504  0.94900132  1
  O  O23  1  0.31333335  0.99997721  0.44899335  1
  O  O24  1  0.66664124  0.33329450  0.21655919  1
  O  O25  1  1.00002060  1.00002487  0.16784815  1
  O  O26  1  0.66669366  0.33334084  0.71655054  1
  O  O27  1  0.33330327  0.66663110  0.21655864  1
  O  O28  1  -0.00002614  -0.00002714  0.66780204  1
  O  O29  1  0.33335489  0.66668048  0.71655048  1
