# generated using pymatgen
data_Pb2SO5
_symmetry_space_group_name_H-M   'P 1'
_cell_length_a   5.69522624
_cell_length_b   7.06995860
_cell_length_c   7.45270718
_cell_angle_alpha   113.30053719
_cell_angle_beta   112.46326673
_cell_angle_gamma   90.00000228
_symmetry_Int_Tables_number   1
_chemical_formula_structural   Pb2SO5
_chemical_formula_sum   'Pb4 S2 O10'
_cell_volume   250.62680442
_cell_formula_units_Z   2
loop_
 _symmetry_equiv_pos_site_id
 _symmetry_equiv_pos_as_xyz
  1  'x, y, z'
loop_
 _atom_site_type_symbol
 _atom_site_label
 _atom_site_symmetry_multiplicity
 _atom_site_fract_x
 _atom_site_fract_y
 _atom_site_fract_z
 _atom_site_occupancy
  Pb  Pb0  1  0.52607856  0.27324827  0.05215713  1
  Pb  Pb1  1  0.47392144  0.72675173  0.94784287  1
  Pb  Pb2  1  0.14641574  0.10373140  0.29283248  1
  Pb  Pb3  1  0.85358426  0.89626860  0.70716752  1
  S  S4  1  0.83142612  0.34510067  0.66285124  1
  S  S5  1  0.16857388  0.65489933  0.33714876  1
  O  O6  1  0.74695568  -0.00000000  -0.00000000  1
  O  O7  1  0.25304432  0.00000000  0.00000000  1
  O  O8  1  0.71491643  0.29234606  0.42983385  1
  O  O9  1  0.28508357  0.70765394  0.57016615  1
  O  O10  1  0.93149005  0.74696404  0.28646531  1
  O  O11  1  0.64502474  0.25303596  0.71353469  1
  O  O12  1  0.89487169  0.57481621  0.78974138  1
  O  O13  1  0.10512831  0.42518379  0.21025862  1
  O  O14  1  0.35497526  0.74696404  0.28646531  1
  O  O15  1  0.06850995  0.25303596  0.71353469  1
