# generated using pymatgen
data_Na4CaMgP2SO12
_symmetry_space_group_name_H-M   'P 1'
_cell_length_a   9.24321431
_cell_length_b   9.22154563
_cell_length_c   22.46241271
_cell_angle_alpha   89.97262035
_cell_angle_beta   90.08638079
_cell_angle_gamma   120.06293831
_symmetry_Int_Tables_number   1
_chemical_formula_structural   Na4CaMgP2SO12
_chemical_formula_sum   'Na24 Ca6 Mg6 P12 S6 O72'
_cell_volume   1657.05711365
_cell_formula_units_Z   6
loop_
 _symmetry_equiv_pos_site_id
 _symmetry_equiv_pos_as_xyz
  1  'x, y, z'
loop_
 _atom_site_type_symbol
 _atom_site_label
 _atom_site_symmetry_multiplicity
 _atom_site_fract_x
 _atom_site_fract_y
 _atom_site_fract_z
 _atom_site_occupancy
  Na  Na0  1  0.63296895  0.00686951  0.25632699  1
  Na  Na1  1  0.35378936  0.35194059  0.24535034  1
  Na  Na2  1  0.00749973  0.63160165  0.24815502  1
  Na  Na3  1  0.62648214  0.63170287  0.74517452  1
  Na  Na4  1  0.99479729  0.34874453  0.74182610  1
  Na  Na5  1  0.37538750  0.01215588  0.75369260  1
  Na  Na6  1  0.29897695  0.33790274  0.59248653  1
  Na  Na7  1  0.01744547  0.68515078  0.58034909  1
  Na  Na8  1  0.67980779  0.96861096  0.58408665  1
  Na  Na9  1  0.28839680  0.96833601  0.08497971  1
  Na  Na10  1  0.66805423  0.68546736  0.08164094  1
  Na  Na11  1  0.03893257  0.33711612  0.09390968  1
  Na  Na12  1  0.96987567  0.67657946  0.92374306  1
  Na  Na13  1  0.68369254  0.01569005  0.91093312  1
  Na  Na14  1  0.34406499  0.30202569  0.91481443  1
  Na  Na15  1  0.95885546  0.29719151  0.41156808  1
  Na  Na16  1  0.32889956  0.01668010  0.40847288  1
  Na  Na17  1  0.70960192  0.67890288  0.41988410  1
  Na  Na18  1  0.98142900  0.98974859  0.49952302  1
  Na  Na19  1  0.00820314  0.99019979  0.00145100  1
  Na  Na20  1  0.64900831  0.32445373  0.83224513  1
  Na  Na21  1  0.67460660  0.32581460  0.33130028  1
  Na  Na22  1  0.31790307  0.65807251  0.16942399  1
  Na  Na23  1  0.34108908  0.65992944  0.66587894  1
  Ca  Ca24  1  0.00022364  0.00275594  0.84377391  1
  Ca  Ca25  1  0.66211716  0.33639001  0.98979136  1
  Ca  Ca26  1  0.67447246  0.33632693  0.48481054  1
  Ca  Ca27  1  0.33478477  0.66785022  0.01784846  1
  Ca  Ca28  1  0.33375092  0.66920335  0.51402712  1
  Ca  Ca29  1  0.33963660  0.66846908  0.81610099  1
  Mg  Mg30  1  0.00229358  0.00259319  0.34560717  1
  Mg  Mg31  1  0.99302537  0.00399245  0.65200353  1
  Mg  Mg32  1  0.01281258  0.00477985  0.15504599  1
  Mg  Mg33  1  0.66866984  0.33524354  0.68044518  1
  Mg  Mg34  1  0.66608704  0.33403949  0.18372798  1
  Mg  Mg35  1  0.32458072  0.67234423  0.31697560  1
  P  P36  1  0.30077814  0.00123375  0.25059828  1
  P  P37  1  0.00002403  0.29718863  0.25009592  1
  P  P38  1  0.30745707  0.29853485  0.74537772  1
  P  P39  1  0.69777683  0.00891381  0.74624523  1
  P  P40  1  0.96741987  0.32758402  0.58664493  1
  P  P41  1  0.67425407  0.63947557  0.58661549  1
  P  P42  1  0.96501088  0.63989870  0.08897170  1
  P  P43  1  0.35947045  0.32590673  0.08889425  1
  P  P44  1  0.64327201  0.66737640  0.91713330  1
  P  P45  1  0.33261231  0.97398412  0.91653303  1
  P  P46  1  0.63828366  0.96322921  0.41187380  1
  P  P47  1  0.03300132  0.67520963  0.41274286  1
  S  S48  1  0.70362112  0.70408178  0.24972585  1
  S  S49  1  0.99362465  0.69464910  0.74559631  1
  S  S50  1  0.36188954  0.03582864  0.58634004  1
  S  S51  1  0.67528934  0.03624466  0.08835883  1
  S  S52  1  0.02652445  0.36095132  0.91670266  1
  S  S53  1  0.32707486  0.36389643  0.41220674  1
  O  O54  1  0.21703660  0.02801633  0.30606385  1
  O  O55  1  0.80722114  0.78592086  0.30324507  1
  O  O56  1  0.97462448  0.18741272  0.30559063  1
  O  O57  1  0.23795963  0.20512371  0.80489470  1
  O  O58  1  0.97355302  0.76615370  0.80212064  1
  O  O59  1  0.79179880  0.03291628  0.80580893  1
  O  O60  1  0.79524510  0.98671953  0.69472289  1
  O  O61  1  0.19220797  0.19756874  0.69307056  1
  O  O62  1  0.01314157  0.80510873  0.69502184  1
  O  O63  1  0.78428007  0.80834482  0.19624105  1
  O  O64  1  0.02242220  0.21174838  0.19427208  1
  O  O65  1  0.19020235  0.97329659  0.19527990  1
  O  O66  1  0.87215492  0.34688835  0.63970601  1
  O  O67  1  0.47056258  0.12709364  0.63725346  1
  O  O68  1  0.65387910  0.52310033  0.63922318  1
  O  O69  1  0.86703124  0.52091917  0.14086616  1
  O  O70  1  0.65727275  0.12885514  0.13872440  1
  O  O71  1  0.47600378  0.34472852  0.14145847  1
  O  O72  1  0.42926970  0.30102155  0.02971182  1
  O  O73  1  0.87464493  0.56904881  0.02886903  1
  O  O74  1  0.69790209  0.12771542  0.03163782  1
  O  O75  1  0.43286259  0.12977462  0.53011288  1
  O  O76  1  0.69425396  0.56577466  0.52728353  1
  O  O77  1  0.86933472  0.30177253  0.52807335  1
  O  O78  1  0.55711372  0.68142626  0.97402159  1
  O  O79  1  0.12555991  0.44535984  0.97045875  1
  O  O80  1  0.31552215  0.87083252  0.97297211  1
  O  O81  1  0.56739831  0.86770117  0.47109025  1
  O  O82  1  0.30654146  0.43584074  0.46853706  1
  O  O83  1  0.12892122  0.69937146  0.47196101  1
  O  O84  1  0.12737833  0.65159296  0.36039224  1
  O  O85  1  0.52405724  0.86489133  0.35884477  1
  O  O86  1  0.34712344  0.47330650  0.36111273  1
  O  O87  1  0.10751873  0.45928053  0.86250768  1
  O  O88  1  0.34206537  0.88510957  0.85961109  1
  O  O89  1  0.53876752  0.64900534  0.86105642  1
  O  O90  1  0.01564858  0.83476251  0.40603674  1
  O  O91  1  0.81774481  0.98710400  0.40648350  1
  O  O92  1  0.17460397  0.19407205  0.40700057  1
  O  O93  1  0.01206760  0.19293968  0.91482553  1
  O  O94  1  0.17684819  0.99676953  0.91606996  1
  O  O95  1  0.81801444  0.82919398  0.91537989  1
  O  O96  1  0.99099093  0.17155411  0.59158931  1
  O  O97  1  0.19060296  0.01258778  0.59211405  1
  O  O98  1  0.83553977  0.81597878  0.59211640  1
  O  O99  1  0.97909595  0.81570121  0.09460583  1
  O  O100  1  0.82402477  0.01444011  0.09477129  1
  O  O101  1  0.18051246  0.16946259  0.09387545  1
  O  O102  1  0.67927859  0.16749281  0.73988544  1
  O  O103  1  0.48684896  0.32338493  0.74000648  1
  O  O104  1  0.84161162  0.52504081  0.74056867  1
  O  O105  1  0.68676296  0.53382158  0.24538836  1
  O  O106  1  0.84234837  0.31912360  0.24531085  1
  O  O107  1  0.47971518  0.16080561  0.24527627  1
  O  O108  1  0.66443242  0.51034861  0.91741631  1
  O  O109  1  0.85695915  0.34118643  0.91966568  1
  O  O110  1  0.49675093  0.14728107  0.91728787  1
  O  O111  1  0.64892174  0.13822645  0.41281571  1
  O  O112  1  0.47818668  0.34475306  0.41498294  1
  O  O113  1  0.85503862  0.51596246  0.41357981  1
  O  O114  1  0.34539574  0.48802723  0.08817372  1
  O  O115  1  0.14319189  0.65974414  0.08888350  1
  O  O116  1  0.52099934  0.86751781  0.08681716  1
  O  O117  1  0.34835155  0.86749157  0.58448710  1
  O  O118  1  0.51600165  0.65928140  0.58602748  1
  O  O119  1  0.14334993  0.48978787  0.58518407  1
  O  O120  1  0.32168780  0.84269051  0.25534705  1
  O  O121  1  0.53227529  0.68246207  0.25453480  1
  O  O122  1  0.16185486  0.47518144  0.25492874  1
  O  O123  1  0.31742886  0.47287985  0.74523623  1
  O  O124  1  0.14431685  0.67534552  0.74743564  1
  O  O125  1  0.52015650  0.84979253  0.74604267  1
