# generated using pymatgen
data_Na4ZrScSi2PO12
_symmetry_space_group_name_H-M   'P 1'
_cell_length_a   9.18917515
_cell_length_b   9.18917483
_cell_length_c   22.92430641
_cell_angle_alpha   89.96664141
_cell_angle_beta   90.03335860
_cell_angle_gamma   119.89726688
_symmetry_Int_Tables_number   1
_chemical_formula_structural   Na4ZrScSi2PO12
_chemical_formula_sum   'Na24 Zr6 Sc6 Si12 P6 O72'
_cell_volume   1678.14095555
_cell_formula_units_Z   6
loop_
 _symmetry_equiv_pos_site_id
 _symmetry_equiv_pos_as_xyz
  1  'x, y, z'
loop_
 _atom_site_type_symbol
 _atom_site_label
 _atom_site_symmetry_multiplicity
 _atom_site_fract_x
 _atom_site_fract_y
 _atom_site_fract_z
 _atom_site_occupancy
  Na  Na0  1  0.63963692  0.00409385  0.25039452  1
  Na  Na1  1  0.36817311  0.36666454  0.24781373  1
  Na  Na2  1  0.99304155  0.62848385  0.24983914  1
  Na  Na3  1  0.63333546  0.63182689  0.74781373  1
  Na  Na4  1  0.99590615  0.36036308  0.75039452  1
  Na  Na5  1  0.37151615  0.00695845  0.74983914  1
  Na  Na6  1  0.30630392  0.33742685  0.58372752  1
  Na  Na7  1  0.03484011  0.69999754  0.58114673  1
  Na  Na8  1  0.65970855  0.96181685  0.58317214  1
  Na  Na9  1  0.30000246  0.96515989  0.08114673  1
  Na  Na10  1  0.66257315  0.69369608  0.08372752  1
  Na  Na11  1  0.03818315  0.34029145  0.08317214  1
  Na  Na12  1  0.97296992  0.67076085  0.91706152  1
  Na  Na13  1  0.70150611  0.03333154  0.91448073  1
  Na  Na14  1  0.32637455  0.29515085  0.91650614  1
  Na  Na15  1  0.96666846  0.29849389  0.41448073  1
  Na  Na16  1  0.32923915  0.02703008  0.41706152  1
  Na  Na17  1  0.70484915  0.67362545  0.41650614  1
  Na  Na18  1  0.99801654  0.99480881  0.49820898  1
  Na  Na19  1  0.00519119  0.00198346  0.99820898  1
  Na  Na20  1  0.66468354  0.32814181  0.83154198  1
  Na  Na21  1  0.67185819  0.33531646  0.33154198  1
  Na  Na22  1  0.33134954  0.66147581  0.16487598  1
  Na  Na23  1  0.33852419  0.66865046  0.66487598  1
  Zr  Zr24  1  0.99857757  0.99962919  0.64935358  1
  Zr  Zr25  1  0.00037081  0.00142243  0.14935358  1
  Zr  Zr26  1  0.66524457  0.33296219  0.98268658  1
  Zr  Zr27  1  0.66703781  0.33475543  0.48268658  1
  Zr  Zr28  1  0.33191057  0.66629619  0.31602058  1
  Zr  Zr29  1  0.33370381  0.66808943  0.81602058  1
  Sc  Sc30  1  0.99029120  0.99416017  0.35051132  1
  Sc  Sc31  1  0.00583983  0.00970880  0.85051132  1
  Sc  Sc32  1  0.65695820  0.32749317  0.68384432  1
  Sc  Sc33  1  0.67250683  0.34304180  0.18384432  1
  Sc  Sc34  1  0.32362420  0.66082717  0.01717832  1
  Sc  Sc35  1  0.33917283  0.67637580  0.51717832  1
  Si  Si36  1  0.70653568  0.70537354  0.25052837  1
  Si  Si37  1  0.99760915  0.29228918  0.25101945  1
  Si  Si38  1  0.29462646  0.29346432  0.75052837  1
  Si  Si39  1  0.70771082  0.00239085  0.75101945  1
  Si  Si40  1  0.37320268  0.03870654  0.58386137  1
  Si  Si41  1  0.66427615  0.62562218  0.58435245  1
  Si  Si42  1  0.96129346  0.62679732  0.08386137  1
  Si  Si43  1  0.37437782  0.33572385  0.08435245  1
  Si  Si44  1  0.03986868  0.37204054  0.91719537  1
  Si  Si45  1  0.33094215  0.95895618  0.91768645  1
  Si  Si46  1  0.62795946  0.96013132  0.41719537  1
  Si  Si47  1  0.04104382  0.66905785  0.41768645  1
  P  P48  1  0.29273422  0.00169976  0.25099899  1
  P  P49  1  0.99830024  0.70726578  0.75099899  1
  P  P50  1  0.95940122  0.33503276  0.58433199  1
  P  P51  1  0.66496724  0.04059878  0.08433199  1
  P  P52  1  0.62606722  0.66836676  0.91766599  1
  P  P53  1  0.33163324  0.37393278  0.41766599  1
  O  O54  1  0.21206767  0.03156608  0.30457517  1
  O  O55  1  0.82617251  0.79112437  0.30676736  1
  O  O56  1  0.96966705  0.17500909  0.30742832  1
  O  O57  1  0.20887563  0.17382749  0.80676736  1
  O  O58  1  0.96843392  0.78793233  0.80457517  1
  O  O59  1  0.82499091  0.03033295  0.80742832  1
  O  O60  1  0.79210226  0.96519669  0.69324986  1
  O  O61  1  0.17309971  0.20754951  0.69310364  1
  O  O62  1  0.03216450  0.82045560  0.69617302  1
  O  O63  1  0.79245049  0.82690029  0.19310364  1
  O  O64  1  0.03480331  0.20789774  0.19324986  1
  O  O65  1  0.17954440  0.96783550  0.19617302  1
  O  O66  1  0.87873467  0.36489908  0.63790817  1
  O  O67  1  0.49283951  0.12445737  0.64010036  1
  O  O68  1  0.63633405  0.50834209  0.64076132  1
  O  O69  1  0.87554263  0.50716049  0.14010036  1
  O  O70  1  0.63510092  0.12126533  0.13790817  1
  O  O71  1  0.49165791  0.36366595  0.14076132  1
  O  O72  1  0.45876926  0.29852969  0.02658286  1
  O  O73  1  0.83976671  0.54088251  0.02643664  1
  O  O74  1  0.69883150  0.15378860  0.02950602  1
  O  O75  1  0.45911749  0.16023329  0.52643664  1
  O  O76  1  0.70147031  0.54123074  0.52658286  1
  O  O77  1  0.84621140  0.30116850  0.52950602  1
  O  O78  1  0.54540067  0.69823308  0.97124217  1
  O  O79  1  0.15950551  0.45779137  0.97343436  1
  O  O80  1  0.30300005  0.84167609  0.97409532  1
  O  O81  1  0.54220863  0.84049449  0.47343436  1
  O  O82  1  0.30176692  0.45459933  0.47124217  1
  O  O83  1  0.15832391  0.69699995  0.47409532  1
  O  O84  1  0.12543526  0.63186369  0.35991686  1
  O  O85  1  0.50643271  0.87421651  0.35977064  1
  O  O86  1  0.36549750  0.48712260  0.36284002  1
  O  O87  1  0.12578349  0.49356729  0.85977064  1
  O  O88  1  0.36813631  0.87456474  0.85991686  1
  O  O89  1  0.51287740  0.63450250  0.86284002  1
  O  O90  1  0.02522811  0.83715819  0.41066388  1
  O  O91  1  0.81439760  0.98099783  0.41116391  1
  O  O92  1  0.17750925  0.19805319  0.40995844  1
  O  O93  1  0.01900217  0.18560240  0.91116391  1
  O  O94  1  0.16284181  0.97477189  0.91066388  1
  O  O95  1  0.80194681  0.82249075  0.90995844  1
  O  O96  1  0.97462456  0.17345793  0.58927732  1
  O  O97  1  0.18696328  0.02342218  0.58967732  1
  O  O98  1  0.83533130  0.81275018  0.58929369  1
  O  O99  1  0.97657782  0.81303672  0.08967732  1
  O  O100  1  0.82654207  0.02537544  0.08927732  1
  O  O101  1  0.18724982  0.16466870  0.08929369  1
  O  O102  1  0.69189511  0.17049119  0.74399688  1
  O  O103  1  0.48106460  0.31433083  0.74449691  1
  O  O104  1  0.84417625  0.53138619  0.74329144  1
  O  O105  1  0.68566917  0.51893540  0.24449691  1
  O  O106  1  0.82950881  0.30810489  0.24399688  1
  O  O107  1  0.46861381  0.15582375  0.24329144  1
  O  O108  1  0.64129156  0.50679093  0.92261032  1
  O  O109  1  0.85363028  0.35675518  0.92301032  1
  O  O110  1  0.50199830  0.14608318  0.92262669  1
  O  O111  1  0.64324482  0.14636972  0.42301032  1
  O  O112  1  0.49320907  0.35870844  0.42261032  1
  O  O113  1  0.85391682  0.49800170  0.42262669  1
  O  O114  1  0.35856111  0.50382519  0.07733088  1
  O  O115  1  0.14773060  0.64766483  0.07783091  1
  O  O116  1  0.51084225  0.86472019  0.07662544  1
  O  O117  1  0.35233517  0.85226940  0.57783091  1
  O  O118  1  0.49617481  0.64143889  0.57733088  1
  O  O119  1  0.13527981  0.48915775  0.57662544  1
  O  O120  1  0.30795756  0.84012493  0.25594432  1
  O  O121  1  0.52029628  0.69008918  0.25634432  1
  O  O122  1  0.16866430  0.47941718  0.25596069  1
  O  O123  1  0.30991082  0.47970372  0.75634432  1
  O  O124  1  0.15987507  0.69204244  0.75594432  1
  O  O125  1  0.52058282  0.83133570  0.75596069  1
