# generated using pymatgen
data_K3NaZr2(SiO4)3
_symmetry_space_group_name_H-M   'P 1'
_cell_length_a   9.49498577
_cell_length_b   9.49498541
_cell_length_c   22.72415491
_cell_angle_alpha   90.00000000
_cell_angle_beta   90.00000000
_cell_angle_gamma   120.00000123
_symmetry_Int_Tables_number   1
_chemical_formula_structural   K3NaZr2(SiO4)3
_chemical_formula_sum   'K18 Na6 Zr12 Si18 O72'
_cell_volume   1774.21802601
_cell_formula_units_Z   6
loop_
 _symmetry_equiv_pos_site_id
 _symmetry_equiv_pos_as_xyz
  1  'x, y, z'
loop_
 _atom_site_type_symbol
 _atom_site_label
 _atom_site_symmetry_multiplicity
 _atom_site_fract_x
 _atom_site_fract_y
 _atom_site_fract_z
 _atom_site_occupancy
  K  K0  1  0.65828409  -0.00000000  0.25000000  1
  K  K1  1  0.34171591  0.34171591  0.25000000  1
  K  K2  1  1.00000000  0.65828409  0.25000000  1
  K  K3  1  0.65828409  0.65828409  0.75000000  1
  K  K4  1  0.00000000  0.34171591  0.75000000  1
  K  K5  1  0.34171591  0.00000000  0.75000000  1
  K  K6  1  0.32495109  0.33333300  0.58333300  1
  K  K7  1  0.00838291  0.67504891  0.58333300  1
  K  K8  1  0.66666700  0.99161709  0.58333300  1
  K  K9  1  0.32495109  0.99161709  0.08333300  1
  K  K10  1  0.66666700  0.67504891  0.08333300  1
  K  K11  1  0.00838291  0.33333300  0.08333300  1
  K  K12  1  0.99161709  0.66666700  0.91666700  1
  K  K13  1  0.67504891  0.00838291  0.91666700  1
  K  K14  1  0.33333300  0.32495109  0.91666700  1
  K  K15  1  0.99161709  0.32495109  0.41666700  1
  K  K16  1  0.33333300  0.00838291  0.41666700  1
  K  K17  1  0.67504891  0.66666700  0.41666700  1
  Na  Na18  1  -0.00000000  0.00000000  0.50000000  1
  Na  Na19  1  -0.00000000  0.00000000  -0.00000000  1
  Na  Na20  1  0.66666700  0.33333300  0.83333300  1
  Na  Na21  1  0.66666700  0.33333300  0.33333300  1
  Na  Na22  1  0.33333300  0.66666700  0.16666700  1
  Na  Na23  1  0.33333300  0.66666700  0.66666700  1
  Zr  Zr24  1  -0.00000000  0.00000000  0.35129311  1
  Zr  Zr25  1  -0.00000000  0.00000000  0.85129311  1
  Zr  Zr26  1  -0.00000000  -0.00000000  0.64870689  1
  Zr  Zr27  1  -0.00000000  0.00000000  0.14870689  1
  Zr  Zr28  1  0.66666700  0.33333300  0.68462611  1
  Zr  Zr29  1  0.66666700  0.33333300  0.18462611  1
  Zr  Zr30  1  0.66666700  0.33333300  0.98203989  1
  Zr  Zr31  1  0.66666700  0.33333300  0.48203989  1
  Zr  Zr32  1  0.33333300  0.66666700  0.01796011  1
  Zr  Zr33  1  0.33333300  0.66666700  0.51796011  1
  Zr  Zr34  1  0.33333300  0.66666700  0.31537389  1
  Zr  Zr35  1  0.33333300  0.66666700  0.81537389  1
  Si  Si36  1  0.29994892  -0.00000000  0.25000000  1
  Si  Si37  1  0.70005108  0.70005108  0.25000000  1
  Si  Si38  1  0.00000000  0.29994892  0.25000000  1
  Si  Si39  1  0.29994892  0.29994892  0.75000000  1
  Si  Si40  1  1.00000000  0.70005108  0.75000000  1
  Si  Si41  1  0.70005108  0.00000000  0.75000000  1
  Si  Si42  1  0.96661592  0.33333300  0.58333300  1
  Si  Si43  1  0.36671808  0.03338408  0.58333300  1
  Si  Si44  1  0.66666700  0.63328192  0.58333300  1
  Si  Si45  1  0.96661592  0.63328192  0.08333300  1
  Si  Si46  1  0.66666700  0.03338408  0.08333300  1
  Si  Si47  1  0.36671808  0.33333300  0.08333300  1
  Si  Si48  1  0.63328192  0.66666700  0.91666700  1
  Si  Si49  1  0.03338408  0.36671808  0.91666700  1
  Si  Si50  1  0.33333300  0.96661592  0.91666700  1
  Si  Si51  1  0.63328192  0.96661592  0.41666700  1
  Si  Si52  1  0.33333300  0.36671808  0.41666700  1
  Si  Si53  1  0.03338408  0.66666700  0.41666700  1
  O  O54  1  0.20136551  0.01940681  0.30669086  1
  O  O55  1  0.81804131  0.79863449  0.30669086  1
  O  O56  1  0.98059319  0.18195869  0.30669086  1
  O  O57  1  0.20136551  0.18195869  0.80669086  1
  O  O58  1  0.98059319  0.79863449  0.80669086  1
  O  O59  1  0.81804131  0.01940681  0.80669086  1
  O  O60  1  0.79863449  0.98059319  0.69330914  1
  O  O61  1  0.18195869  0.20136551  0.69330914  1
  O  O62  1  0.01940681  0.81804131  0.69330914  1
  O  O63  1  0.79863449  0.81804131  0.19330914  1
  O  O64  1  0.01940681  0.20136551  0.19330914  1
  O  O65  1  0.18195869  0.98059319  0.19330914  1
  O  O66  1  0.86803251  0.35273981  0.64002386  1
  O  O67  1  0.48470831  0.13196749  0.64002386  1
  O  O68  1  0.64726019  0.51529169  0.64002386  1
  O  O69  1  0.86803251  0.51529169  0.14002386  1
  O  O70  1  0.64726019  0.13196749  0.14002386  1
  O  O71  1  0.48470831  0.35273981  0.14002386  1
  O  O72  1  0.46530149  0.31392619  0.02664214  1
  O  O73  1  0.84862569  0.53469851  0.02664214  1
  O  O74  1  0.68607381  0.15137431  0.02664214  1
  O  O75  1  0.46530149  0.15137431  0.52664214  1
  O  O76  1  0.68607381  0.53469851  0.52664214  1
  O  O77  1  0.84862569  0.31392619  0.52664214  1
  O  O78  1  0.53469851  0.68607381  0.97335786  1
  O  O79  1  0.15137431  0.46530149  0.97335786  1
  O  O80  1  0.31392619  0.84862569  0.97335786  1
  O  O81  1  0.53469851  0.84862569  0.47335786  1
  O  O82  1  0.31392619  0.46530149  0.47335786  1
  O  O83  1  0.15137431  0.68607381  0.47335786  1
  O  O84  1  0.13196749  0.64726019  0.35997614  1
  O  O85  1  0.51529169  0.86803251  0.35997614  1
  O  O86  1  0.35273981  0.48470831  0.35997614  1
  O  O87  1  0.13196749  0.48470831  0.85997614  1
  O  O88  1  0.35273981  0.86803251  0.85997614  1
  O  O89  1  0.51529169  0.64726019  0.85997614  1
  O  O90  1  0.01285312  0.82857813  0.41170854  1
  O  O91  1  0.81572501  0.98714688  0.41170854  1
  O  O92  1  0.17142187  0.18427499  0.41170854  1
  O  O93  1  0.01285312  0.18427499  0.91170854  1
  O  O94  1  0.17142187  0.98714688  0.91170854  1
  O  O95  1  0.81572501  0.82857813  0.91170854  1
  O  O96  1  0.98714688  0.17142187  0.58829146  1
  O  O97  1  0.18427499  0.01285312  0.58829146  1
  O  O98  1  0.82857813  0.81572501  0.58829146  1
  O  O99  1  0.98714688  0.81572501  0.08829146  1
  O  O100  1  0.82857813  0.01285312  0.08829146  1
  O  O101  1  0.18427499  0.17142187  0.08829146  1
  O  O102  1  0.67952012  0.16191113  0.74504154  1
  O  O103  1  0.48239201  0.32047988  0.74504154  1
  O  O104  1  0.83808887  0.51760799  0.74504154  1
  O  O105  1  0.67952012  0.51760799  0.24504154  1
  O  O106  1  0.83808887  0.32047988  0.24504154  1
  O  O107  1  0.48239201  0.16191113  0.24504154  1
  O  O108  1  0.65381388  0.50475487  0.92162446  1
  O  O109  1  0.85094199  0.34618612  0.92162446  1
  O  O110  1  0.49524513  0.14905801  0.92162446  1
  O  O111  1  0.65381388  0.14905801  0.42162446  1
  O  O112  1  0.49524513  0.34618612  0.42162446  1
  O  O113  1  0.85094199  0.50475487  0.42162446  1
  O  O114  1  0.34618612  0.49524513  0.07837554  1
  O  O115  1  0.14905801  0.65381388  0.07837554  1
  O  O116  1  0.50475487  0.85094199  0.07837554  1
  O  O117  1  0.34618612  0.85094199  0.57837554  1
  O  O118  1  0.50475487  0.65381388  0.57837554  1
  O  O119  1  0.14905801  0.49524513  0.57837554  1
  O  O120  1  0.32047988  0.83808887  0.25495846  1
  O  O121  1  0.51760799  0.67952012  0.25495846  1
  O  O122  1  0.16191113  0.48239201  0.25495846  1
  O  O123  1  0.32047988  0.48239201  0.75495846  1
  O  O124  1  0.16191113  0.67952012  0.75495846  1
  O  O125  1  0.51760799  0.83808887  0.75495846  1
