# generated using pymatgen
data_MgAl2(CoO3)2
_symmetry_space_group_name_H-M   'P 1'
_cell_length_a   5.70310206
_cell_length_b   5.35365551
_cell_length_c   5.80367474
_cell_angle_alpha   90.44278211
_cell_angle_beta   50.71255518
_cell_angle_gamma   114.46954788
_symmetry_Int_Tables_number   1
_chemical_formula_structural   MgAl2(CoO3)2
_chemical_formula_sum   'Mg1 Al2 Co2 O6'
_cell_volume   116.39623237
_cell_formula_units_Z   1
loop_
 _symmetry_equiv_pos_site_id
 _symmetry_equiv_pos_as_xyz
  1  'x, y, z'
loop_
 _atom_site_type_symbol
 _atom_site_label
 _atom_site_symmetry_multiplicity
 _atom_site_fract_x
 _atom_site_fract_y
 _atom_site_fract_z
 _atom_site_occupancy
  Mg  Mg0  1  0.91955897  0.75522374  0.34180721  1
  Al  Al1  1  0.19228430  0.39663713  0.86949388  1
  Al  Al2  1  0.55722629  0.48925919  0.08820337  1
  Co  Co3  1  0.38828829  0.96361352  0.50576565  1
  Co  Co4  1  0.73162368  0.11361228  0.70570963  1
  O  O5  1  0.88662856  0.79167642  0.71687173  1
  O  O6  1  0.74071304  0.25137735  0.03117170  1
  O  O7  1  0.46508303  0.62789263  0.40135146  1
  O  O8  1  0.54135741  0.31143218  0.62507864  1
  O  O9  1  0.27127182  0.74031923  0.92624950  1
  O  O10  1  0.12541062  0.22145433  0.21954622  1
