# generated using pymatgen
data_Na2ScTi(PO4)3
_symmetry_space_group_name_H-M   'P 1'
_cell_length_a   8.84739765
_cell_length_b   8.84739737
_cell_length_c   22.43822155
_cell_angle_alpha   90.14480591
_cell_angle_beta   89.85519410
_cell_angle_gamma   120.41192327
_symmetry_Int_Tables_number   1
_chemical_formula_structural   Na2ScTi(PO4)3
_chemical_formula_sum   'Na12 Sc6 Ti6 P18 O72'
_cell_volume   1514.71393423
_cell_formula_units_Z   6
loop_
 _symmetry_equiv_pos_site_id
 _symmetry_equiv_pos_as_xyz
  1  'x, y, z'
loop_
 _atom_site_type_symbol
 _atom_site_label
 _atom_site_symmetry_multiplicity
 _atom_site_fract_x
 _atom_site_fract_y
 _atom_site_fract_z
 _atom_site_occupancy
  Na  Na0  1  0.36474991  0.36147176  0.24988263  1
  Na  Na1  1  0.63852824  0.63525009  0.74988263  1
  Na  Na2  1  0.03141691  0.69480476  0.58321563  1
  Na  Na3  1  0.30519524  0.96858309  0.08321563  1
  Na  Na4  1  0.69808291  0.02813876  0.91654963  1
  Na  Na5  1  0.97186124  0.30191709  0.41654963  1
  Na  Na6  1  0.99954355  0.99893770  0.49937146  1
  Na  Na7  1  0.00106230  0.00045645  0.99937146  1
  Na  Na8  1  0.66621055  0.33227070  0.83270446  1
  Na  Na9  1  0.66772930  0.33378945  0.33270446  1
  Na  Na10  1  0.33287655  0.66560470  0.16603846  1
  Na  Na11  1  0.33439530  0.66712345  0.66603846  1
  Sc  Sc12  1  -0.00070447  0.99266830  0.35275080  1
  Sc  Sc13  1  0.00733170  0.00070447  0.85275080  1
  Sc  Sc14  1  0.66596253  0.32600130  0.68608380  1
  Sc  Sc15  1  0.67399870  0.33403747  0.18608380  1
  Sc  Sc16  1  0.33262853  0.65933530  0.01941780  1
  Sc  Sc17  1  0.34066470  0.66737147  0.51941780  1
  Ti  Ti18  1  0.00198537  0.00962102  0.64817386  1
  Ti  Ti19  1  0.99037898  0.99801463  0.14817386  1
  Ti  Ti20  1  0.66865237  0.34295402  0.98150686  1
  Ti  Ti21  1  0.65704598  0.33134763  0.48150686  1
  Ti  Ti22  1  0.33531837  0.67628802  0.31484086  1
  Ti  Ti23  1  0.32371198  0.66468163  0.81484086  1
  P  P24  1  0.28701225  0.99411815  0.24889123  1
  P  P25  1  0.70570680  0.71058349  0.25041458  1
  P  P26  1  0.00157659  0.29210778  0.25183004  1
  P  P27  1  0.28941651  0.29429320  0.75041458  1
  P  P28  1  0.00588185  0.71298775  0.74889123  1
  P  P29  1  0.70789222  0.99842341  0.75183004  1
  P  P30  1  0.95367925  0.32745115  0.58222423  1
  P  P31  1  0.37237380  0.04391649  0.58374758  1
  P  P32  1  0.66824359  0.62544078  0.58516304  1
  P  P33  1  0.95608351  0.62762620  0.08374758  1
  P  P34  1  0.67254885  0.04632075  0.08222423  1
  P  P35  1  0.37455922  0.33175641  0.08516304  1
  P  P36  1  0.62034525  0.66078515  0.91555823  1
  P  P37  1  0.03903980  0.37725049  0.91708158  1
  P  P38  1  0.33490959  0.95877478  0.91849704  1
  P  P39  1  0.62274951  0.96096020  0.41708158  1
  P  P40  1  0.33921485  0.37965475  0.41555823  1
  P  P41  1  0.04122522  0.66509041  0.41849704  1
  O  O42  1  0.20448311  0.02858199  0.30309964  1
  O  O43  1  0.81644022  0.79296168  0.30523126  1
  O  O44  1  0.97839663  0.18735791  0.30843390  1
  O  O45  1  0.20703832  0.18355978  0.80523126  1
  O  O46  1  0.97141801  0.79551689  0.80309964  1
  O  O47  1  0.81264209  0.02160337  0.80843390  1
  O  O48  1  0.80396528  0.96947699  0.69679357  1
  O  O49  1  0.17135355  0.19916951  0.69432580  1
  O  O50  1  0.03228760  0.82576699  0.69175438  1
  O  O51  1  0.80083049  0.82864645  0.19432580  1
  O  O52  1  0.03052301  0.19603472  0.19679357  1
  O  O53  1  0.17423301  0.96771240  0.19175438  1
  O  O54  1  0.87115011  0.36191499  0.63643264  1
  O  O55  1  0.48310722  0.12629468  0.63856426  1
  O  O56  1  0.64506363  0.52069091  0.64176690  1
  O  O57  1  0.87370532  0.51689278  0.13856426  1
  O  O58  1  0.63808501  0.12884989  0.13643264  1
  O  O59  1  0.47930909  0.35493637  0.14176690  1
  O  O60  1  0.47063228  0.30280999  0.03012657  1
  O  O61  1  0.83802055  0.53250251  0.02765880  1
  O  O62  1  0.69895460  0.15909999  0.02508738  1
  O  O63  1  0.46749749  0.16197945  0.52765880  1
  O  O64  1  0.69719001  0.52936772  0.53012657  1
  O  O65  1  0.84090001  0.30104540  0.52508738  1
  O  O66  1  0.53781611  0.69524899  0.96976664  1
  O  O67  1  0.14977322  0.45962868  0.97189826  1
  O  O68  1  0.31172963  0.85402491  0.97510090  1
  O  O69  1  0.54037132  0.85022678  0.47189826  1
  O  O70  1  0.30475101  0.46218389  0.46976664  1
  O  O71  1  0.14597509  0.68827037  0.47510090  1
  O  O72  1  0.13729828  0.63614399  0.36346057  1
  O  O73  1  0.50468655  0.86583651  0.36099280  1
  O  O74  1  0.36562060  0.49243399  0.35842138  1
  O  O75  1  0.13416349  0.49531345  0.86099280  1
  O  O76  1  0.36385601  0.86270172  0.86346057  1
  O  O77  1  0.50756601  0.63437940  0.85842138  1
  O  O78  1  0.01828961  0.82298223  0.41098267  1
  O  O79  1  0.80899684  0.99129444  0.41018709  1
  O  O80  1  0.17500375  0.19663566  0.40967392  1
  O  O81  1  0.00870556  0.19100316  0.91018709  1
  O  O82  1  0.17701777  0.98171039  0.91098267  1
  O  O83  1  0.80336434  0.82499625  0.90967392  1
  O  O84  1  0.96956066  0.16060403  0.59059285  1
  O  O85  1  0.18783067  0.02684215  0.58860508  1
  O  O86  1  0.84205074  0.80734690  0.58900523  1
  O  O87  1  0.97315785  0.81216933  0.08860508  1
  O  O88  1  0.83939597  0.03043934  0.09059285  1
  O  O89  1  0.19265310  0.15794926  0.08900523  1
  O  O90  1  0.68495661  0.15631523  0.74431567  1
  O  O91  1  0.47566384  0.32462744  0.74352009  1
  O  O92  1  0.84167075  0.52996866  0.74300692  1
  O  O93  1  0.67537256  0.52433616  0.24352009  1
  O  O94  1  0.84368477  0.31504339  0.24431567  1
  O  O95  1  0.47003134  0.15832925  0.24300692  1
  O  O96  1  0.63622766  0.49393703  0.92392585  1
  O  O97  1  0.85449767  0.36017515  0.92193808  1
  O  O98  1  0.50871774  0.14067990  0.92233823  1
  O  O99  1  0.63982485  0.14550233  0.42193808  1
  O  O100  1  0.50606297  0.36377234  0.42392585  1
  O  O101  1  0.85932010  0.49128226  0.42233823  1
  O  O102  1  0.35162261  0.48964923  0.07764967  1
  O  O103  1  0.14232984  0.65796144  0.07685409  1
  O  O104  1  0.50833675  0.86330266  0.07634092  1
  O  O105  1  0.34203856  0.85767016  0.57685409  1
  O  O106  1  0.51035077  0.64837739  0.57764967  1
  O  O107  1  0.13669734  0.49166325  0.57634092  1
  O  O108  1  0.30289366  0.82727103  0.25725985  1
  O  O109  1  0.52116367  0.69350915  0.25527208  1
  O  O110  1  0.17538374  0.47401390  0.25567223  1
  O  O111  1  0.30649085  0.47883633  0.75527208  1
  O  O112  1  0.17272897  0.69710634  0.75725985  1
  O  O113  1  0.52598610  0.82461626  0.75567223  1
