# generated using pymatgen
data_Na6Ca2Si3Sn2(SO8)3
_symmetry_space_group_name_H-M   'P 1'
_cell_length_a   9.26887104
_cell_length_b   9.29634574
_cell_length_c   22.86788460
_cell_angle_alpha   90.18000813
_cell_angle_beta   90.52688501
_cell_angle_gamma   119.78052267
_symmetry_Int_Tables_number   1
_chemical_formula_structural   Na6Ca2Si3Sn2(SO8)3
_chemical_formula_sum   'Na18 Ca6 Si9 Sn6 S9 O72'
_cell_volume   1710.08019567
_cell_formula_units_Z   3
loop_
 _symmetry_equiv_pos_site_id
 _symmetry_equiv_pos_as_xyz
  1  'x, y, z'
loop_
 _atom_site_type_symbol
 _atom_site_label
 _atom_site_symmetry_multiplicity
 _atom_site_fract_x
 _atom_site_fract_y
 _atom_site_fract_z
 _atom_site_occupancy
  Na  Na0  1  0.37202554  0.34951422  0.24560387  1
  Na  Na1  1  0.00435059  0.64250366  0.23624481  1
  Na  Na2  1  0.98699008  0.34686626  0.74171755  1
  Na  Na3  1  0.38472468  0.02614637  0.74448787  1
  Na  Na4  1  0.29663043  0.33327715  0.57887554  1
  Na  Na5  1  0.65494292  0.97882602  0.59255536  1
  Na  Na6  1  0.30173232  0.96305179  0.07210653  1
  Na  Na7  1  0.65562683  0.67764606  0.08425639  1
  Na  Na8  1  0.99221590  0.68586547  0.92151200  1
  Na  Na9  1  0.32447218  0.28245518  0.90963619  1
  Na  Na10  1  0.99104386  0.30618903  0.42833181  1
  Na  Na11  1  0.32470606  0.04121595  0.41379986  1
  Na  Na12  1  0.01149033  0.00201276  0.50520624  1
  Na  Na13  1  0.01392673  0.01123943  0.99890162  1
  Na  Na14  1  0.64939728  0.30896600  0.82666007  1
  Na  Na15  1  0.64321002  0.31900086  0.33244412  1
  Na  Na16  1  0.31140716  0.65014011  0.15666730  1
  Na  Na17  1  0.31802740  0.66642385  0.66160909  1
  Ca  Ca18  1  0.00323354  0.00113291  0.35075751  1
  Ca  Ca19  1  0.00118133  0.00246826  0.84955309  1
  Ca  Ca20  1  0.66599386  0.33967437  0.68501094  1
  Ca  Ca21  1  0.66309983  0.32417809  0.18291783  1
  Ca  Ca22  1  0.32210839  0.65976347  0.01834129  1
  Ca  Ca23  1  0.32241030  0.66312840  0.52031516  1
  Si  Si24  1  0.30458146  0.99140450  0.25577232  1
  Si  Si25  1  0.30026688  0.31054444  0.75578010  1
  Si  Si26  1  0.70267093  0.99541952  0.74779277  1
  Si  Si27  1  0.96046496  0.32899988  0.58496276  1
  Si  Si28  1  0.35681793  0.03276526  0.58830898  1
  Si  Si29  1  0.95951172  0.62930293  0.08632308  1
  Si  Si30  1  0.36607286  0.33151127  0.08731198  1
  Si  Si31  1  0.34423250  0.97040487  0.91947815  1
  Si  Si32  1  0.34499249  0.37208695  0.41848894  1
  Sn  Sn33  1  0.00607025  0.02484464  0.65020249  1
  Sn  Sn34  1  0.02213312  0.99479541  0.14592619  1
  Sn  Sn35  1  0.65640883  0.32393148  0.98664439  1
  Sn  Sn36  1  0.64781488  0.32832108  0.49141123  1
  Sn  Sn37  1  0.34228816  0.66625001  0.31795460  1
  Sn  Sn38  1  0.35629075  0.68842807  0.81159305  1
  S  S39  1  0.69849568  0.70630181  0.24886788  1
  S  S40  1  0.00602275  0.29911702  0.25155264  1
  S  S41  1  0.00920325  0.71044861  0.75171146  1
  S  S42  1  0.67942522  0.63985288  0.58256277  1
  S  S43  1  0.67854897  0.03812919  0.08295152  1
  S  S44  1  0.62848749  0.65780956  0.91872578  1
  S  S45  1  0.02896724  0.37342438  0.91527498  1
  S  S46  1  0.62969783  0.97114869  0.41863612  1
  S  S47  1  0.02647557  0.65562083  0.41496588  1
  O  O48  1  0.21380389  0.00710927  0.31238533  1
  O  O49  1  0.79504517  0.79610251  0.30009831  1
  O  O50  1  0.98894269  0.20977303  0.30571341  1
  O  O51  1  0.22222239  0.20156259  0.81304933  1
  O  O52  1  0.99205065  0.77907756  0.80712398  1
  O  O53  1  0.81232399  0.01829005  0.80328814  1
  O  O54  1  0.78472875  0.96350986  0.68621446  1
  O  O55  1  0.17569222  0.22729774  0.69538113  1
  O  O56  1  0.02984313  0.81966243  0.70078242  1
  O  O57  1  0.77233476  0.80138907  0.19349627  1
  O  O58  1  0.02152815  0.20961369  0.19919658  1
  O  O59  1  0.17892420  0.94968588  0.19490670  1
  O  O60  1  0.88000568  0.34872892  0.64285067  1
  O  O61  1  0.46549609  0.12268526  0.64457937  1
  O  O62  1  0.65253130  0.53617251  0.63283318  1
  O  O63  1  0.88001185  0.53663584  0.14587352  1
  O  O64  1  0.65200859  0.11377321  0.13433402  1
  O  O65  1  0.46001946  0.34478332  0.14765312  1
  O  O66  1  0.45062313  0.28980853  0.02844620  1
  O  O67  1  0.83794304  0.53390943  0.02579800  1
  O  O68  1  0.70374397  0.14131721  0.02912573  1
  O  O69  1  0.43368017  0.15474057  0.52662423  1
  O  O70  1  0.70125377  0.55912299  0.52729106  1
  O  O71  1  0.83835445  0.30359177  0.52263254  1
  O  O72  1  0.55420069  0.67628897  0.97213432  1
  O  O73  1  0.13405551  0.45249196  0.96670285  1
  O  O74  1  0.32342117  0.86737516  0.97717442  1
  O  O75  1  0.55278746  0.87700437  0.47075266  1
  O  O76  1  0.31808637  0.46005050  0.47304910  1
  O  O77  1  0.13771414  0.68773305  0.46464094  1
  O  O78  1  0.10505539  0.63030326  0.35958469  1
  O  O79  1  0.52184076  0.88852942  0.36434451  1
  O  O80  1  0.36848786  0.48224329  0.35463349  1
  O  O81  1  0.10582941  0.47560176  0.86177612  1
  O  O82  1  0.36049861  0.87470474  0.85829254  1
  O  O83  1  0.51912485  0.63288255  0.86615526  1
  O  O84  1  0.00020359  0.79838368  0.40936937  1
  O  O85  1  0.79891798  0.99774229  0.41187982  1
  O  O86  1  0.18034443  0.18767797  0.41370688  1
  O  O87  1  0.00564372  0.20565101  0.91135216  1
  O  O88  1  0.17947273  0.99138570  0.91623505  1
  O  O89  1  0.79839862  0.79745541  0.91272740  1
  O  O90  1  0.95626590  0.14407466  0.58241338  1
  O  O91  1  0.16991878  0.02168493  0.59092371  1
  O  O92  1  0.83266443  0.80478143  0.58603298  1
  O  O93  1  0.95369276  0.81189770  0.08446131  1
  O  O94  1  0.83122722  0.02108341  0.08826567  1
  O  O95  1  0.17896958  0.15374299  0.08626718  1
  O  O96  1  0.68335899  0.15899934  0.74741643  1
  O  O97  1  0.48172526  0.33248756  0.74933146  1
  O  O98  1  0.87070572  0.54125447  0.74511003  1
  O  O99  1  0.68727437  0.54149153  0.24780387  1
  O  O100  1  0.86885059  0.33453123  0.24680717  1
  O  O101  1  0.48199563  0.15779081  0.25111944  1
  O  O102  1  0.63772568  0.49844931  0.92005696  1
  O  O103  1  0.86354587  0.36983479  0.92100988  1
  O  O104  1  0.51521866  0.16434890  0.92121606  1
  O  O105  1  0.64008143  0.13915929  0.41964066  1
  O  O106  1  0.51529554  0.34796146  0.42172670  1
  O  O107  1  0.86531891  0.49660901  0.42014986  1
  O  O108  1  0.36265582  0.50134770  0.08017744  1
  O  O109  1  0.15163218  0.67941436  0.08197902  1
  O  O110  1  0.53328191  0.87051672  0.07593765  1
  O  O111  1  0.35774689  0.86198118  0.57965634  1
  O  O112  1  0.53358852  0.66261008  0.57542281  1
  O  O113  1  0.15167498  0.47164799  0.57968842  1
  O  O114  1  0.30524374  0.80628191  0.25766550  1
  O  O115  1  0.52252458  0.67909610  0.25100185  1
  O  O116  1  0.16936388  0.46605122  0.25244889  1
  O  O117  1  0.29096557  0.48908032  0.76024601  1
  O  O118  1  0.16986551  0.70215508  0.75277173  1
  O  O119  1  0.50893700  0.82993719  0.74835024  1
