# generated using pymatgen
data_Na10Ca3Hf5(PO4)12
_symmetry_space_group_name_H-M   'P 1'
_cell_length_a   18.24219264
_cell_length_b   9.13131319
_cell_length_c   22.88543709
_cell_angle_alpha   90.00896932
_cell_angle_beta   90.02365005
_cell_angle_gamma   120.20014247
_symmetry_Int_Tables_number   1
_chemical_formula_structural   Na10Ca3Hf5(PO4)12
_chemical_formula_sum   'Na30 Ca9 Hf15 P36 O144'
_cell_volume   3294.73610257
_cell_formula_units_Z   3
loop_
 _symmetry_equiv_pos_site_id
 _symmetry_equiv_pos_as_xyz
  1  'x, y, z'
loop_
 _atom_site_type_symbol
 _atom_site_label
 _atom_site_symmetry_multiplicity
 _atom_site_fract_x
 _atom_site_fract_y
 _atom_site_fract_z
 _atom_site_occupancy
  Na  Na0  1  0.32240064  0.01487293  0.24929098  1
  Na  Na1  1  0.68645347  0.35602909  0.24878209  1
  Na  Na2  1  0.31712550  0.62323190  0.74953321  1
  Na  Na3  1  0.81698425  0.62263553  0.74940890  1
  Na  Na4  1  0.15699563  0.34857765  0.57821552  1
  Na  Na5  1  0.65667809  0.34844998  0.57726584  1
  Na  Na6  1  0.01644623  0.68643291  0.57876525  1
  Na  Na7  1  0.51676769  0.68593511  0.57844575  1
  Na  Na8  1  0.32480521  0.96282923  0.57837477  1
  Na  Na9  1  0.82626886  0.96695626  0.57864768  1
  Na  Na10  1  0.15654362  0.96495283  0.07802754  1
  Na  Na11  1  0.65773794  0.96694021  0.07862988  1
  Na  Na12  1  0.32525226  0.68524740  0.07876776  1
  Na  Na13  1  0.82582235  0.68701785  0.07818855  1
  Na  Na14  1  0.01650164  0.34835156  0.07812352  1
  Na  Na15  1  0.51730901  0.34800935  0.07933133  1
  Na  Na16  1  0.66127498  0.02222921  0.41084934  1
  Na  Na17  1  0.35085636  0.67925791  0.40963371  1
  Na  Na18  1  0.00021898  0.99875781  0.49326507  1
  Na  Na19  1  0.49960453  0.01728155  0.48926760  1
  Na  Na20  1  0.99984078  0.99959098  0.99524034  1
  Na  Na21  1  0.49994298  0.99954079  0.99556516  1
  Na  Na22  1  0.33356513  0.31798443  0.83129668  1
  Na  Na23  1  0.83347963  0.31830659  0.83134730  1
  Na  Na24  1  0.33462923  0.34006400  0.32530616  1
  Na  Na25  1  0.84583365  0.34263711  0.32679077  1
  Na  Na26  1  0.16160784  0.65229233  0.16653324  1
  Na  Na27  1  0.66560932  0.68013915  0.16641836  1
  Na  Na28  1  0.16040468  0.66764129  0.66762226  1
  Na  Na29  1  0.66024186  0.66720476  0.66784874  1
  Ca  Ca30  1  0.50014755  0.00567743  0.34979889  1
  Ca  Ca31  1  0.33365046  0.32469300  0.69107291  1
  Ca  Ca32  1  0.83344265  0.32386833  0.69134128  1
  Ca  Ca33  1  0.33057402  0.33835659  0.18645138  1
  Ca  Ca34  1  0.84029458  0.33573689  0.18864414  1
  Ca  Ca35  1  0.16667711  0.66769852  0.00687252  1
  Ca  Ca36  1  0.66662761  0.66663173  0.00717479  1
  Ca  Ca37  1  0.16026574  0.65784985  0.50948575  1
  Ca  Ca38  1  0.67073948  0.66993889  0.51077812  1
  Hf  Hf39  1  0.00042231  0.99898198  0.35125722  1
  Hf  Hf40  1  0.00156475  0.00313872  0.85304571  1
  Hf  Hf41  1  0.50157194  0.00315642  0.85297850  1
  Hf  Hf42  1  0.00187204  0.00351288  0.65071389  1
  Hf  Hf43  1  0.50154875  0.00294781  0.65006482  1
  Hf  Hf44  1  0.99984289  0.99965662  0.15072001  1
  Hf  Hf45  1  0.50006083  0.99663471  0.15157146  1
  Hf  Hf46  1  0.33315233  0.33471650  0.97871890  1
  Hf  Hf47  1  0.83347181  0.33426688  0.97883924  1
  Hf  Hf48  1  0.33210442  0.32482795  0.47978503  1
  Hf  Hf49  1  0.83671649  0.34053735  0.47933979  1
  Hf  Hf50  1  0.16384369  0.66260277  0.31625381  1
  Hf  Hf51  1  0.66504135  0.66702925  0.31673250  1
  Hf  Hf52  1  0.16405157  0.66704405  0.81841099  1
  Hf  Hf53  1  0.66404299  0.66688259  0.81846951  1
  P  P54  1  0.14314811  0.98724483  0.25176569  1
  P  P55  1  0.64756042  0.99092435  0.25237971  1
  P  P56  1  0.34621058  0.70547655  0.25336638  1
  P  P57  1  0.85069929  0.71268470  0.25207960  1
  P  P58  1  0.00551435  0.29436681  0.25225778  1
  P  P59  1  0.50465399  0.30351292  0.24908179  1
  P  P60  1  0.14335642  0.30010475  0.75206847  1
  P  P61  1  0.64320306  0.29973602  0.75192822  1
  P  P62  1  0.00571035  0.71751684  0.75164771  1
  P  P63  1  0.50573372  0.71764269  0.75160299  1
  P  P64  1  0.35203556  0.98766644  0.75239754  1
  P  P65  1  0.85194114  0.98733911  0.75247533  1
  P  P66  1  0.47966108  0.32768165  0.58401418  1
  P  P67  1  0.97912880  0.32656389  0.58419015  1
  P  P68  1  0.18336730  0.03935895  0.58400542  1
  P  P69  1  0.68405791  0.04196626  0.58217641  1
  P  P70  1  0.33637324  0.63198745  0.58488201  1
  P  P71  1  0.83753060  0.63279251  0.58702459  1
  P  P72  1  0.47965696  0.63168281  0.08293708  1
  P  P73  1  0.98049242  0.63377194  0.08265093  1
  P  P74  1  0.33628319  0.03979843  0.08531879  1
  P  P75  1  0.83644952  0.04108160  0.08286208  1
  P  P76  1  0.18257006  0.32663222  0.08211909  1
  P  P77  1  0.68450520  0.32730781  0.08581301  1
  P  P78  1  0.31819730  0.66423272  0.91587798  1
  P  P79  1  0.81818041  0.66397720  0.91586067  1
  P  P80  1  0.01381894  0.36391666  0.91772110  1
  P  P81  1  0.51384625  0.36370283  0.91784897  1
  P  P82  1  0.16800166  0.97218205  0.91756346  1
  P  P83  1  0.66793041  0.97203454  0.91761582  1
  P  P84  1  0.31334148  0.96661815  0.41837688  1
  P  P85  1  0.81851956  0.97249832  0.41744404  1
  P  P86  1  0.16754243  0.36393719  0.41763217  1
  P  P87  1  0.67179468  0.36941094  0.41848429  1
  P  P88  1  0.01500270  0.66679664  0.41727134  1
  P  P89  1  0.51437773  0.65878853  0.41945341  1
  O  O90  1  0.09244785  0.99830623  0.30306076  1
  O  O91  1  0.60862463  0.01079623  0.30786464  1
  O  O92  1  0.39261355  0.78419358  0.30938831  1
  O  O93  1  0.90721262  0.81523397  0.30326719  1
  O  O94  1  0.49288079  0.19663724  0.30161177  1
  O  O95  1  0.00251562  0.18257867  0.30310897  1
  O  O96  1  0.09256126  0.18751943  0.80293069  1
  O  O97  1  0.59253648  0.18758111  0.80295303  1
  O  O98  1  0.50104536  0.82160461  0.80222893  1
  O  O99  1  0.00105803  0.82172411  0.80216803  1
  O  O100  1  0.40768385  0.99366973  0.80321243  1
  O  O101  1  0.90770381  0.99374799  0.80321311  1
  O  O102  1  0.39543746  0.96851579  0.69466903  1
  O  O103  1  0.89526974  0.96850265  0.69465484  1
  O  O104  1  0.09299101  0.21342257  0.69381973  1
  O  O105  1  0.59283174  0.21287476  0.69374856  1
  O  O106  1  0.01523174  0.82083170  0.69353982  1
  O  O107  1  0.51529752  0.82077461  0.69345719  1
  O  O108  1  0.39689513  0.82517663  0.19865875  1
  O  O109  1  0.89428848  0.81427318  0.19418690  1
  O  O110  1  0.01294624  0.20795860  0.19409150  1
  O  O111  1  0.51734062  0.21292697  0.19295068  1
  O  O112  1  0.09275581  0.97508390  0.19390895  1
  O  O113  1  0.58892040  0.97126679  0.19718834  1
  O  O114  1  0.44153959  0.35986642  0.63766457  1
  O  O115  1  0.94077812  0.35847213  0.63769553  1
  O  O116  1  0.23744720  0.11762471  0.63761415  1
  O  O117  1  0.73982560  0.12401284  0.63480953  1
  O  O118  1  0.32318114  0.52982084  0.64037876  1
  O  O119  1  0.82407858  0.53339663  0.64313066  1
  O  O120  1  0.44193472  0.52444578  0.13636555  1
  O  O121  1  0.94346448  0.52864689  0.13685039  1
  O  O122  1  0.32193340  0.10763492  0.14211223  1
  O  O123  1  0.82039949  0.11626616  0.13648614  1
  O  O124  1  0.23515231  0.35756854  0.13603881  1
  O  O125  1  0.73389091  0.35586188  0.14219099  1
  O  O126  1  0.22893009  0.30213122  0.02797917  1
  O  O127  1  0.73336831  0.30492064  0.03272361  1
  O  O128  1  0.42127889  0.54127632  0.02827154  1
  O  O129  1  0.92166873  0.54144075  0.02852366  1
  O  O130  1  0.34785397  0.16191432  0.03286815  1
  O  O131  1  0.84963912  0.15828799  0.02847587  1
  O  O132  1  0.22887872  0.15489598  0.52931020  1
  O  O133  1  0.72727385  0.15161857  0.52570513  1
  O  O134  1  0.34779323  0.53921042  0.53026194  1
  O  O135  1  0.84875445  0.53540963  0.53377214  1
  O  O136  1  0.42052063  0.29974411  0.52963168  1
  O  O137  1  0.92224813  0.30300695  0.52910892  1
  O  O138  1  0.28815235  0.69847899  0.97330039  1
  O  O139  1  0.78812406  0.69825301  0.97326501  1
  O  O140  1  0.05910737  0.41950700  0.97595592  1
  O  O141  1  0.55908572  0.41899137  0.97614943  1
  O  O142  1  0.15022178  0.88187900  0.97582185  1
  O  O143  1  0.65028300  0.88140464  0.97582840  1
  O  O144  1  0.27498224  0.86936736  0.47486828  1
  O  O145  1  0.79175652  0.88545708  0.47647690  1
  O  O146  1  0.14999997  0.41757565  0.47642467  1
  O  O147  1  0.66272497  0.44177948  0.47588825  1
  O  O148  1  0.05853557  0.70175458  0.47638279  1
  O  O149  1  0.56225709  0.68502245  0.47655310  1
  O  O150  1  0.06726174  0.64427533  0.36777734  1
  O  O151  1  0.56618228  0.64370564  0.36713832  1
  O  O152  1  0.25591050  0.86813535  0.36419767  1
  O  O153  1  0.75200057  0.86641892  0.36878195  1
  O  O154  1  0.18072754  0.49491916  0.36863708  1
  O  O155  1  0.67764656  0.48249469  0.36449752  1
  O  O156  1  0.06720476  0.49120398  0.86775142  1
  O  O157  1  0.56701236  0.49126487  0.86790571  1
  O  O158  1  0.17813323  0.86581792  0.86750774  1
  O  O159  1  0.67831950  0.86617774  0.86749189  1
  O  O160  1  0.25685762  0.64306131  0.86391947  1
  O  O161  1  0.75680598  0.64291290  0.86391544  1
  O  O162  1  0.00022928  0.81643861  0.40429444  1
  O  O163  1  0.50090645  0.81054316  0.41234850  1
  O  O164  1  0.40081585  0.98459710  0.41323573  1
  O  O165  1  0.90792869  0.00287882  0.40366309  1
  O  O166  1  0.09372544  0.18384422  0.40435441  1
  O  O167  1  0.59909974  0.18619040  0.41372888  1
  O  O168  1  0.00007800  0.18545093  0.90428011  1
  O  O169  1  0.50006234  0.18529100  0.90432939  1
  O  O170  1  0.09271611  0.00043336  0.90433125  1
  O  O171  1  0.59261946  0.00025797  0.90436138  1
  O  O172  1  0.40849762  0.81593603  0.90405069  1
  O  O173  1  0.90850499  0.81569263  0.90400858  1
  O  O174  1  0.48237863  0.15697704  0.58893712  1
  O  O175  1  0.98193712  0.15604286  0.58890798  1
  O  O176  1  0.09546944  0.03541977  0.58839586  1
  O  O177  1  0.59585357  0.03602003  0.58794827  1
  O  O178  1  0.42146497  0.81025791  0.58879086  1
  O  O179  1  0.92282180  0.81036313  0.58903099  1
  O  O180  1  0.48220947  0.80829761  0.08850971  1
  O  O181  1  0.98303898  0.81001462  0.08788568  1
  O  O182  1  0.42158279  0.03293772  0.08856965  1
  O  O183  1  0.92179305  0.03444228  0.08850639  1
  O  O184  1  0.09409668  0.15501102  0.08746488  1
  O  O185  1  0.59588697  0.15532417  0.08877304  1
  O  O186  1  0.34163805  0.14124968  0.75311921  1
  O  O187  1  0.84145971  0.14089571  0.75316167  1
  O  O188  1  0.23307965  0.32776671  0.75228708  1
  O  O189  1  0.73291576  0.32715983  0.75224654  1
  O  O190  1  0.42322559  0.54750620  0.75137601  1
  O  O191  1  0.92330408  0.54728804  0.75134575  1
  O  O192  1  0.32976733  0.52665618  0.24725931  1
  O  O193  1  0.83714139  0.53384116  0.25241370  1
  O  O194  1  0.42732714  0.32401069  0.24302512  1
  O  O195  1  0.92750790  0.31193725  0.25383519  1
  O  O196  1  0.23360414  0.13689038  0.25255400  1
  O  O197  1  0.73374173  0.15109275  0.24530516  1
  O  O198  1  0.32359998  0.49901678  0.91935279  1
  O  O199  1  0.82340381  0.49867921  0.91940637  1
  O  O200  1  0.42559346  0.35175801  0.92016466  1
  O  O201  1  0.92577460  0.35280990  0.91985218  1
  O  O202  1  0.25103375  0.14808532  0.91979030  1
  O  O203  1  0.75052080  0.14868667  0.92002937  1
  O  O204  1  0.31896214  0.14367069  0.42087652  1
  O  O205  1  0.81976241  0.14580702  0.41999839  1
  O  O206  1  0.25366535  0.36414696  0.42052405  1
  O  O207  1  0.75644101  0.36119180  0.42003037  1
  O  O208  1  0.42472295  0.49416269  0.42143367  1
  O  O209  1  0.92703637  0.49970052  0.42000455  1
  O  O210  1  0.16620737  0.47526407  0.07472501  1
  O  O211  1  0.66863369  0.47598709  0.07664469  1
  O  O212  1  0.07130415  0.66698692  0.07518471  1
  O  O213  1  0.57102661  0.66739265  0.07521293  1
  O  O214  1  0.26159980  0.85876368  0.07609862  1
  O  O215  1  0.76233207  0.85872770  0.07509903  1
  O  O216  1  0.16571080  0.85706494  0.57746877  1
  O  O217  1  0.66675260  0.85944108  0.57696689  1
  O  O218  1  0.26142659  0.66293735  0.57723695  1
  O  O219  1  0.76313419  0.66462785  0.57923848  1
  O  O220  1  0.07037055  0.47432135  0.57771663  1
  O  O221  1  0.57077940  0.47497376  0.57656793  1
  O  O222  1  0.14713117  0.82050965  0.25685123  1
  O  O223  1  0.65374249  0.82613521  0.25512375  1
  O  O224  1  0.26023866  0.70975072  0.25354362  1
  O  O225  1  0.76219580  0.69950257  0.25809588  1
  O  O226  1  0.08846718  0.46967737  0.25768802  1
  O  O227  1  0.59058483  0.47776187  0.25379672  1
  O  O228  1  0.14927220  0.47686768  0.75683666  1
  O  O229  1  0.64931363  0.47674712  0.75685088  1
  O  O230  1  0.08615641  0.70116117  0.75748023  1
  O  O231  1  0.58610247  0.70099799  0.75757526  1
  O  O232  1  0.26490303  0.81695472  0.75668868  1
  O  O233  1  0.76480459  0.81684611  0.75675201  1
