# generated using pymatgen
data_NaNb2Al2P5SO24
_symmetry_space_group_name_H-M   'P 1'
_cell_length_a   8.58329634
_cell_length_b   8.56756632
_cell_length_c   22.09110021
_cell_angle_alpha   89.97876689
_cell_angle_beta   90.16890258
_cell_angle_gamma   119.91073758
_symmetry_Int_Tables_number   1
_chemical_formula_structural   NaNb2Al2P5SO24
_chemical_formula_sum   'Na3 Nb6 Al6 P15 S3 O72'
_cell_volume   1408.14460092
_cell_formula_units_Z   3
loop_
 _symmetry_equiv_pos_site_id
 _symmetry_equiv_pos_as_xyz
  1  'x, y, z'
loop_
 _atom_site_type_symbol
 _atom_site_label
 _atom_site_symmetry_multiplicity
 _atom_site_fract_x
 _atom_site_fract_y
 _atom_site_fract_z
 _atom_site_occupancy
  Na  Na0  1  0.00001543  0.99931584  0.00541285  1
  Na  Na1  1  0.66644074  0.33322261  0.83258224  1
  Na  Na2  1  0.66756216  0.33076356  0.34028912  1
  Nb  Nb3  1  0.00503412  0.00723237  0.36148433  1
  Nb  Nb4  1  0.99881928  -0.00019877  0.85328211  1
  Nb  Nb5  1  0.66615284  0.32790173  0.19007518  1
  Nb  Nb6  1  0.33167129  0.66644280  0.02827898  1
  Nb  Nb7  1  0.33875030  0.66791701  0.52639250  1
  Nb  Nb8  1  0.33415324  0.66611078  0.80609825  1
  Al  Al9  1  0.99346264  0.99301977  0.64408076  1
  Al  Al10  1  0.01019946  0.00731143  0.14611719  1
  Al  Al11  1  0.66419483  0.33726108  0.68686487  1
  Al  Al12  1  0.66764904  0.33402334  0.98052157  1
  Al  Al13  1  0.67030959  0.34177585  0.47938182  1
  Al  Al14  1  0.32425834  0.66605092  0.31297380  1
  P  P15  1  0.27577403  0.98468252  0.24906760  1
  P  P16  1  0.01706316  0.29243810  0.24888121  1
  P  P17  1  0.28838432  0.27716987  0.74324421  1
  P  P18  1  0.98894983  0.70856413  0.74405351  1
  P  P19  1  0.71959518  0.01297536  0.74358151  1
  P  P20  1  0.68319097  0.61777827  0.58467061  1
  P  P21  1  0.94094324  0.62653533  0.08205096  1
  P  P22  1  0.68544775  0.05644029  0.08120829  1
  P  P23  1  0.37614484  0.31705224  0.08108166  1
  P  P24  1  0.61817794  0.65601772  0.91834745  1
  P  P25  1  0.03735007  0.38211010  0.91775290  1
  P  P26  1  0.34463627  0.96290679  0.91775499  1
  P  P27  1  0.60720459  0.95806994  0.41531433  1
  P  P28  1  0.35258920  0.39643047  0.41522184  1
  P  P29  1  0.04204558  0.65065717  0.41605281  1
  S  S30  1  0.70822926  0.72076117  0.24934018  1
  S  S31  1  0.94049749  0.32197107  0.58453936  1
  S  S32  1  0.38180958  0.06097395  0.58447115  1
  O  O33  1  0.19477112  0.02687890  0.30581461  1
  O  O34  1  0.82318792  0.79469223  0.30402030  1
  O  O35  1  0.97018038  0.16886186  0.30588596  1
  O  O36  1  0.20122617  0.16483420  0.80308708  1
  O  O37  1  0.96117774  0.79508549  0.80371557  1
  O  O38  1  0.83266647  0.04064338  0.80359407  1
  O  O39  1  0.80483099  0.97457785  0.69073018  1
  O  O40  1  0.16546427  0.19096652  0.69001811  1
  O  O41  1  0.02869604  0.83276859  0.69121461  1
  O  O42  1  0.79407312  0.82516096  0.19493257  1
  O  O43  1  0.03161957  0.19753159  0.19303875  1
  O  O44  1  0.16466312  0.96468973  0.19302787  1
  O  O45  1  0.86353018  0.35808085  0.63836072  1
  O  O46  1  0.49629108  0.13466532  0.63840934  1
  O  O47  1  0.63818199  0.49711217  0.64019873  1
  O  O48  1  0.86199837  0.50720863  0.13937073  1
  O  O49  1  0.64477907  0.13484558  0.13911752  1
  O  O50  1  0.49297616  0.35514558  0.13891894  1
  O  O51  1  0.46671984  0.29357208  0.02585810  1
  O  O52  1  0.82797811  0.53637850  0.02625668  1
  O  O53  1  0.70971673  0.17235190  0.02628578  1
  O  O54  1  0.46427688  0.16534470  0.52949464  1
  O  O55  1  0.70443367  0.52985710  0.52764450  1
  O  O56  1  0.83330106  0.29516082  0.52958388  1
  O  O57  1  0.53314995  0.69277981  0.97368274  1
  O  O58  1  0.15867486  0.46665758  0.97358532  1
  O  O59  1  0.30780602  0.84141808  0.97346891  1
  O  O60  1  0.52955472  0.84044841  0.47344359  1
  O  O61  1  0.31176693  0.47310069  0.47308459  1
  O  O62  1  0.16049100  0.69143093  0.47363116  1
  O  O63  1  0.12848011  0.62388888  0.36020191  1
  O  O64  1  0.49259161  0.86846836  0.35987028  1
  O  O65  1  0.37627068  0.50941590  0.35967571  1
  O  O66  1  0.12923326  0.49476101  0.86056508  1
  O  O67  1  0.36545391  0.87047277  0.86058904  1
  O  O68  1  0.50532594  0.63460599  0.86072593  1
  O  O69  1  0.02230088  0.82208123  0.40756262  1
  O  O70  1  0.79618689  0.97295623  0.40733962  1
  O  O71  1  0.17755006  0.20555080  0.40927385  1
  O  O72  1  0.02207797  0.19374911  0.91053393  1
  O  O73  1  0.17192678  0.97853911  0.91028421  1
  O  O74  1  0.80605089  0.82856530  0.91060698  1
  O  O75  1  0.96762296  0.16668785  0.59211039  1
  O  O76  1  0.20145659  0.03762207  0.59203817  1
  O  O77  1  0.84186001  0.80772191  0.59311212  1
  O  O78  1  0.96623137  0.81268579  0.09227799  1
  O  O79  1  0.84477159  0.03006478  0.09230369  1
  O  O80  1  0.18943743  0.15648872  0.09008145  1
  O  O81  1  0.69406515  0.17503145  0.73822329  1
  O  O82  1  0.47507720  0.30038634  0.73975665  1
  O  O83  1  0.82738189  0.52089229  0.73990603  1
  O  O84  1  0.68907669  0.53459540  0.24447756  1
  O  O85  1  0.84276957  0.31249384  0.24342850  1
  O  O86  1  0.46817934  0.16091726  0.24368539  1
  O  O87  1  0.63802670  0.49127935  0.92501180  1
  O  O88  1  0.85329132  0.36229763  0.92485172  1
  O  O89  1  0.50912545  0.14684797  0.92499661  1
  O  O90  1  0.63436502  0.14506427  0.42719182  1
  O  O91  1  0.51056348  0.36607391  0.42539183  1
  O  O92  1  0.85590928  0.48851802  0.42588088  1
  O  O93  1  0.35955456  0.49062009  0.07499563  1
  O  O94  1  0.13090086  0.64271435  0.07534611  1
  O  O95  1  0.51098759  0.86825838  0.07508948  1
  O  O96  1  0.36054850  0.87459929  0.57781258  1
  O  O97  1  0.50912593  0.63901009  0.57514736  1
  O  O98  1  0.12472259  0.48807275  0.57742349  1
  O  O99  1  0.30265969  0.82636752  0.26036462  1
  O  O100  1  0.53099499  0.69964042  0.25787919  1
  O  O101  1  0.17832338  0.47497415  0.26025972  1
  O  O102  1  0.30466797  0.46508651  0.75624029  1
  O  O103  1  0.16036796  0.69321462  0.75726518  1
  O  O104  1  0.53292988  0.84144950  0.75694161  1
