# generated using pymatgen
data_Na2Hf6Mg2Si3(S3O16)3
_symmetry_space_group_name_H-M   'P 1'
_cell_length_a   17.80012864
_cell_length_b   8.88335378
_cell_length_c   23.00651564
_cell_angle_alpha   90.06338099
_cell_angle_beta   89.97908436
_cell_angle_gamma   119.97168986
_symmetry_Int_Tables_number   1
_chemical_formula_structural   Na2Hf6Mg2Si3(S3O16)3
_chemical_formula_sum   'Na6 Hf18 Mg6 Si9 S27 O144'
_cell_volume   3151.41157191
_cell_formula_units_Z   3
loop_
 _symmetry_equiv_pos_site_id
 _symmetry_equiv_pos_as_xyz
  1  'x, y, z'
loop_
 _atom_site_type_symbol
 _atom_site_label
 _atom_site_symmetry_multiplicity
 _atom_site_fract_x
 _atom_site_fract_y
 _atom_site_fract_z
 _atom_site_occupancy
  Na  Na0  1  0.00153822  0.99499437  0.49598172  1
  Na  Na1  1  0.50030956  0.00624523  0.99873855  1
  Na  Na2  1  0.33111605  0.32751952  0.83650456  1
  Na  Na3  1  0.83417822  0.33359713  0.83578657  1
  Na  Na4  1  0.32903241  0.32788002  0.33346587  1
  Na  Na5  1  0.83246495  0.33608704  0.33490302  1
  Hf  Hf6  1  0.50882945  0.00892900  0.35433739  1
  Hf  Hf7  1  0.01006935  0.01032822  0.85560640  1
  Hf  Hf8  1  0.50186566  0.00078322  0.64166246  1
  Hf  Hf9  1  0.00849640  0.00291104  0.14515619  1
  Hf  Hf10  1  0.32639513  0.32734208  0.68718154  1
  Hf  Hf11  1  0.83238988  0.32550452  0.68331485  1
  Hf  Hf12  1  0.32601106  0.33119069  0.18722883  1
  Hf  Hf13  1  0.82894277  0.32526750  0.18824784  1
  Hf  Hf14  1  0.32883623  0.32308177  0.97826752  1
  Hf  Hf15  1  0.82904938  0.33416724  0.47609749  1
  Hf  Hf16  1  0.16524076  0.66995040  0.02400199  1
  Hf  Hf17  1  0.66161363  0.65439649  0.02239798  1
  Hf  Hf18  1  0.16227304  0.66750540  0.51796552  1
  Hf  Hf19  1  0.66579291  0.66387021  0.52097477  1
  Hf  Hf20  1  0.16040652  0.66958395  0.31030285  1
  Hf  Hf21  1  0.66771946  0.66444098  0.30955167  1
  Hf  Hf22  1  0.16694584  0.66824629  0.81143484  1
  Hf  Hf23  1  0.66225978  0.66133839  0.81468931  1
  Mg  Mg24  1  0.00644952  0.99439898  0.35294841  1
  Mg  Mg25  1  0.49940561  0.00647010  0.85532241  1
  Mg  Mg26  1  0.00341372  0.00751134  0.64966408  1
  Mg  Mg27  1  0.50211441  0.99701619  0.15071721  1
  Mg  Mg28  1  0.83391407  0.33353199  0.98373939  1
  Mg  Mg29  1  0.33170213  0.33126825  0.48035106  1
  Si  Si30  1  0.14371612  0.00185592  0.25282644  1
  Si  Si31  1  0.64234462  0.99613330  0.24708279  1
  Si  Si32  1  0.14220475  0.28912678  0.74719774  1
  Si  Si33  1  0.68879577  0.04004495  0.58191803  1
  Si  Si34  1  0.18775412  0.33538375  0.08224609  1
  Si  Si35  1  0.51924904  0.36641283  0.91673517  1
  Si  Si36  1  0.16682178  0.95384885  0.91692935  1
  Si  Si37  1  0.66541339  0.37793992  0.41636200  1
  Si  Si38  1  0.01941351  0.67398237  0.41560907  1
  S  S39  1  0.35621334  0.71397312  0.24945408  1
  S  S40  1  0.85691460  0.71357168  0.25038051  1
  S  S41  1  0.99932900  0.28499860  0.25110312  1
  S  S42  1  0.49953915  0.28699851  0.24876973  1
  S  S43  1  0.64423202  0.28736222  0.75122867  1
  S  S44  1  0.99925352  0.71172894  0.74905207  1
  S  S45  1  0.49984555  0.71348360  0.75111140  1
  S  S46  1  0.35709126  0.00048466  0.75067573  1
  S  S47  1  0.85558199  0.99830023  0.74936897  1
  S  S48  1  0.47609933  0.33352219  0.58248722  1
  S  S49  1  0.97899115  0.32878669  0.58273012  1
  S  S50  1  0.18693979  0.04390130  0.58146902  1
  S  S51  1  0.33257996  0.61985645  0.58191980  1
  S  S52  1  0.83595926  0.62890323  0.58370076  1
  S  S53  1  0.47795170  0.62803983  0.08331342  1
  S  S54  1  0.97544118  0.61945298  0.08232644  1
  S  S55  1  0.33651829  0.04397477  0.08390142  1
  S  S56  1  0.83361068  0.04506161  0.08179523  1
  S  S57  1  0.68741895  0.32822243  0.08199960  1
  S  S58  1  0.31303102  0.67059957  0.91668601  1
  S  S59  1  0.81152191  0.66429094  0.91705646  1
  S  S60  1  0.01951985  0.37769102  0.91709661  1
  S  S61  1  0.66712870  0.95981936  0.91711530  1
  S  S62  1  0.31183058  0.95919628  0.41669185  1
  S  S63  1  0.81334554  0.95508101  0.41624275  1
  S  S64  1  0.16741939  0.37462386  0.41663664  1
  S  S65  1  0.51945326  0.66161253  0.41668020  1
  O  O66  1  0.10369413  0.04135740  0.30711865  1
  O  O67  1  0.60180885  0.03274207  0.30663592  1
  O  O68  1  0.40950378  0.79086181  0.30268760  1
  O  O69  1  0.90782623  0.78685016  0.30227948  1
  O  O70  1  0.48364254  0.17913119  0.30220634  1
  O  O71  1  0.98206965  0.17999502  0.30275050  1
  O  O72  1  0.10174026  0.17085470  0.80649596  1
  O  O73  1  0.60599724  0.17982523  0.80182593  1
  O  O74  1  0.48546918  0.79027731  0.80224402  1
  O  O75  1  0.98267168  0.78694985  0.80224281  1
  O  O76  1  0.40991823  0.03033591  0.80167638  1
  O  O77  1  0.90811054  0.02880371  0.80260526  1
  O  O78  1  0.39652985  0.97392706  0.69739069  1
  O  O79  1  0.89258673  0.97084677  0.69749273  1
  O  O80  1  0.08575211  0.20208526  0.69186799  1
  O  O81  1  0.59079676  0.20946027  0.69797225  1
  O  O82  1  0.01245788  0.81399236  0.69738187  1
  O  O83  1  0.51301542  0.81970912  0.69776164  1
  O  O84  1  0.39346005  0.81684622  0.19763654  1
  O  O85  1  0.89364621  0.81698957  0.19699553  1
  O  O86  1  0.01136674  0.20661055  0.19745562  1
  O  O87  1  0.51355773  0.21114565  0.19736467  1
  O  O88  1  0.08543909  0.96806182  0.19339911  1
  O  O89  1  0.58601640  0.96946839  0.19167615  1
  O  O90  1  0.43693419  0.36092425  0.63581654  1
  O  O91  1  0.93895861  0.36314578  0.63566612  1
  O  O92  1  0.24345832  0.12603207  0.63489095  1
  O  O93  1  0.74842656  0.13475556  0.64017524  1
  O  O94  1  0.32034378  0.51315338  0.63559263  1
  O  O95  1  0.82052046  0.51509991  0.63599703  1
  O  O96  1  0.44118024  0.51676544  0.13523442  1
  O  O97  1  0.93655334  0.51203242  0.13509574  1
  O  O98  1  0.32079562  0.12464030  0.13544464  1
  O  O99  1  0.81881661  0.12676181  0.13487826  1
  O  O100  1  0.24953274  0.36682324  0.13887046  1
  O  O101  1  0.74354696  0.36178957  0.13470365  1
  O  O102  1  0.23477405  0.30378402  0.02717624  1
  O  O103  1  0.72920397  0.30536795  0.03056661  1
  O  O104  1  0.42508205  0.54300725  0.03096579  1
  O  O105  1  0.92299733  0.54054718  0.03063944  1
  O  O106  1  0.34983027  0.15255784  0.03129411  1
  O  O107  1  0.84729729  0.15372627  0.03092548  1
  O  O108  1  0.22963195  0.15409799  0.53128876  1
  O  O109  1  0.73481370  0.16742733  0.52807412  1
  O  O110  1  0.34908103  0.54333087  0.53154315  1
  O  O111  1  0.84968508  0.54596211  0.53204368  1
  O  O112  1  0.42298483  0.30269400  0.53139671  1
  O  O113  1  0.92430777  0.30604945  0.53180985  1
  O  O114  1  0.27142703  0.69541890  0.96874279  1
  O  O115  1  0.77075324  0.69448512  0.96879478  1
  O  O116  1  0.07506684  0.45522442  0.96864717  1
  O  O117  1  0.58379522  0.47278162  0.97236646  1
  O  O118  1  0.15254746  0.83351010  0.97310440  1
  O  O119  1  0.65486024  0.84868505  0.96890802  1
  O  O120  1  0.27111874  0.84799552  0.46959023  1
  O  O121  1  0.77074563  0.84749559  0.46908596  1
  O  O122  1  0.15631952  0.46431242  0.47001836  1
  O  O123  1  0.65259233  0.47013818  0.47370882  1
  O  O124  1  0.08218348  0.69466015  0.47301648  1
  O  O125  1  0.57533081  0.69486841  0.46900112  1
  O  O126  1  0.06708383  0.63287023  0.36150520  1
  O  O127  1  0.56145597  0.63631384  0.36485340  1
  O  O128  1  0.25675696  0.87547466  0.36494324  1
  O  O129  1  0.75700900  0.87682996  0.36461102  1
  O  O130  1  0.18309180  0.48623032  0.36501226  1
  O  O131  1  0.68161622  0.50018691  0.36019650  1
  O  O132  1  0.06124702  0.48590199  0.86452746  1
  O  O133  1  0.56865269  0.49921153  0.86035880  1
  O  O134  1  0.18155420  0.86422631  0.85953845  1
  O  O135  1  0.68225971  0.87652857  0.86396567  1
  O  O136  1  0.25750926  0.63816845  0.86420954  1
  O  O137  1  0.75578799  0.63787274  0.86411708  1
  O  O138  1  0.00908822  0.84101346  0.41309610  1
  O  O139  1  0.51041838  0.81721488  0.40875604  1
  O  O140  1  0.39688833  0.97268308  0.40851074  1
  O  O141  1  0.89894905  0.97599427  0.40946594  1
  O  O142  1  0.08802062  0.20730482  0.41214633  1
  O  O143  1  0.57967777  0.18860269  0.40845611  1
  O  O144  1  0.00991638  0.20341929  0.90810681  1
  O  O145  1  0.51278353  0.18246218  0.91007685  1
  O  O146  1  0.08048091  0.97052917  0.90819093  1
  O  O147  1  0.58898109  0.97111680  0.90880979  1
  O  O148  1  0.39899568  0.82186358  0.90884636  1
  O  O149  1  0.89619185  0.82043861  0.90735507  1
  O  O150  1  0.48652636  0.17823866  0.59343216  1
  O  O151  1  0.98667331  0.17469442  0.59037403  1
  O  O152  1  0.10064005  0.02073095  0.59017582  1
  O  O153  1  0.59419533  0.02287128  0.59566698  1
  O  O154  1  0.40986738  0.79538555  0.59362612  1
  O  O155  1  0.91200457  0.80014258  0.59210243  1
  O  O156  1  0.48769542  0.80031114  0.08914578  1
  O  O157  1  0.98463040  0.79281638  0.09101790  1
  O  O158  1  0.41249406  0.02367070  0.09094650  1
  O  O159  1  0.90875741  0.02299520  0.09265932  1
  O  O160  1  0.09257957  0.16711277  0.09250285  1
  O  O161  1  0.60038997  0.18056786  0.08965369  1
  O  O162  1  0.34689407  0.15751894  0.74113123  1
  O  O163  1  0.84607162  0.15951178  0.74322740  1
  O  O164  1  0.24240249  0.31299708  0.74181318  1
  O  O165  1  0.73367819  0.31254359  0.74239015  1
  O  O166  1  0.42375399  0.53522890  0.74118979  1
  O  O167  1  0.92096436  0.53234161  0.74304119  1
  O  O168  1  0.34881822  0.53716916  0.24358589  1
  O  O169  1  0.84581547  0.53478477  0.24088365  1
  O  O170  1  0.42303336  0.31186354  0.24301056  1
  O  O171  1  0.92292647  0.31286266  0.24095447  1
  O  O172  1  0.24330100  0.16841877  0.24174563  1
  O  O173  1  0.74225239  0.17214435  0.24178639  1
  O  O174  1  0.32100250  0.51256771  0.92332717  1
  O  O175  1  0.81969284  0.50848781  0.92353904  1
  O  O176  1  0.42810677  0.36439293  0.92419377  1
  O  O177  1  0.93295505  0.35864501  0.92382516  1
  O  O178  1  0.25154582  0.14726110  0.92218740  1
  O  O179  1  0.74565630  0.13204873  0.92349198  1
  O  O180  1  0.32064489  0.13151857  0.42495993  1
  O  O181  1  0.82037092  0.12845419  0.42404568  1
  O  O182  1  0.24560471  0.35874331  0.42542413  1
  O  O183  1  0.75065672  0.35578458  0.42267859  1
  O  O184  1  0.43352871  0.50765992  0.42474803  1
  O  O185  1  0.92813795  0.49221550  0.42568026  1
  O  O186  1  0.17792307  0.50418369  0.07202786  1
  O  O187  1  0.68204204  0.49162666  0.07544498  1
  O  O188  1  0.06297298  0.63988538  0.07564354  1
  O  O189  1  0.56630736  0.64610818  0.07434837  1
  O  O190  1  0.25734967  0.87239353  0.07517195  1
  O  O191  1  0.75525833  0.87146278  0.07386302  1
  O  O192  1  0.18206485  0.87147641  0.57576340  1
  O  O193  1  0.67694005  0.85014649  0.57370326  1
  O  O194  1  0.25657381  0.64199484  0.57547670  1
  O  O195  1  0.75661860  0.64135348  0.57601239  1
  O  O196  1  0.06583900  0.48754643  0.57590102  1
  O  O197  1  0.56385720  0.48619530  0.57606628  1
  O  O198  1  0.15804265  0.83368933  0.25824978  1
  O  O199  1  0.65766668  0.83460261  0.26241269  1
  O  O200  1  0.26835170  0.68649653  0.25960239  1
  O  O201  1  0.76836181  0.68939283  0.25709328  1
  O  O202  1  0.07747428  0.45922090  0.25705294  1
  O  O203  1  0.57668070  0.46172691  0.25878592  1
  O  O204  1  0.15799903  0.48182237  0.76203181  1
  O  O205  1  0.65589710  0.46477829  0.75784941  1
  O  O206  1  0.07553989  0.68912871  0.75861045  1
  O  O207  1  0.57846941  0.69531339  0.75750142  1
  O  O208  1  0.26940387  0.84742136  0.75685496  1
  O  O209  1  0.76718797  0.84740253  0.75936432  1
