# generated using pymatgen
data_Nb3Cl5O2
_symmetry_space_group_name_H-M   'P 1'
_cell_length_a   6.74894069
_cell_length_b   8.15280247
_cell_length_c   14.72144038
_cell_angle_alpha   90.00000000
_cell_angle_beta   90.00000000
_cell_angle_gamma   90.00000000
_symmetry_Int_Tables_number   1
_chemical_formula_structural   Nb3Cl5O2
_chemical_formula_sum   'Nb12 Cl20 O8'
_cell_volume   810.01458013
_cell_formula_units_Z   4
loop_
 _symmetry_equiv_pos_site_id
 _symmetry_equiv_pos_as_xyz
  1  'x, y, z'
loop_
 _atom_site_type_symbol
 _atom_site_label
 _atom_site_symmetry_multiplicity
 _atom_site_fract_x
 _atom_site_fract_y
 _atom_site_fract_z
 _atom_site_occupancy
  Nb  Nb0  1  0.71070821  0.73924819  0.26020241  1
  Nb  Nb1  1  0.71070821  0.26075181  0.73979759  1
  Nb  Nb2  1  0.78929179  0.23924819  0.23979759  1
  Nb  Nb3  1  0.78929179  0.76075181  0.76020241  1
  Nb  Nb4  1  0.28929179  0.26075181  0.73979759  1
  Nb  Nb5  1  0.28929179  0.73924819  0.26020241  1
  Nb  Nb6  1  0.21070821  0.76075181  0.76020241  1
  Nb  Nb7  1  0.21070821  0.23924819  0.23979759  1
  Nb  Nb8  1  0.50000000  0.47279043  0.63522387  1
  Nb  Nb9  1  0.50000000  0.52720957  0.36477613  1
  Nb  Nb10  1  -0.00000000  0.97279043  0.86477613  1
  Nb  Nb11  1  -0.00000000  0.02720957  0.13522387  1
  Cl  Cl12  1  0.50000000  0.17221767  0.61140699  1
  Cl  Cl13  1  0.50000000  0.82778233  0.38859301  1
  Cl  Cl14  1  -0.00000000  0.67221767  0.88859301  1
  Cl  Cl15  1  -0.00000000  0.32778233  0.11140699  1
  Cl  Cl16  1  0.23977142  0.00000000  0.00000000  1
  Cl  Cl17  1  0.26022858  0.50000000  0.50000000  1
  Cl  Cl18  1  0.76022858  0.00000000  0.00000000  1
  Cl  Cl19  1  0.73977142  0.50000000  0.50000000  1
  Cl  Cl20  1  -0.00000000  0.20902226  0.37276743  1
  Cl  Cl21  1  -0.00000000  0.79097774  0.62723257  1
  Cl  Cl22  1  0.50000000  0.70902226  0.12723257  1
  Cl  Cl23  1  0.50000000  0.29097774  0.87276743  1
  Cl  Cl24  1  0.50000000  0.20606426  0.35823601  1
  Cl  Cl25  1  0.50000000  0.79393574  0.64176399  1
  Cl  Cl26  1  -0.00000000  0.70606426  0.14176399  1
  Cl  Cl27  1  -0.00000000  0.29393574  0.85823601  1
  Cl  Cl28  1  0.50000000  0.27379949  0.13007578  1
  Cl  Cl29  1  0.50000000  0.72620051  0.86992422  1
  Cl  Cl30  1  -0.00000000  0.77379949  0.36992422  1
  Cl  Cl31  1  -0.00000000  0.22620051  0.63007578  1
  O  O32  1  0.72185272  0.49007832  0.27387219  1
  O  O33  1  0.72185272  0.50992168  0.72612781  1
  O  O34  1  0.77814728  0.99007832  0.22612781  1
  O  O35  1  0.77814728  0.00992168  0.77387219  1
  O  O36  1  0.27814728  0.50992168  0.72612781  1
  O  O37  1  0.27814728  0.49007832  0.27387219  1
  O  O38  1  0.22185272  0.00992168  0.77387219  1
  O  O39  1  0.22185272  0.99007832  0.22612781  1
