# generated using pymatgen
data_Na5Ta2In2Si3(PO8)3
_symmetry_space_group_name_H-M   'P 1'
_cell_length_a   9.03006212
_cell_length_b   9.04338756
_cell_length_c   22.75244698
_cell_angle_alpha   89.72233693
_cell_angle_beta   90.26751207
_cell_angle_gamma   119.68850791
_symmetry_Int_Tables_number   1
_chemical_formula_structural   Na5Ta2In2Si3(PO8)3
_chemical_formula_sum   'Na15 Ta6 In6 Si9 P9 O72'
_cell_volume   1614.09342108
_cell_formula_units_Z   3
loop_
 _symmetry_equiv_pos_site_id
 _symmetry_equiv_pos_as_xyz
  1  'x, y, z'
loop_
 _atom_site_type_symbol
 _atom_site_label
 _atom_site_symmetry_multiplicity
 _atom_site_fract_x
 _atom_site_fract_y
 _atom_site_fract_z
 _atom_site_occupancy
  Na  Na0  1  0.98973006  0.62722500  0.24639599  1
  Na  Na1  1  0.37068982  0.01072942  0.74664259  1
  Na  Na2  1  0.03826003  0.69641495  0.57983989  1
  Na  Na3  1  0.64891534  0.95996374  0.58130642  1
  Na  Na4  1  0.30213168  0.96055138  0.07970337  1
  Na  Na5  1  0.03757234  0.35057457  0.08311252  1
  Na  Na6  1  0.97792754  0.67703902  0.91653640  1
  Na  Na7  1  0.97037224  0.29615021  0.41193172  1
  Na  Na8  1  0.32588176  0.02305849  0.41647926  1
  Na  Na9  1  0.99237391  0.99118260  0.49464324  1
  Na  Na10  1  0.99668603  0.00164271  0.99379313  1
  Na  Na11  1  0.66999135  0.32766697  0.82875266  1
  Na  Na12  1  0.66440000  0.33094108  0.32760450  1
  Na  Na13  1  0.34636349  0.65982537  0.16273348  1
  Na  Na14  1  0.33887780  0.65203616  0.66221208  1
  Ta  Ta15  1  0.99867041  0.00071658  0.64696221  1
  Ta  Ta16  1  0.99883013  0.00084467  0.14666946  1
  Ta  Ta17  1  0.65816795  0.33023380  0.97949708  1
  Ta  Ta18  1  0.66546875  0.33812684  0.47987175  1
  Ta  Ta19  1  0.33386968  0.66632751  0.31323471  1
  Ta  Ta20  1  0.33999924  0.67021597  0.81298653  1
  In  In21  1  0.98966677  0.99475650  0.35029411  1
  In  In22  1  0.00034767  0.00763643  0.85141139  1
  In  In23  1  0.66818349  0.33419734  0.68522472  1
  In  In24  1  0.66602119  0.33165078  0.18470493  1
  In  In25  1  0.33577789  0.66593264  0.01665517  1
  In  In26  1  0.33851962  0.66778110  0.51724439  1
  Si  Si27  1  0.00127213  0.29536930  0.25132457  1
  Si  Si28  1  0.70810194  0.00131271  0.75079185  1
  Si  Si29  1  0.37172068  0.04312350  0.58470169  1
  Si  Si30  1  0.66489454  0.62431713  0.58524118  1
  Si  Si31  1  0.95593972  0.62678353  0.08370273  1
  Si  Si32  1  0.37512261  0.33521166  0.08487293  1
  Si  Si33  1  0.33547580  0.96244411  0.91706964  1
  Si  Si34  1  0.62837129  0.96117148  0.41808803  1
  Si  Si35  1  0.03872570  0.66606543  0.41739267  1
  P  P36  1  0.29269028  -0.00006660  0.25154807  1
  P  P37  1  0.70515555  0.70933590  0.24969382  1
  P  P38  1  0.28844812  0.29321951  0.75067683  1
  P  P39  1  0.00031660  0.70652959  0.75188791  1
  P  P40  1  0.95776132  0.33145651  0.58306087  1
  P  P41  1  0.66858390  0.04359181  0.08321258  1
  P  P42  1  0.62385353  0.66364000  0.91691322  1
  P  P43  1  0.03991601  0.37469782  0.91739187  1
  P  P44  1  0.33787283  0.37919379  0.41623170  1
  O  O45  1  0.21355333  0.02012080  0.30734434  1
  O  O46  1  0.81708001  0.78122684  0.30387883  1
  O  O47  1  0.97878373  0.19318082  0.31130758  1
  O  O48  1  0.21615120  0.18113468  0.80440913  1
  O  O49  1  0.98061195  0.78607465  0.80765429  1
  O  O50  1  0.81706115  0.02636492  0.80819269  1
  O  O51  1  0.80360003  0.97503435  0.69146906  1
  O  O52  1  0.16958729  0.19885718  0.69566401  1
  O  O53  1  0.03303192  0.83052034  0.69667222  1
  O  O54  1  0.80071131  0.82885413  0.19514015  1
  O  O55  1  0.02294417  0.19267821  0.19296911  1
  O  O56  1  0.16942433  0.96839530  0.19633325  1
  O  O57  1  0.88193039  0.36521690  0.63692807  1
  O  O58  1  0.48811038  0.11441439  0.64243921  1
  O  O59  1  0.64534031  0.51833219  0.64281223  1
  O  O60  1  0.88651789  0.51198464  0.14205797  1
  O  O61  1  0.63377371  0.11615768  0.13784785  1
  O  O62  1  0.48209106  0.35756770  0.14249945  1
  O  O63  1  0.47042273  0.29818075  0.02716133  1
  O  O64  1  0.83305454  0.52721776  0.02502634  1
  O  O65  1  0.70187365  0.16617617  0.02875774  1
  O  O66  1  0.47190640  0.16714813  0.52587915  1
  O  O67  1  0.70134180  0.53016708  0.52723940  1
  O  O68  1  0.83821909  0.29855201  0.52714439  1
  O  O69  1  0.54805974  0.69093458  0.97186730  1
  O  O70  1  0.13660504  0.44835161  0.97484338  1
  O  O71  1  0.29954297  0.85069776  0.97612432  1
  O  O72  1  0.55381083  0.85979215  0.47838595  1
  O  O73  1  0.29778762  0.44979892  0.47037518  1
  O  O74  1  0.14675477  0.69551048  0.47668811  1
  O  O75  1  0.13737363  0.63312757  0.35952408  1
  O  O76  1  0.49568922  0.85771350  0.36170865  1
  O  O77  1  0.36402359  0.49635244  0.36140528  1
  O  O78  1  0.13724527  0.49818837  0.86419603  1
  O  O79  1  0.35941128  0.85746348  0.85940295  1
  O  O80  1  0.50524558  0.63766388  0.86206302  1
  O  O81  1  0.02934205  0.83805998  0.40991259  1
  O  O82  1  0.82368769  0.00379758  0.41379040  1
  O  O83  1  0.18980065  0.19784881  0.40886823  1
  O  O84  1  0.01297302  0.19667899  0.91209282  1
  O  O85  1  0.16435251  0.97554809  0.90994566  1
  O  O86  1  0.80607438  0.80898522  0.91020603  1
  O  O87  1  0.96357261  0.16044656  0.58955826  1
  O  O88  1  0.18142945  0.02836200  0.59172023  1
  O  O89  1  0.84696935  0.81629921  0.59131368  1
  O  O90  1  0.97256564  0.81804708  0.09182473  1
  O  O91  1  0.83983057  0.03731897  0.08953645  1
  O  O92  1  0.18360671  0.15313577  0.09130568  1
  O  O93  1  0.66504652  0.15440041  0.74645183  1
  O  O94  1  0.46615097  0.31508153  0.74363394  1
  O  O95  1  0.85147821  0.52971539  0.74460787  1
  O  O96  1  0.68458901  0.53253424  0.24318424  1
  O  O97  1  0.84362747  0.33224456  0.24681809  1
  O  O98  1  0.47000714  0.14878269  0.24438207  1
  O  O99  1  0.63726695  0.49491823  0.92225093  1
  O  O100  1  0.86306394  0.37300520  0.92125760  1
  O  O101  1  0.51326840  0.14925265  0.92351977  1
  O  O102  1  0.63265830  0.14974555  0.42254030  1
  O  O103  1  0.50502179  0.36629166  0.42262633  1
  O  O104  1  0.85379675  0.48556408  0.42297169  1
  O  O105  1  0.33331586  0.48731038  0.07759946  1
  O  O106  1  0.14969407  0.65975524  0.07796450  1
  O  O107  1  0.51565750  0.86732186  0.07531933  1
  O  O108  1  0.33718844  0.84947532  0.57933446  1
  O  O109  1  0.50979124  0.66252431  0.57989258  1
  O  O110  1  0.13383645  0.48428997  0.57529722  1
  O  O111  1  0.29639461  0.82578323  0.25569185  1
  O  O112  1  0.52872869  0.70094149  0.25611071  1
  O  O113  1  0.17972804  0.48778603  0.25638297  1
  O  O114  1  0.29730812  0.47020989  0.75753020  1
  O  O115  1  0.17391418  0.70081231  0.75640068  1
  O  O116  1  0.51433909  0.82048715  0.75783170  1
