# generated using pymatgen
data_MgTi2(CoO3)2
_symmetry_space_group_name_H-M   'P 1'
_cell_length_a   5.78324139
_cell_length_b   5.78324126
_cell_length_c   5.78324154
_cell_angle_alpha   53.56277567
_cell_angle_beta   53.56277880
_cell_angle_gamma   53.56278101
_symmetry_Int_Tables_number   1
_chemical_formula_structural   MgTi2(CoO3)2
_chemical_formula_sum   'Mg1 Ti2 Co2 O6'
_cell_volume   116.17548193
_cell_formula_units_Z   1
loop_
 _symmetry_equiv_pos_site_id
 _symmetry_equiv_pos_as_xyz
  1  'x, y, z'
loop_
 _atom_site_type_symbol
 _atom_site_label
 _atom_site_symmetry_multiplicity
 _atom_site_fract_x
 _atom_site_fract_y
 _atom_site_fract_z
 _atom_site_occupancy
  Mg  Mg0  1  0.00000000  0.00000000  0.00000000  1
  Ti  Ti1  1  0.81313400  0.81313400  0.81313400  1
  Ti  Ti2  1  0.18686600  0.18686600  0.18686600  1
  Co  Co3  1  0.64295900  0.64295900  0.64295900  1
  Co  Co4  1  0.35704100  0.35704100  0.35704100  1
  O  O5  1  0.59008600  0.94434600  0.20224400  1
  O  O6  1  0.20224400  0.59008600  0.94434600  1
  O  O7  1  0.94434600  0.20224400  0.59008600  1
  O  O8  1  0.40991400  0.05565400  0.79775600  1
  O  O9  1  0.79775600  0.40991400  0.05565400  1
  O  O10  1  0.05565400  0.79775600  0.40991400  1
