# generated using pymatgen
data_MgFe4(OF)4
_symmetry_space_group_name_H-M   'P 1'
_cell_length_a   5.38146608
_cell_length_b   10.04469675
_cell_length_c   3.02972206
_cell_angle_alpha   90.43506781
_cell_angle_beta   90.44082155
_cell_angle_gamma   101.41173645
_symmetry_Int_Tables_number   1
_chemical_formula_structural   MgFe4(OF)4
_chemical_formula_sum   'Mg1 Fe4 O4 F4'
_cell_volume   160.52285532
_cell_formula_units_Z   1
loop_
 _symmetry_equiv_pos_site_id
 _symmetry_equiv_pos_as_xyz
  1  'x, y, z'
loop_
 _atom_site_type_symbol
 _atom_site_label
 _atom_site_symmetry_multiplicity
 _atom_site_fract_x
 _atom_site_fract_y
 _atom_site_fract_z
 _atom_site_occupancy
  Mg  Mg0  1  0.88699291  0.73788852  0.98060568  1
  Fe  Fe1  1  0.06549835  0.02242894  0.98444234  1
  Fe  Fe2  1  0.10735996  0.45326431  0.99318290  1
  Fe  Fe3  1  0.57395938  0.24947189  0.49126284  1
  Fe  Fe4  1  0.38050394  0.76419721  0.48165971  1
  O  O5  1  0.08528594  0.88946523  0.48200361  1
  O  O6  1  0.38010812  0.14058985  0.98711017  1
  O  O7  1  0.18411162  0.65067840  0.99380939  1
  O  O8  1  0.77232898  0.33669589  0.99581158  1
  F  F9  1  0.31976434  0.37960200  0.49345139  1
  F  F10  1  0.63532816  0.86728856  0.96798184  1
  F  F11  1  0.88947783  0.10854976  0.48484288  1
  F  F12  1  0.69150347  0.64988144  0.47633568  1
