# generated using pymatgen
data_Na3YAl(PO4)3
_symmetry_space_group_name_H-M   'P 1'
_cell_length_a   8.95742840
_cell_length_b   8.91770432
_cell_length_c   22.20602698
_cell_angle_alpha   90.00854203
_cell_angle_beta   89.96791202
_cell_angle_gamma   119.68744233
_symmetry_Int_Tables_number   1
_chemical_formula_structural   Na3YAl(PO4)3
_chemical_formula_sum   'Na18 Y6 Al6 P18 O72'
_cell_volume   1540.98022192
_cell_formula_units_Z   6
loop_
 _symmetry_equiv_pos_site_id
 _symmetry_equiv_pos_as_xyz
  1  'x, y, z'
loop_
 _atom_site_type_symbol
 _atom_site_label
 _atom_site_symmetry_multiplicity
 _atom_site_fract_x
 _atom_site_fract_y
 _atom_site_fract_z
 _atom_site_occupancy
  Na  Na0  1  0.00019851  0.00081871  0.50072637  1
  Na  Na1  1  0.99483115  0.99414071  0.00327860  1
  Na  Na2  1  0.61850274  0.30844184  0.83030491  1
  Na  Na3  1  0.69527274  0.38515308  0.33420887  1
  Na  Na4  1  0.32541014  0.66616212  0.17552262  1
  Na  Na5  1  0.33386862  0.66733212  0.66339786  1
  Na  Na6  1  0.64712943  0.00174494  0.25016355  1
  Na  Na7  1  0.35360692  0.35198110  0.24945611  1
  Na  Na8  1  0.64116573  0.63625743  0.74091118  1
  Na  Na9  1  0.99198888  0.35437905  0.73926157  1
  Na  Na10  1  0.04372265  0.70901320  0.58486158  1
  Na  Na11  1  0.66372784  0.96875097  0.58488398  1
  Na  Na12  1  0.30099236  0.96764183  0.09277730  1
  Na  Na13  1  0.01912758  0.33283416  0.09421583  1
  Na  Na14  1  0.97649393  0.66551630  0.91820869  1
  Na  Na15  1  0.69178991  0.02532607  0.91786740  1
  Na  Na16  1  0.97913221  0.30417090  0.41665220  1
  Na  Na17  1  0.33082173  0.03033657  0.41822311  1
  Y  Y18  1  0.98719944  0.98383831  0.34529188  1
  Y  Y19  1  0.01781869  0.01405188  0.84530431  1
  Y  Y20  1  0.66130824  0.34287290  0.98987301  1
  Y  Y21  1  0.34456903  0.66095958  0.02465164  1
  Y  Y22  1  0.33750082  0.65703371  0.52123310  1
  Y  Y23  1  0.33262223  0.67019433  0.80950036  1
  Al  Al24  1  0.00874978  0.00677999  0.64274919  1
  Al  Al25  1  0.99435347  0.99154587  0.15615302  1
  Al  Al26  1  0.66195810  0.33082292  0.67944389  1
  Al  Al27  1  0.66917063  0.33798159  0.18506804  1
  Al  Al28  1  0.66172410  0.33891441  0.48045682  1
  Al  Al29  1  0.32838630  0.66423249  0.31843161  1
  P  P30  1  0.30879274  0.99766406  0.25123187  1
  P  P31  1  0.69455098  0.69097744  0.24921999  1
  P  P32  1  0.99886024  0.31114616  0.25097865  1
  P  P33  1  0.30607529  0.29161168  0.73832123  1
  P  P34  1  0.99006657  0.69503784  0.73902445  1
  P  P35  1  0.70904589  0.01067040  0.73863413  1
  P  P36  1  0.93936797  0.31866157  0.58254109  1
  P  P37  1  0.37529115  0.06333390  0.58059528  1
  P  P38  1  0.68504642  0.62686834  0.58430929  1
  P  P39  1  0.95534757  0.64119023  0.08900904  1
  P  P40  1  0.68165011  0.04201087  0.09274614  1
  P  P41  1  0.35082693  0.31126604  0.09705747  1
  P  P42  1  0.64004946  0.66610807  0.90850620  1
  P  P43  1  0.02775422  0.36162593  0.91848282  1
  P  P44  1  0.33394296  0.96937444  0.92431607  1
  P  P45  1  0.62324814  0.96969609  0.41682152  1
  P  P46  1  0.34906247  0.37873841  0.41024265  1
  P  P47  1  0.03536965  0.65316987  0.42025049  1
  O  O48  1  0.24316412  0.04663616  0.30803663  1
  O  O49  1  0.78648753  0.73873411  0.31032514  1
  O  O50  1  0.94609425  0.19867537  0.30888344  1
  O  O51  1  0.24659342  0.20965614  0.80093246  1
  O  O52  1  0.97599879  0.77426051  0.79947492  1
  O  O53  1  0.80910765  0.04004333  0.79886351  1
  O  O54  1  0.81550357  0.99479911  0.68601624  1
  O  O55  1  0.17489506  0.18126916  0.68983680  1
  O  O56  1  0.00354914  0.81270360  0.68555174  1
  O  O57  1  0.80607505  0.83485568  0.20295381  1
  O  O58  1  0.03351435  0.20965769  0.20024972  1
  O  O59  1  0.18571827  0.97230827  0.19801814  1
  O  O60  1  0.84726892  0.33396493  0.63887418  1
  O  O61  1  0.49348992  0.16355944  0.63230036  1
  O  O62  1  0.67792718  0.52780390  0.64146590  1
  O  O63  1  0.83042231  0.49947985  0.13212159  1
  O  O64  1  0.66413558  0.15215636  0.14303933  1
  O  O65  1  0.46659127  0.31930953  0.14912586  1
  O  O66  1  0.42451046  0.28956083  0.03687402  1
  O  O67  1  0.88479867  0.59168943  0.02379158  1
  O  O68  1  0.70835792  0.13575964  0.03109198  1
  O  O69  1  0.45520718  0.15779352  0.51977833  1
  O  O70  1  0.69343789  0.52875571  0.52795473  1
  O  O71  1  0.82976807  0.29694808  0.52497228  1
  O  O72  1  0.53338363  0.67597975  0.96180052  1
  O  O73  1  0.12462644  0.45792564  0.97611816  1
  O  O74  1  0.33055500  0.88236128  0.98509968  1
  O  O75  1  0.54937206  0.87372926  0.47632880  1
  O  O76  1  0.30242950  0.45384748  0.46437443  1
  O  O77  1  0.12886360  0.68365608  0.48086207  1
  O  O78  1  0.13975288  0.62633726  0.36877759  1
  O  O79  1  0.50698221  0.86482296  0.36239700  1
  O  O80  1  0.36564791  0.48659120  0.35279321  1
  O  O81  1  0.12256266  0.45909802  0.86046780  1
  O  O82  1  0.34348732  0.86301374  0.87080608  1
  O  O83  1  0.55762030  0.66373612  0.84732594  1
  O  O84  1  0.02310363  0.81789668  0.41089738  1
  O  O85  1  0.80951316  0.00198971  0.41236126  1
  O  O86  1  0.19226613  0.19281930  0.40571568  1
  O  O87  1  0.00111546  0.17754710  0.92030027  1
  O  O88  1  0.16609367  0.97592276  0.92106774  1
  O  O89  1  0.81780551  0.83110624  0.91406144  1
  O  O90  1  0.96296004  0.15632896  0.58577094  1
  O  O91  1  0.18683100  0.03078990  0.58601650  1
  O  O92  1  0.84891165  0.81300355  0.58416255  1
  O  O93  1  0.98180989  0.82259691  0.10159933  1
  O  O94  1  0.84341032  0.02561048  0.10233591  1
  O  O95  1  0.16911285  0.14980954  0.10213920  1
  O  O96  1  0.68090553  0.16808031  0.73311946  1
  O  O97  1  0.49198785  0.32375850  0.73153506  1
  O  O98  1  0.82786365  0.51098710  0.73681168  1
  O  O99  1  0.66163098  0.50680441  0.23461305  1
  O  O100  1  0.84606439  0.34089111  0.23633454  1
  O  O101  1  0.49577049  0.15162498  0.24083493  1
  O  O102  1  0.66181377  0.50639579  0.91229582  1
  O  O103  1  0.84936459  0.35010839  0.91717612  1
  O  O104  1  0.49840403  0.14651621  0.91949742  1
  O  O105  1  0.63058810  0.14904261  0.41905558  1
  O  O106  1  0.51613930  0.37016885  0.42009728  1
  O  O107  1  0.85705866  0.48558770  0.42348756  1
  O  O108  1  0.32775054  0.47266705  0.09710316  1
  O  O109  1  0.13487386  0.65105812  0.09341112  1
  O  O110  1  0.51413883  0.86480830  0.09377523  1
  O  O111  1  0.35671579  0.87843274  0.58205162  1
  O  O112  1  0.52926378  0.65861309  0.58574334  1
  O  O113  1  0.11774911  0.48472102  0.58276542  1
  O  O114  1  0.32114234  0.83083055  0.26162324  1
  O  O115  1  0.51695243  0.68524764  0.25356647  1
  O  O116  1  0.16943305  0.48404267  0.26032443  1
  O  O117  1  0.31685158  0.47211301  0.73767549  1
  O  O118  1  0.14825455  0.66763066  0.73836251  1
  O  O119  1  0.53565673  0.83988848  0.73926030  1
