# generated using pymatgen
data_Na6NbIn3Si2(PO6)4
_symmetry_space_group_name_H-M   'P 1'
_cell_length_a   9.16162429
_cell_length_b   9.17428635
_cell_length_c   22.54680504
_cell_angle_alpha   90.00686908
_cell_angle_beta   89.94995487
_cell_angle_gamma   120.20011542
_symmetry_Int_Tables_number   1
_chemical_formula_structural   Na6NbIn3Si2(PO6)4
_chemical_formula_sum   'Na18 Nb3 In9 Si6 P12 O72'
_cell_volume   1637.87564682
_cell_formula_units_Z   3
loop_
 _symmetry_equiv_pos_site_id
 _symmetry_equiv_pos_as_xyz
  1  'x, y, z'
loop_
 _atom_site_type_symbol
 _atom_site_label
 _atom_site_symmetry_multiplicity
 _atom_site_fract_x
 _atom_site_fract_y
 _atom_site_fract_z
 _atom_site_occupancy
  Na  Na0  1  0.99592182  0.98613131  0.50366726  1
  Na  Na1  1  0.97132818  0.98785637  0.99372439  1
  Na  Na2  1  0.66142877  0.33563145  0.82695644  1
  Na  Na3  1  0.65996951  0.33731988  0.32683639  1
  Na  Na4  1  0.33411686  0.65222368  0.16153508  1
  Na  Na5  1  0.33198464  0.66435032  0.66575531  1
  Na  Na6  1  0.64907870  0.01213697  0.24487165  1
  Na  Na7  1  0.99766442  0.35045369  0.74560885  1
  Na  Na8  1  0.36122501  0.00815539  0.75123213  1
  Na  Na9  1  0.30055609  0.33297420  0.58930181  1
  Na  Na10  1  0.66642000  0.96668048  0.58424346  1
  Na  Na11  1  0.29151769  0.95826149  0.08278878  1
  Na  Na12  1  0.03989530  0.33820635  0.08009140  1
  Na  Na13  1  0.98443885  0.68484423  0.91561003  1
  Na  Na14  1  0.31553051  0.28821120  0.91376718  1
  Na  Na15  1  0.95986692  0.28892593  0.41600668  1
  Na  Na16  1  0.33430396  0.03970776  0.41160505  1
  Na  Na17  1  0.70390289  0.67671427  0.41848823  1
  Nb  Nb18  1  0.66659979  0.33202260  0.97701592  1
  Nb  Nb19  1  0.33199292  0.67145978  0.31217551  1
  Nb  Nb20  1  0.33941167  0.66363340  0.81851525  1
  In  In21  1  0.00290232  0.00138464  0.34516815  1
  In  In22  1  0.99621355  0.99931137  0.84962023  1
  In  In23  1  0.99824109  0.99491513  0.65351593  1
  In  In24  1  0.99795723  0.99187070  0.14962299  1
  In  In25  1  0.66946494  0.34348542  0.68231535  1
  In  In26  1  0.66202974  0.33877836  0.18578382  1
  In  In27  1  0.66752092  0.33410820  0.48269115  1
  In  In28  1  0.34281051  0.66982404  0.01537082  1
  In  In29  1  0.33161595  0.66935842  0.51734146  1
  Si  Si30  1  0.30043706  0.00282235  0.24995116  1
  Si  Si31  1  0.30180341  0.30275014  0.74999790  1
  Si  Si32  1  0.63296227  0.66844320  0.91987517  1
  Si  Si33  1  0.03706213  0.37050527  0.91993777  1
  Si  Si34  1  0.33455978  0.95946012  0.91947568  1
  Si  Si35  1  0.63254880  0.96323631  0.41768783  1
  P  P36  1  0.69768630  0.70170694  0.25327701  1
  P  P37  1  0.00321585  0.30231993  0.24930965  1
  P  P38  1  0.00669598  0.69897739  0.75287069  1
  P  P39  1  0.69577436  0.99530127  0.74770439  1
  P  P40  1  0.96684888  0.33089644  0.58321207  1
  P  P41  1  0.36561431  0.03430427  0.58322098  1
  P  P42  1  0.66791404  0.63545818  0.57987755  1
  P  P43  1  0.95714371  0.62490575  0.08242796  1
  P  P44  1  0.66826297  0.04329968  0.08518072  1
  P  P45  1  0.37192946  0.33355390  0.08248525  1
  P  P46  1  0.33190182  0.37557955  0.41762762  1
  P  P47  1  0.04066530  0.66709760  0.41608933  1
  O  O48  1  0.22284973  0.02640404  0.31161746  1
  O  O49  1  0.79189388  0.77552355  0.31212156  1
  O  O50  1  0.96714575  0.19078509  0.30542582  1
  O  O51  1  0.21744667  0.18537703  0.80799389  1
  O  O52  1  0.97910031  0.77141030  0.81000957  1
  O  O53  1  0.81578113  0.02751454  0.79924395  1
  O  O54  1  0.76217765  0.96414587  0.68853933  1
  O  O55  1  0.18040179  0.22922014  0.69093100  1
  O  O56  1  0.03873805  0.81434890  0.69865350  1
  O  O57  1  0.77508659  0.82741180  0.20131701  1
  O  O58  1  0.03292483  0.22421132  0.19322689  1
  O  O59  1  0.19013997  0.96749903  0.18987404  1
  O  O60  1  0.88132935  0.34684679  0.63984784  1
  O  O61  1  0.47731081  0.12089950  0.63807374  1
  O  O62  1  0.64118222  0.51797986  0.63210275  1
  O  O63  1  0.87220876  0.51563110  0.13717540  1
  O  O64  1  0.64957625  0.12049648  0.14341888  1
  O  O65  1  0.47159706  0.35029455  0.13878583  1
  O  O66  1  0.47245861  0.32402688  0.02657633  1
  O  O67  1  0.85093411  0.52784004  0.02547995  1
  O  O68  1  0.68038323  0.16353173  0.03199538  1
  O  O69  1  0.44490605  0.13993436  0.52537265  1
  O  O70  1  0.68876493  0.56190614  0.52001795  1
  O  O71  1  0.86352720  0.31166130  0.52573889  1
  O  O72  1  0.56001179  0.70242529  0.97884107  1
  O  O73  1  0.14437094  0.44627836  0.97996735  1
  O  O74  1  0.29282676  0.84925711  0.97933958  1
  O  O75  1  0.55720341  0.85207031  0.47764048  1
  O  O76  1  0.30189401  0.44362318  0.47621385  1
  O  O77  1  0.14553381  0.69635499  0.47219923  1
  O  O78  1  0.13813414  0.64850735  0.36192613  1
  O  O79  1  0.50263345  0.85249489  0.36122510  1
  O  O80  1  0.34423041  0.49275843  0.36540231  1
  O  O81  1  0.13869470  0.50350244  0.86313279  1
  O  O82  1  0.36196297  0.86227310  0.86179033  1
  O  O83  1  0.50031170  0.63621331  0.86337444  1
  O  O84  1  0.01767154  0.82208751  0.41049362  1
  O  O85  1  0.82183807  0.98815156  0.41054394  1
  O  O86  1  0.17815690  0.19532806  0.41131173  1
  O  O87  1  0.01513595  0.18772543  0.91043764  1
  O  O88  1  0.17863146  0.99241475  0.91092437  1
  O  O89  1  0.82475153  0.81253205  0.90929080  1
  O  O90  1  0.97764655  0.16607809  0.58509202  1
  O  O91  1  0.19068226  0.02162072  0.58809280  1
  O  O92  1  0.82178603  0.81633080  0.58613228  1
  O  O93  1  0.97178994  0.80044877  0.08224987  1
  O  O94  1  0.83688594  0.04167997  0.08358514  1
  O  O95  1  0.19854760  0.16458868  0.08092650  1
  O  O96  1  0.67483674  0.15362354  0.74453245  1
  O  O97  1  0.48625609  0.31714758  0.74485450  1
  O  O98  1  0.86159405  0.51353515  0.74608684  1
  O  O99  1  0.67491035  0.52594645  0.24612874  1
  O  O100  1  0.84897733  0.32659887  0.24497435  1
  O  O101  1  0.49825019  0.15259293  0.24793020  1
  O  O102  1  0.63102251  0.48424258  0.92305261  1
  O  O103  1  0.85474747  0.37007621  0.92320102  1
  O  O104  1  0.50945230  0.14807416  0.92536030  1
  O  O105  1  0.63758700  0.14537913  0.41667936  1
  O  O106  1  0.49977280  0.37098693  0.41691899  1
  O  O107  1  0.86628482  0.50167058  0.41666483  1
  O  O108  1  0.33941182  0.48321064  0.08070678  1
  O  O109  1  0.13602741  0.64423415  0.08045193  1
  O  O110  1  0.50585886  0.86976923  0.08038428  1
  O  O111  1  0.35449155  0.86005847  0.58050966  1
  O  O112  1  0.50387331  0.64840359  0.58040746  1
  O  O113  1  0.14953400  0.48418580  0.58110391  1
  O  O114  1  0.31876480  0.82700887  0.25859596  1
  O  O115  1  0.51562414  0.68161082  0.25944504  1
  O  O116  1  0.16551752  0.47861885  0.25931889  1
  O  O117  1  0.31357810  0.49006722  0.75943835  1
  O  O118  1  0.17420796  0.68979840  0.75732891  1
  O  O119  1  0.51401794  0.84002609  0.75748322  1
