# generated using pymatgen
data_Na6Si5Sn4SO24
_symmetry_space_group_name_H-M   'P 1'
_cell_length_a   9.05200771
_cell_length_b   9.05112815
_cell_length_c   22.68085424
_cell_angle_alpha   90.11797824
_cell_angle_beta   89.49295310
_cell_angle_gamma   119.98828395
_symmetry_Int_Tables_number   1
_chemical_formula_structural   Na6Si5Sn4SO24
_chemical_formula_sum   'Na18 Si15 Sn12 S3 O72'
_cell_volume   1609.42337251
_cell_formula_units_Z   3
loop_
 _symmetry_equiv_pos_site_id
 _symmetry_equiv_pos_as_xyz
  1  'x, y, z'
loop_
 _atom_site_type_symbol
 _atom_site_label
 _atom_site_symmetry_multiplicity
 _atom_site_fract_x
 _atom_site_fract_y
 _atom_site_fract_z
 _atom_site_occupancy
  Na  Na0  1  0.63681032  0.00095452  0.25217550  1
  Na  Na1  1  0.36452516  0.36510773  0.24722893  1
  Na  Na2  1  0.00001762  0.63498586  0.25051734  1
  Na  Na3  1  0.63513987  0.63429892  0.74755117  1
  Na  Na4  1  0.99801947  0.36526856  0.75021764  1
  Na  Na5  1  0.36752067  0.00307433  0.75076432  1
  Na  Na6  1  0.30099684  0.33233249  0.58558078  1
  Na  Na7  1  0.03158014  0.70060478  0.58311507  1
  Na  Na8  1  0.66956884  0.96835082  0.58295512  1
  Na  Na9  1  0.03878253  0.33714647  0.08531007  1
  Na  Na10  1  0.97580004  0.66674673  0.91728004  1
  Na  Na11  1  0.33324459  0.02548407  0.41667211  1
  Na  Na12  1  0.98503875  0.99071769  0.49848592  1
  Na  Na13  1  0.01738262  0.00684208  0.00009412  1
  Na  Na14  1  0.66023532  0.31806610  0.83426224  1
  Na  Na15  1  0.68188880  0.33978725  0.33540250  1
  Na  Na16  1  0.33372431  0.66639938  0.16531354  1
  Na  Na17  1  0.33403604  0.66749157  0.66671901  1
  Si  Si18  1  0.29350955  0.00235203  0.25176698  1
  Si  Si19  1  0.70799945  0.71025286  0.24896826  1
  Si  Si20  1  0.99926113  0.28819988  0.24919167  1
  Si  Si21  1  0.29572183  0.29551790  0.74896520  1
  Si  Si22  1  0.99750594  0.70965647  0.75088933  1
  Si  Si23  1  0.70926989  0.99919934  0.75102208  1
  Si  Si24  1  0.96209492  0.33257621  0.58406247  1
  Si  Si25  1  0.37669656  0.04596044  0.58270117  1
  Si  Si26  1  0.66563959  0.62357004  0.58260293  1
  Si  Si27  1  0.95488754  0.62844819  0.08214462  1
  Si  Si28  1  0.37419216  0.33557432  0.08292132  1
  Si  Si29  1  0.03504158  0.36582489  0.91698713  1
  Si  Si30  1  0.33626390  0.96241441  0.91696823  1
  Si  Si31  1  0.63101583  0.96260331  0.41675954  1
  Si  Si32  1  0.03583395  0.66538743  0.41654105  1
  Sn  Sn33  1  0.98703972  0.98845591  0.35126102  1
  Sn  Sn34  1  0.01206720  0.01252235  0.85176458  1
  Sn  Sn35  1  0.99984407  0.00046227  0.64861382  1
  Sn  Sn36  1  0.00998164  0.99540331  0.14844355  1
  Sn  Sn37  1  0.66909756  0.33514661  0.68473926  1
  Sn  Sn38  1  0.66615172  0.34202323  0.18527082  1
  Sn  Sn39  1  0.66038642  0.32833624  0.98100822  1
  Sn  Sn40  1  0.68140404  0.33447664  0.48201453  1
  Sn  Sn41  1  0.31642397  0.65668176  0.01850750  1
  Sn  Sn42  1  0.33642936  0.67683217  0.51877984  1
  Sn  Sn43  1  0.33023010  0.67193971  0.31451860  1
  Sn  Sn44  1  0.32571751  0.67002787  0.81473276  1
  S  S45  1  0.66503158  0.03675424  0.08370934  1
  S  S46  1  0.62476305  0.66834169  0.91672268  1
  S  S47  1  0.33333991  0.37321206  0.41660022  1
  O  O48  1  0.21736332  0.04780227  0.31059364  1
  O  O49  1  0.83083601  0.78181564  0.30602495  1
  O  O50  1  0.95935005  0.16510845  0.30619937  1
  O  O51  1  0.21799337  0.16894979  0.80519844  1
  O  O52  1  0.95673944  0.78884830  0.80965974  1
  O  O53  1  0.83517078  0.03954268  0.80655945  1
  O  O54  1  0.78216101  0.95666824  0.69054232  1
  O  O55  1  0.17581758  0.22134270  0.69030193  1
  O  O56  1  0.04030470  0.82867145  0.69182465  1
  O  O57  1  0.78719069  0.83786759  0.19242372  1
  O  O58  1  0.03773379  0.21147176  0.18919849  1
  O  O59  1  0.16909615  0.95383120  0.19547599  1
  O  O60  1  0.88853054  0.37987183  0.64322407  1
  O  O61  1  0.49586357  0.12258804  0.64128897  1
  O  O62  1  0.62369642  0.50826429  0.64281903  1
  O  O63  1  0.87837453  0.50205944  0.14058427  1
  O  O64  1  0.63451188  0.11144331  0.13812999  1
  O  O65  1  0.48153039  0.36327047  0.14388738  1
  O  O66  1  0.46028394  0.29766221  0.02626215  1
  O  O67  1  0.84300745  0.53858480  0.02286386  1
  O  O68  1  0.69816404  0.14956602  0.03135520  1
  O  O69  1  0.45603499  0.16594576  0.52396729  1
  O  O70  1  0.70628025  0.53785572  0.52656392  1
  O  O71  1  0.83621888  0.28405594  0.52832091  1
  O  O72  1  0.54275265  0.69307346  0.96952280  1
  O  O73  1  0.15101528  0.44721369  0.97569439  1
  O  O74  1  0.30035616  0.83515111  0.97334249  1
  O  O75  1  0.54742970  0.84550968  0.47618532  1
  O  O76  1  0.30725687  0.45282526  0.47048367  1
  O  O77  1  0.15712538  0.70262203  0.47510697  1
  O  O78  1  0.11919543  0.63113106  0.35705732  1
  O  O79  1  0.50953397  0.87850587  0.35830065  1
  O  O80  1  0.35927304  0.47848932  0.36278622  1
  O  O81  1  0.11789445  0.48980809  0.85829959  1
  O  O82  1  0.37034679  0.88335688  0.85628727  1
  O  O83  1  0.52233069  0.64097345  0.86243245  1
  O  O84  1  0.03929313  0.84972137  0.41172096  1
  O  O85  1  0.82087388  0.98520845  0.41289357  1
  O  O86  1  0.18011261  0.20224844  0.41241480  1
  O  O87  1  0.01291340  0.17651444  0.91272776  1
  O  O88  1  0.15256070  0.96047466  0.91230972  1
  O  O89  1  0.79704691  0.81933151  0.91227274  1
  O  O90  1  0.98049615  0.16241380  0.58923473  1
  O  O91  1  0.18643770  0.02503582  0.58809672  1
  O  O92  1  0.83612786  0.81336936  0.58792569  1
  O  O93  1  0.96927329  0.81465517  0.08712614  1
  O  O94  1  0.82301281  0.02819024  0.08835223  1
  O  O95  1  0.17644577  0.17274990  0.08742298  1
  O  O96  1  0.68873410  0.16917549  0.74522222  1
  O  O97  1  0.48451309  0.31362000  0.74394164  1
  O  O98  1  0.82789139  0.51997648  0.74569970  1
  O  O99  1  0.68768346  0.51960869  0.24475825  1
  O  O100  1  0.82788449  0.30744925  0.24290994  1
  O  O101  1  0.48496096  0.16992563  0.24359957  1
  O  O102  1  0.64473423  0.51462647  0.92093892  1
  O  O103  1  0.85243186  0.36661217  0.92298335  1
  O  O104  1  0.50519636  0.15159510  0.92205656  1
  O  O105  1  0.62761500  0.14372966  0.42149182  1
  O  O106  1  0.48589112  0.35474218  0.42076754  1
  O  O107  1  0.84641345  0.49740887  0.42045695  1
  O  O108  1  0.35689804  0.50968026  0.07699154  1
  O  O109  1  0.14353970  0.63956056  0.07967659  1
  O  O110  1  0.51335360  0.86702277  0.07649387  1
  O  O111  1  0.35679864  0.85496136  0.57922115  1
  O  O112  1  0.49234081  0.63932461  0.57642627  1
  O  O113  1  0.15197753  0.50261250  0.57578666  1
  O  O114  1  0.31365478  0.83193599  0.25518099  1
  O  O115  1  0.51532164  0.68464411  0.25715723  1
  O  O116  1  0.17187633  0.47799281  0.25612933  1
  O  O117  1  0.31594882  0.48572073  0.75745611  1
  O  O118  1  0.16899551  0.69073035  0.75418382  1
  O  O119  1  0.52016708  0.82583587  0.75704493  1
