# generated using pymatgen
data_Na4HfZn3P2(SO6)4
_symmetry_space_group_name_H-M   'P 1'
_cell_length_a   8.88292232
_cell_length_b   8.88088026
_cell_length_c   22.59552051
_cell_angle_alpha   90.21216274
_cell_angle_beta   90.25645400
_cell_angle_gamma   120.12620202
_symmetry_Int_Tables_number   1
_chemical_formula_structural   Na4HfZn3P2(SO6)4
_chemical_formula_sum   'Na12 Hf3 Zn9 P6 S12 O72'
_cell_volume   1541.68816710
_cell_formula_units_Z   3
loop_
 _symmetry_equiv_pos_site_id
 _symmetry_equiv_pos_as_xyz
  1  'x, y, z'
loop_
 _atom_site_type_symbol
 _atom_site_label
 _atom_site_symmetry_multiplicity
 _atom_site_fract_x
 _atom_site_fract_y
 _atom_site_fract_z
 _atom_site_occupancy
  Na  Na0  1  0.63208093  0.99665324  0.25372183  1
  Na  Na1  1  0.36425942  0.36447230  0.24993384  1
  Na  Na2  1  0.30579638  0.33930829  0.59130817  1
  Na  Na3  1  0.66757546  0.95857875  0.58339494  1
  Na  Na4  1  0.97811787  0.68119183  0.91213186  1
  Na  Na5  1  0.32144968  0.29576167  0.90911733  1
  Na  Na6  1  0.98602339  0.97978297  0.49679295  1
  Na  Na7  1  0.98879317  0.00084364  0.99743846  1
  Na  Na8  1  0.65872266  0.32116141  0.82266928  1
  Na  Na9  1  0.67972707  0.33786244  0.33287937  1
  Na  Na10  1  0.32047957  0.66573138  0.16080324  1
  Na  Na11  1  0.32764670  0.66081588  0.66675187  1
  Hf  Hf12  1  0.66672960  0.32842411  0.98128346  1
  Hf  Hf13  1  0.66933025  0.33803112  0.48006596  1
  Hf  Hf14  1  0.33572453  0.66221270  0.81452833  1
  Zn  Zn15  1  0.98690815  0.99448653  0.35276264  1
  Zn  Zn16  1  0.00025497  0.00866903  0.84770886  1
  Zn  Zn17  1  0.99718841  0.99049802  0.65736661  1
  Zn  Zn18  1  0.00036456  0.99646114  0.14841190  1
  Zn  Zn19  1  0.65534150  0.34590950  0.68679563  1
  Zn  Zn20  1  0.67532901  0.34079826  0.17799038  1
  Zn  Zn21  1  0.33770615  0.66992508  0.01114499  1
  Zn  Zn22  1  0.34718636  0.67445234  0.51103587  1
  Zn  Zn23  1  0.33212594  0.67751538  0.32530977  1
  P  P24  1  0.29405292  0.29048159  0.74935899  1
  P  P25  1  0.66855302  0.63139481  0.58440036  1
  P  P26  1  0.63126798  0.67317099  0.91976245  1
  P  P27  1  0.04246520  0.37248354  0.91888587  1
  P  P28  1  0.33018998  0.95584358  0.91823785  1
  P  P29  1  0.63469570  0.96458214  0.41621326  1
  S  S30  1  0.29066481  0.99817649  0.24987672  1
  S  S31  1  0.70649365  0.70342396  0.24918991  1
  S  S32  1  0.00165154  0.29585109  0.24968497  1
  S  S33  1  -0.00031457  0.70275039  0.75124610  1
  S  S34  1  0.70461866  0.00342671  0.74846749  1
  S  S35  1  0.96212537  0.33790705  0.58448843  1
  S  S36  1  0.37296501  0.03810017  0.58352079  1
  S  S37  1  0.96621850  0.63202237  0.08449450  1
  S  S38  1  0.66579705  0.03422986  0.08674993  1
  S  S39  1  0.36842986  0.33371833  0.08559624  1
  S  S40  1  0.32912577  0.36785274  0.41586108  1
  S  S41  1  0.04258792  0.66950193  0.41702194  1
  O  O42  1  0.21027724  0.02697268  0.30270421  1
  O  O43  1  0.81046357  0.78210684  0.30319604  1
  O  O44  1  0.97080118  0.18556873  0.30255586  1
  O  O45  1  0.21041373  0.18887947  0.80619808  1
  O  O46  1  0.97770376  0.78107076  0.80605803  1
  O  O47  1  0.80885770  0.02130612  0.80116589  1
  O  O48  1  0.77358661  0.97134345  0.69283144  1
  O  O49  1  0.18832463  0.21388201  0.69131668  1
  O  O50  1  0.02655278  0.80710481  0.69794121  1
  O  O51  1  0.78612010  0.81304658  0.19644174  1
  O  O52  1  0.03144922  0.21633267  0.19611911  1
  O  O53  1  0.18913743  0.97709413  0.19543528  1
  O  O54  1  0.87857546  0.35665707  0.63727576  1
  O  O55  1  0.48477624  0.11753730  0.63603759  1
  O  O56  1  0.63310697  0.51255855  0.63725789  1
  O  O57  1  0.88100141  0.52582136  0.13728740  1
  O  O58  1  0.64599132  0.11543227  0.14188443  1
  O  O59  1  0.47124227  0.35258411  0.14037050  1
  O  O60  1  0.46334271  0.31571303  0.03234917  1
  O  O61  1  0.85573563  0.54015492  0.02989664  1
  O  O62  1  0.68400739  0.15014251  0.03464186  1
  O  O63  1  0.46431664  0.15150492  0.53010627  1
  O  O64  1  0.68799921  0.53697696  0.52830907  1
  O  O65  1  0.84849840  0.31364499  0.53060678  1
  O  O66  1  0.55272126  0.69908892  0.97510463  1
  O  O67  1  0.15458620  0.45183598  0.97380163  1
  O  O68  1  0.29741399  0.84600961  0.97311316  1
  O  O69  1  0.55163759  0.86058600  0.47269431  1
  O  O70  1  0.30752255  0.44841903  0.46998365  1
  O  O71  1  0.14413451  0.68715713  0.47062767  1
  O  O72  1  0.11101563  0.63329102  0.36268725  1
  O  O73  1  0.52768719  0.89096446  0.35833144  1
  O  O74  1  0.35809203  0.47242192  0.36160081  1
  O  O75  1  0.12627855  0.49405682  0.86411294  1
  O  O76  1  0.36109263  0.87082148  0.86308029  1
  O  O77  1  0.50811087  0.63241116  0.86483876  1
  O  O78  1  0.02245591  0.82383364  0.41161971  1
  O  O79  1  0.81744655  0.98659640  0.41206836  1
  O  O80  1  0.17892344  0.19043961  0.41046836  1
  O  O81  1  0.01859703  0.19154529  0.90987713  1
  O  O82  1  0.17345477  0.98396635  0.91066985  1
  O  O83  1  0.81679997  0.82132145  0.90950385  1
  O  O84  1  0.97531451  0.17639025  0.58492573  1
  O  O85  1  0.20404698  0.03212342  0.58603226  1
  O  O86  1  0.83024130  0.81567253  0.58831030  1
  O  O87  1  0.97354304  0.80235924  0.08673113  1
  O  O88  1  0.82826239  0.02618606  0.08779781  1
  O  O89  1  0.19708288  0.17125194  0.08670268  1
  O  O90  1  0.68534846  0.15851398  0.74346099  1
  O  O91  1  0.47753927  0.31285282  0.74682233  1
  O  O92  1  0.84827100  0.52452374  0.74590364  1
  O  O93  1  0.68020999  0.52315921  0.24340900  1
  O  O94  1  0.84071645  0.31006546  0.24337176  1
  O  O95  1  0.47111090  0.15937856  0.24559057  1
  O  O96  1  0.64105142  0.49824394  0.92545528  1
  O  O97  1  0.86144987  0.36440606  0.92487563  1
  O  O98  1  0.49584974  0.14338971  0.92457839  1
  O  O99  1  0.65086065  0.14973685  0.42385410  1
  O  O100  1  0.49267769  0.35416461  0.42221414  1
  O  O101  1  0.86144181  0.50912277  0.42269713  1
  O  O102  1  0.35370399  0.49009419  0.07999542  1
  O  O103  1  0.13784394  0.64807675  0.07910119  1
  O  O104  1  0.50928777  0.86301466  0.07978687  1
  O  O105  1  0.35358396  0.86364420  0.57553399  1
  O  O106  1  0.50030992  0.64643157  0.57750431  1
  O  O107  1  0.13795022  0.49112378  0.57658615  1
  O  O108  1  0.31611965  0.84431465  0.25447696  1
  O  O109  1  0.52737316  0.68358377  0.25400190  1
  O  O110  1  0.16106691  0.47089386  0.25679237  1
  O  O111  1  0.31247156  0.47782668  0.75539437  1
  O  O112  1  0.16272473  0.68904625  0.75638972  1
  O  O113  1  0.52524350  0.84244124  0.75512871  1
