# generated using pymatgen
data_Na10Hf4In4Si7S5O48
_symmetry_space_group_name_H-M   'P 1'
_cell_length_a   18.29921292
_cell_length_b   9.11549235
_cell_length_c   22.76698536
_cell_angle_alpha   89.84427727
_cell_angle_beta   90.32782183
_cell_angle_gamma   119.67793576
_symmetry_Int_Tables_number   1
_chemical_formula_structural   Na10Hf4In4Si7S5O48
_chemical_formula_sum   'Na30 Hf12 In12 Si21 S15 O144'
_cell_volume   3299.45257684
_cell_formula_units_Z   3
loop_
 _symmetry_equiv_pos_site_id
 _symmetry_equiv_pos_as_xyz
  1  'x, y, z'
loop_
 _atom_site_type_symbol
 _atom_site_label
 _atom_site_symmetry_multiplicity
 _atom_site_fract_x
 _atom_site_fract_y
 _atom_site_fract_z
 _atom_site_occupancy
  Na  Na0  1  0.18466175  0.37418655  0.23668318  1
  Na  Na1  1  0.68445487  0.37507038  0.23778391  1
  Na  Na2  1  0.98970796  0.62859909  0.25683633  1
  Na  Na3  1  0.49075495  0.62873805  0.25650140  1
  Na  Na4  1  0.48965526  0.34509852  0.76395462  1
  Na  Na5  1  0.18554042  0.99758265  0.74217202  1
  Na  Na6  1  0.68341566  -0.00288459  0.74064216  1
  Na  Na7  1  0.66241750  0.34526089  0.57753020  1
  Na  Na8  1  0.01739261  0.70494873  0.57461682  1
  Na  Na9  1  0.82467359  0.95868126  0.59481733  1
  Na  Na10  1  0.49372158  0.67231887  0.90909210  1
  Na  Na11  1  0.99581462  0.67519539  0.90741792  1
  Na  Na12  1  0.85007641  0.03716418  0.90124518  1
  Na  Na13  1  0.15520398  0.29293383  0.92648391  1
  Na  Na14  1  0.49392832  0.31607338  0.40796636  1
  Na  Na15  1  0.99072523  0.31085514  0.40844651  1
  Na  Na16  1  0.34956908  0.66187963  0.40080451  1
  Na  Na17  1  0.85061237  0.66613039  0.40596328  1
  Na  Na18  1  0.03026629  0.00997603  0.49478618  1
  Na  Na19  1  0.52647881  0.98824153  0.49328771  1
  Na  Na20  1  0.01762159  0.02927180  0.99834162  1
  Na  Na21  1  0.52591024  0.06325854  0.99294847  1
  Na  Na22  1  0.34214851  0.31692008  0.83155427  1
  Na  Na23  1  0.85046441  0.34168242  0.82351479  1
  Na  Na24  1  0.33729092  0.33253602  0.32613720  1
  Na  Na25  1  0.83576869  0.33181776  0.32845561  1
  Na  Na26  1  0.17933590  0.66109857  0.16010564  1
  Na  Na27  1  0.67876096  0.66184554  0.16094743  1
  Na  Na28  1  0.17998324  0.68914458  0.66707199  1
  Na  Na29  1  0.67478626  0.68911675  0.66431105  1
  Hf  Hf30  1  0.99778837  0.98750112  0.64886486  1
  Hf  Hf31  1  0.49504436  0.98161007  0.64793535  1
  Hf  Hf32  1  0.99910793  0.01304729  0.14637930  1
  Hf  Hf33  1  0.49838985  0.01121059  0.14602387  1
  Hf  Hf34  1  0.32938349  0.32009034  0.97972748  1
  Hf  Hf35  1  0.82494365  0.32337558  0.98028111  1
  Hf  Hf36  1  0.32664834  0.32829859  0.47993382  1
  Hf  Hf37  1  0.82824761  0.34263272  0.48004461  1
  Hf  Hf38  1  0.16450989  0.65432193  0.31299049  1
  Hf  Hf39  1  0.66350628  0.65404785  0.31340877  1
  Hf  Hf40  1  0.16237584  0.67517802  0.81288359  1
  Hf  Hf41  1  0.66470578  0.67480573  0.81322508  1
  In  In42  1  0.00122039  0.00168778  0.35030333  1
  In  In43  1  0.50140144  0.00090606  0.34954280  1
  In  In44  1  0.99843655  -0.00239429  0.84720277  1
  In  In45  1  0.49657561  -0.00320138  0.85242088  1
  In  In46  1  0.33224316  0.32467218  0.68507381  1
  In  In47  1  0.83461339  0.33316934  0.68518922  1
  In  In48  1  0.33398171  0.34363799  0.18188593  1
  In  In49  1  0.83368249  0.34402156  0.18236941  1
  In  In50  1  0.15925639  0.64778354  0.01659602  1
  In  In51  1  0.65728824  0.64354889  0.01737107  1
  In  In52  1  0.16326263  0.67428507  0.51596812  1
  In  In53  1  0.66104125  0.66891004  0.51784532  1
  Si  Si54  1  0.35223872  0.71021087  0.25036060  1
  Si  Si55  1  0.85262804  0.71134491  0.25069962  1
  Si  Si56  1  0.99614432  0.29379965  0.25258871  1
  Si  Si57  1  0.49620748  0.29325780  0.25251998  1
  Si  Si58  1  0.99772587  0.69602892  0.75269897  1
  Si  Si59  1  0.49635207  0.69736342  0.75348453  1
  Si  Si60  1  0.35235607  0.99395576  0.74904147  1
  Si  Si61  1  0.84955036  0.99671452  0.75047460  1
  Si  Si62  1  0.18513357  0.03318219  0.58702838  1
  Si  Si63  1  0.68421920  0.03863392  0.58641324  1
  Si  Si64  1  0.83193310  0.62924387  0.58247711  1
  Si  Si65  1  0.18400594  0.33580451  0.08452890  1
  Si  Si66  1  0.68335231  0.33584875  0.08681975  1
  Si  Si67  1  0.01832385  0.36685736  0.91692008  1
  Si  Si68  1  0.51545196  0.36236456  0.91565080  1
  Si  Si69  1  0.16551308  0.95889520  0.91755988  1
  Si  Si70  1  0.66500348  0.95664089  0.91946394  1
  Si  Si71  1  0.16492883  0.37177172  0.41840256  1
  Si  Si72  1  0.66390505  0.36586712  0.41958226  1
  Si  Si73  1  0.01680404  0.66875250  0.41792604  1
  Si  Si74  1  0.51682543  0.66751666  0.41598243  1
  S  S75  1  0.14683280  0.99736037  0.24820217  1
  S  S76  1  0.64715649  0.99706228  0.24787465  1
  S  S77  1  0.14769415  0.30118326  0.75015052  1
  S  S78  1  0.64387552  0.29274255  0.74788248  1
  S  S79  1  0.47990612  0.32461164  0.58342976  1
  S  S80  1  0.98167238  0.32997981  0.58085935  1
  S  S81  1  0.33477499  0.62921506  0.58199061  1
  S  S82  1  0.48231874  0.63786632  0.08420477  1
  S  S83  1  0.98224122  0.63764463  0.08331499  1
  S  S84  1  0.33349419  0.03898683  0.08410190  1
  S  S85  1  0.83431870  0.04000977  0.08291923  1
  S  S86  1  0.31123060  0.66094939  0.91863272  1
  S  S87  1  0.81185278  0.66076969  0.91861866  1
  S  S88  1  0.31182184  0.96386543  0.41741754  1
  S  S89  1  0.81184558  0.96441357  0.41792347  1
  O  O90  1  0.11214283  0.03186031  0.30190606  1
  O  O91  1  0.61248237  0.03163794  0.30178132  1
  O  O92  1  0.40596109  0.78115168  0.31107641  1
  O  O93  1  0.90747610  0.78223341  0.31104840  1
  O  O94  1  0.48531534  0.19936323  0.31515880  1
  O  O95  1  0.98634517  0.20028830  0.31490230  1
  O  O96  1  0.11321075  0.20686258  0.80629455  1
  O  O97  1  0.60510865  0.18705063  0.80010710  1
  O  O98  1  0.48685742  0.77350513  0.81498453  1
  O  O99  1  0.99252639  0.77866439  0.81481391  1
  O  O100  1  0.41804789  0.04731881  0.80287599  1
  O  O101  1  0.89877195  0.01421222  0.81173906  1
  O  O102  1  0.40174619  0.98382585  0.68928863  1
  O  O103  1  0.90314601  0.99482258  0.69191317  1
  O  O104  1  0.09320023  0.20660554  0.69945843  1
  O  O105  1  0.59217643  0.20936423  0.69349441  1
  O  O106  1  0.01136893  0.82627663  0.69756360  1
  O  O107  1  0.51248196  0.82982469  0.69860663  1
  O  O108  1  0.40844035  0.82593548  0.19483762  1
  O  O109  1  0.90811174  0.82698945  0.19457811  1
  O  O110  1  0.01566295  0.19686717  0.19909247  1
  O  O111  1  0.51443225  0.19434898  0.19917536  1
  O  O112  1  0.09291179  0.97760927  0.19610342  1
  O  O113  1  0.59305702  0.97710152  0.19608637  1
  O  O114  1  0.44028500  0.34140578  0.63748132  1
  O  O115  1  0.94044310  0.35346868  0.63242869  1
  O  O116  1  0.23202317  0.11422464  0.64878383  1
  O  O117  1  0.73624630  0.11094953  0.64752203  1
  O  O118  1  0.32763306  0.52991671  0.63492984  1
  O  O119  1  0.81263998  0.49775822  0.63491833  1
  O  O120  1  0.44471490  0.54289375  0.13974177  1
  O  O121  1  0.94421023  0.54360918  0.13873388  1
  O  O122  1  0.32702774  0.12102579  0.13788276  1
  O  O123  1  0.82862848  0.12684125  0.13582192  1
  O  O124  1  0.23054057  0.34243496  0.14694143  1
  O  O125  1  0.72910123  0.34292752  0.14948706  1
  O  O126  1  0.23873575  0.32265431  0.02854875  1
  O  O127  1  0.74204329  0.32428838  0.03365279  1
  O  O128  1  0.43175195  0.54043646  0.03221325  1
  O  O129  1  0.93224814  0.54168446  0.03099415  1
  O  O130  1  0.34326826  0.14532453  0.03138633  1
  O  O131  1  0.84427695  0.14285364  0.02877374  1
  O  O132  1  0.24210264  0.15543032  0.53182770  1
  O  O133  1  0.74038340  0.17076665  0.53220736  1
  O  O134  1  0.34313781  0.54393932  0.52773110  1
  O  O135  1  0.85119317  0.55086479  0.52208029  1
  O  O136  1  0.43183303  0.32304245  0.53009324  1
  O  O137  1  0.93252073  0.31438891  0.52586517  1
  O  O138  1  0.27556037  0.68570041  0.97285825  1
  O  O139  1  0.77431718  0.68358194  0.97192317  1
  O  O140  1  0.08151012  0.42887455  0.97292706  1
  O  O141  1  0.56894283  0.44002016  0.97459980  1
  O  O142  1  0.14845627  0.83333679  0.97254388  1
  O  O143  1  0.65690097  0.84146976  0.97518391  1
  O  O144  1  0.27479523  0.86847709  0.47142351  1
  O  O145  1  0.77594413  0.87162434  0.47320384  1
  O  O146  1  0.15437763  0.46909603  0.47372644  1
  O  O147  1  0.65301200  0.44956297  0.47938926  1
  O  O148  1  0.06345085  0.69159230  0.48091173  1
  O  O149  1  0.57266071  0.69661009  0.47385500  1
  O  O150  1  0.07155037  0.65463588  0.36178514  1
  O  O151  1  0.56381265  0.64760198  0.35608461  1
  O  O152  1  0.25978844  0.88005325  0.36485971  1
  O  O153  1  0.75798922  0.87342989  0.36641508  1
  O  O154  1  0.18307774  0.49236684  0.35916929  1
  O  O155  1  0.67757883  0.49353403  0.36326681  1
  O  O156  1  0.06889354  0.49581297  0.86160604  1
  O  O157  1  0.56512610  0.48408437  0.85699803  1
  O  O158  1  0.17770605  0.87570103  0.85682071  1
  O  O159  1  0.68302453  0.87116330  0.86036358  1
  O  O160  1  0.25839434  0.64138945  0.86651027  1
  O  O161  1  0.76025583  0.63992661  0.86533897  1
  O  O162  1  -0.00379247  0.82323574  0.41374823  1
  O  O163  1  0.49375927  0.81877914  0.41269719  1
  O  O164  1  0.39688576  0.98428151  0.41323008  1
  O  O165  1  0.89635284  0.98123979  0.41324826  1
  O  O166  1  0.08151252  0.18799572  0.41376798  1
  O  O167  1  0.58036262  0.18237529  0.41361511  1
  O  O168  1  -0.00193727  0.17116167  0.91017812  1
  O  O169  1  0.49609283  0.17019487  0.91193244  1
  O  O170  1  0.08428709  0.99013641  0.91402513  1
  O  O171  1  0.58103139  0.97246026  0.91404008  1
  O  O172  1  0.39843277  0.79773030  0.91398216  1
  O  O173  1  0.89749116  0.80910093  0.91425986  1
  O  O174  1  0.48533176  0.16698511  0.58415455  1
  O  O175  1  0.98518810  0.17058036  0.58560606  1
  O  O176  1  0.09033911  0.01577696  0.58757931  1
  O  O177  1  0.59298855  0.03916382  0.58781798  1
  O  O178  1  0.41453627  0.79647509  0.58469175  1
  O  O179  1  0.91769254  0.81663035  0.59024684  1
  O  O180  1  0.48403687  0.80260710  0.08596534  1
  O  O181  1  0.98506209  0.80388829  0.08479924  1
  O  O182  1  0.41206329  0.02641651  0.08681667  1
  O  O183  1  0.91366324  0.02877920  0.08636337  1
  O  O184  1  0.08969713  0.16110317  0.08708374  1
  O  O185  1  0.58936022  0.16180203  0.08761234  1
  O  O186  1  0.33447876  0.15503772  0.74762968  1
  O  O187  1  0.82854995  0.15207410  0.74916720  1
  O  O188  1  0.23218405  0.31827565  0.74493936  1
  O  O189  1  0.72872040  0.31598223  0.74409580  1
  O  O190  1  0.41947850  0.50520068  0.74379671  1
  O  O191  1  0.91706961  0.51114135  0.74618458  1
  O  O192  1  0.33506196  0.51331333  0.24821444  1
  O  O193  1  0.83642554  0.51522720  0.24829443  1
  O  O194  1  0.41864242  0.33102171  0.24323769  1
  O  O195  1  0.91839422  0.33031823  0.24297186  1
  O  O196  1  0.23282235  0.13972119  0.24261205  1
  O  O197  1  0.73328025  0.13890291  0.24259610  1
  O  O198  1  0.31404319  0.49679345  0.92245844  1
  O  O199  1  0.82277114  0.50766308  0.92280723  1
  O  O200  1  0.42612007  0.37398289  0.92196766  1
  O  O201  1  0.92825880  0.36890192  0.92574534  1
  O  O202  1  0.24880533  0.15011100  0.92434050  1
  O  O203  1  0.75322748  0.14327596  0.92444715  1
  O  O204  1  0.32221261  0.13807638  0.42097039  1
  O  O205  1  0.82227099  0.13706164  0.41994972  1
  O  O206  1  0.25306845  0.36216111  0.42385289  1
  O  O207  1  0.75287733  0.35982025  0.41961400  1
  O  O208  1  0.42516661  0.48318591  0.42213638  1
  O  O209  1  0.92631489  0.48297779  0.41805554  1
  O  O210  1  0.17608997  0.50722142  0.08248855  1
  O  O211  1  0.67612279  0.50709585  0.08329355  1
  O  O212  1  0.06876304  0.66449131  0.08170965  1
  O  O213  1  0.56903996  0.66687643  0.08280099  1
  O  O214  1  0.25973440  0.86997383  0.07872565  1
  O  O215  1  0.76164520  0.87077842  0.07919868  1
  O  O216  1  0.16940653  0.83748551  0.58373940  1
  O  O217  1  0.67602530  0.85324243  0.58067900  1
  O  O218  1  0.26230211  0.65555270  0.57782327  1
  O  O219  1  0.75092896  0.65815961  0.57794303  1
  O  O220  1  0.06705466  0.47822552  0.57931435  1
  O  O221  1  0.56743667  0.46906593  0.58300287  1
  O  O222  1  0.14732683  0.83555210  0.25376863  1
  O  O223  1  0.64797822  0.83550482  0.25350359  1
  O  O224  1  0.25864805  0.69728077  0.25395872  1
  O  O225  1  0.75855320  0.69583294  0.25505803  1
  O  O226  1  0.08399698  0.48451296  0.25495336  1
  O  O227  1  0.58475884  0.48268734  0.25434250  1
  O  O228  1  0.15481821  0.46935878  0.75271503  1
  O  O229  1  0.64584011  0.45737328  0.75234057  1
  O  O230  1  0.08824653  0.69360790  0.75138725  1
  O  O231  1  0.58534265  0.68722573  0.75399694  1
  O  O232  1  0.26063603  0.82075427  0.75577727  1
  O  O233  1  0.75637513  0.81794735  0.75253635  1
