# generated using pymatgen
data_Cl2
_symmetry_space_group_name_H-M   'P 1'
_cell_length_a   4.11494351
_cell_length_b   3.85852587
_cell_length_c   8.40239547
_cell_angle_alpha   90.00000000
_cell_angle_beta   90.00000000
_cell_angle_gamma   122.22375165
_symmetry_Int_Tables_number   1
_chemical_formula_structural   Cl2
_chemical_formula_sum   Cl4
_cell_volume   112.86115751
_cell_formula_units_Z   2
loop_
 _symmetry_equiv_pos_site_id
 _symmetry_equiv_pos_as_xyz
  1  'x, y, z'
loop_
 _atom_site_type_symbol
 _atom_site_label
 _atom_site_symmetry_multiplicity
 _atom_site_fract_x
 _atom_site_fract_y
 _atom_site_fract_z
 _atom_site_occupancy
  Cl  Cl0  1  0.88547531  0.00000000  0.39524701  1
  Cl  Cl1  1  0.11452469  -0.00000000  0.60475299  1
  Cl  Cl2  1  0.61452469  -0.00000000  0.89524701  1
  Cl  Cl3  1  0.38547531  0.00000000  0.10475299  1
