# generated using pymatgen
data_MgTi2Mn4O12
_symmetry_space_group_name_H-M   'P 1'
_cell_length_a   5.22858394
_cell_length_b   5.11526589
_cell_length_c   10.32183611
_cell_angle_alpha   93.61577679
_cell_angle_beta   82.28845989
_cell_angle_gamma   119.23850799
_symmetry_Int_Tables_number   1
_chemical_formula_structural   MgTi2Mn4O12
_chemical_formula_sum   'Mg1 Ti2 Mn4 O12'
_cell_volume   238.71194416
_cell_formula_units_Z   1
loop_
 _symmetry_equiv_pos_site_id
 _symmetry_equiv_pos_as_xyz
  1  'x, y, z'
loop_
 _atom_site_type_symbol
 _atom_site_label
 _atom_site_symmetry_multiplicity
 _atom_site_fract_x
 _atom_site_fract_y
 _atom_site_fract_z
 _atom_site_occupancy
  Mg  Mg0  1  0.23471306  0.02990204  0.24296104  1
  Ti  Ti1  1  0.99699768  0.99143976  0.97370031  1
  Ti  Ti2  1  0.49452694  0.47801195  0.51973569  1
  Mn  Mn3  1  0.17903272  0.82732344  0.50434500  1
  Mn  Mn4  1  0.31430126  0.66835905  0.00413143  1
  Mn  Mn5  1  0.65027206  0.33322827  -0.00010693  1
  Mn  Mn6  1  0.84792882  0.16453038  0.49673334  1
  O  O7  1  0.00247329  0.71742626  0.10582671  1
  O  O8  1  0.01339248  0.34321255  0.91232925  1
  O  O9  1  0.20217999  0.49823485  0.40699502  1
  O  O10  1  0.49023754  0.83326442  0.58909135  1
  O  O11  1  0.18222227  0.15784277  0.60832030  1
  O  O12  1  0.29071436  0.32483960  0.09785655  1
  O  O13  1  0.66474299  0.66516843  0.90817123  1
  O  O14  1  0.31612846  0.95950589  0.89359668  1
  O  O15  1  0.90285619  0.84716685  0.40057831  1
  O  O16  1  0.48700257  0.15341087  0.39321258  1
  O  O17  1  0.82346154  0.49851458  0.59314816  1
  O  O18  1  0.59431579  0.99611805  0.09937400  1
