# generated using pymatgen
data_Na5Y2SiSn2P5O24
_symmetry_space_group_name_H-M   'P 1'
_cell_length_a   9.16290989
_cell_length_b   9.16394411
_cell_length_c   23.17516322
_cell_angle_alpha   89.97318613
_cell_angle_beta   89.86825243
_cell_angle_gamma   120.27020058
_symmetry_Int_Tables_number   1
_chemical_formula_structural   Na5Y2SiSn2P5O24
_chemical_formula_sum   'Na15 Y6 Si3 Sn6 P15 O72'
_cell_volume   1680.65452189
_cell_formula_units_Z   3
loop_
 _symmetry_equiv_pos_site_id
 _symmetry_equiv_pos_as_xyz
  1  'x, y, z'
loop_
 _atom_site_type_symbol
 _atom_site_label
 _atom_site_symmetry_multiplicity
 _atom_site_fract_x
 _atom_site_fract_y
 _atom_site_fract_z
 _atom_site_occupancy
  Na  Na0  1  0.00229766  0.64121871  0.24979000  1
  Na  Na1  1  0.63168847  0.64091205  0.74972169  1
  Na  Na2  1  0.37406246  0.99901887  0.74945109  1
  Na  Na3  1  0.66351959  0.97122617  0.58638130  1
  Na  Na4  1  0.29842438  0.96926200  0.08131172  1
  Na  Na5  1  0.67823185  0.69704005  0.08017956  1
  Na  Na6  1  0.02732197  0.33375028  0.08278977  1
  Na  Na7  1  0.96589247  0.30093681  0.41737026  1
  Na  Na8  1  0.33717112  0.03433569  0.42063131  1
  Na  Na9  1  0.00701679  0.99001703  0.50302462  1
  Na  Na10  1  0.00002908  0.99252898  0.99335437  1
  Na  Na11  1  0.68071892  0.32894364  0.83580270  1
  Na  Na12  1  0.65494835  0.33477721  0.33149574  1
  Na  Na13  1  0.34103326  0.66597779  0.16974672  1
  Na  Na14  1  0.31785997  0.65510939  0.66493079  1
  Y  Y15  1  0.99333069  0.99476711  0.34906298  1
  Y  Y16  1  0.00029555  0.00190257  0.15255976  1
  Y  Y17  1  0.66888889  0.33793437  0.97680481  1
  Y  Y18  1  0.66206599  0.33969749  0.48735028  1
  Y  Y19  1  0.34419110  0.66786798  0.31407401  1
  Y  Y20  1  0.32782764  0.66259902  0.81339429  1
  Si  Si21  1  0.71854175  0.01105626  0.74745118  1
  Si  Si22  1  0.36083373  0.02933083  0.58398426  1
  Si  Si23  1  0.96741615  0.62803294  0.08317729  1
  Sn  Sn24  1  0.99675688  0.00235125  0.85208139  1
  Sn  Sn25  1  0.00429968  0.00293385  0.64831280  1
  Sn  Sn26  1  0.67076420  0.32987435  0.68268903  1
  Sn  Sn27  1  0.66741433  0.33057481  0.18209033  1
  Sn  Sn28  1  0.32889293  0.66611522  0.01197574  1
  Sn  Sn29  1  0.33212983  0.66519622  0.52111702  1
  P  P30  1  0.31140662  0.00969901  0.24846417  1
  P  P31  1  0.69761849  0.68624881  0.24481065  1
  P  P32  1  0.98964448  0.30328339  0.24842882  1
  P  P33  1  0.29280343  0.28399387  0.74826028  1
  P  P34  1  0.99073362  0.70995298  0.74832807  1
  P  P35  1  0.96782272  0.33466955  0.58387830  1
  P  P36  1  0.66611328  0.63409247  0.58772917  1
  P  P37  1  0.65772608  0.03479075  0.08215814  1
  P  P38  1  0.37789512  0.34215339  0.08265519  1
  P  P39  1  0.63461214  0.67889040  0.91518857  1
  P  P40  1  0.04164634  0.36039066  0.91707537  1
  P  P41  1  0.31960722  0.95912037  0.91409111  1
  P  P42  1  0.62823617  0.96051394  0.42160654  1
  P  P43  1  0.33067918  0.37320662  0.41971603  1
  P  P44  1  0.04510902  0.66774529  0.41745409  1
  O  O45  1  0.22829009  0.03106388  0.30364503  1
  O  O46  1  0.81491970  0.77591920  0.29685907  1
  O  O47  1  0.97267525  0.19935599  0.30320467  1
  O  O48  1  0.21485893  0.16880824  0.80226823  1
  O  O49  1  0.95636468  0.78730257  0.80288354  1
  O  O50  1  0.83366235  0.03646704  0.80468620  1
  O  O51  1  0.79892292  0.97514896  0.68926414  1
  O  O52  1  0.18535365  0.20348162  0.69395203  1
  O  O53  1  0.02577885  0.82461720  0.69502572  1
  O  O54  1  0.77686226  0.78433898  0.18863333  1
  O  O55  1  0.00927450  0.22273032  0.19297688  1
  O  O56  1  0.20295489  0.98513359  0.19437875  1
  O  O57  1  0.88294014  0.36809496  0.63672051  1
  O  O58  1  0.49149903  0.11988950  0.64002731  1
  O  O59  1  0.64051957  0.52574692  0.64337308  1
  O  O60  1  0.88903556  0.50845371  0.14283198  1
  O  O61  1  0.61794991  0.10997687  0.13701484  1
  O  O62  1  0.49137089  0.37511143  0.13737088  1
  O  O63  1  0.45047160  0.29930738  0.03087559  1
  O  O64  1  0.83746290  0.54074064  0.03132464  1
  O  O65  1  0.69051486  0.14735782  0.03029206  1
  O  O66  1  0.43813593  0.13256907  0.52474060  1
  O  O67  1  0.69680908  0.55714603  0.53452097  1
  O  O68  1  0.86240879  0.30190087  0.52886848  1
  O  O69  1  0.54871761  0.69976146  0.97254551  1
  O  O70  1  0.14391372  0.44163053  0.97532495  1
  O  O71  1  0.29704220  0.85215731  0.97140101  1
  O  O72  1  0.54671553  0.85578209  0.47825869  1
  O  O73  1  0.30633297  0.46080595  0.47430755  1
  O  O74  1  0.16253223  0.69414355  0.47055722  1
  O  O75  1  0.12152864  0.64576428  0.36120984  1
  O  O76  1  0.51711930  0.87543516  0.36908744  1
  O  O77  1  0.34804705  0.47415238  0.36541258  1
  O  O78  1  0.13248319  0.47137933  0.86561953  1
  O  O79  1  0.33892792  0.87434740  0.86018471  1
  O  O80  1  0.53257475  0.66294095  0.86118321  1
  O  O81  1  0.03530003  0.83194904  0.41543485  1
  O  O82  1  0.80794244  0.98532711  0.41679908  1
  O  O83  1  0.16593108  0.19625470  0.41724252  1
  O  O84  1  0.03376502  0.18624001  0.91393109  1
  O  O85  1  0.15332123  0.96828966  0.91115514  1
  O  O86  1  0.81241254  0.84273325  0.91373226  1
  O  O87  1  0.97576167  0.16953406  0.59193685  1
  O  O88  1  0.17256936  0.00737738  0.59181736  1
  O  O89  1  0.81932676  0.81813816  0.59247951  1
  O  O90  1  0.00113761  0.82096104  0.08860583  1
  O  O91  1  0.81308672  0.01217361  0.09004397  1
  O  O92  1  0.19442004  0.19406889  0.09081858  1
  O  O93  1  0.69157167  0.17803573  0.74357617  1
  O  O94  1  0.47283309  0.30072120  0.74257155  1
  O  O95  1  0.82353300  0.53455527  0.74141201  1
  O  O96  1  0.69189919  0.51214229  0.24270240  1
  O  O97  1  0.82513469  0.31627812  0.24554553  1
  O  O98  1  0.48834171  0.17182761  0.24255824  1
  O  O99  1  0.65180792  0.52179424  0.91952470  1
  O  O100  1  0.86452231  0.33751927  0.92065387  1
  O  O101  1  0.47482821  0.13510370  0.91951725  1
  O  O102  1  0.64683651  0.13870998  0.42457946  1
  O  O103  1  0.48297206  0.34540896  0.42268507  1
  O  O104  1  0.87181014  0.50595487  0.42382727  1
  O  O105  1  0.37106639  0.51014901  0.07604513  1
  O  O106  1  0.15611432  0.63953929  0.07597958  1
  O  O107  1  0.49558865  0.85422630  0.07591802  1
  O  O108  1  0.35692469  0.84428488  0.58075658  1
  O  O109  1  0.50487666  0.65148512  0.58194974  1
  O  O110  1  0.14794941  0.49159905  0.57937064  1
  O  O111  1  0.32262736  0.84737843  0.25210419  1
  O  O112  1  0.52133994  0.66344879  0.25013447  1
  O  O113  1  0.14140127  0.48580031  0.25169236  1
  O  O114  1  0.32269239  0.46432589  0.75298666  1
  O  O115  1  0.14788695  0.69163034  0.75310239  1
  O  O116  1  0.52800986  0.84279678  0.75069358  1
