# generated using pymatgen
data_Na10Y8Si5S7O48
_symmetry_space_group_name_H-M   'P 1'
_cell_length_a   18.75348477
_cell_length_b   9.37221965
_cell_length_c   23.98090228
_cell_angle_alpha   90.01326461
_cell_angle_beta   89.81473339
_cell_angle_gamma   119.94786777
_symmetry_Int_Tables_number   1
_chemical_formula_structural   Na10Y8Si5S7O48
_chemical_formula_sum   'Na30 Y24 Si15 S21 O144'
_cell_volume   3652.12530166
_cell_formula_units_Z   3
loop_
 _symmetry_equiv_pos_site_id
 _symmetry_equiv_pos_as_xyz
  1  'x, y, z'
loop_
 _atom_site_type_symbol
 _atom_site_label
 _atom_site_symmetry_multiplicity
 _atom_site_fract_x
 _atom_site_fract_y
 _atom_site_fract_z
 _atom_site_occupancy
  Na  Na0  1  0.33067149  0.00095878  0.24902557  1
  Na  Na1  1  0.82960151  0.00013461  0.24976692  1
  Na  Na2  1  0.18211228  0.37780193  0.24120463  1
  Na  Na3  1  0.68225531  0.37836347  0.24210447  1
  Na  Na4  1  0.99259820  0.62247567  0.25859909  1
  Na  Na5  1  0.49383176  0.62326656  0.25948771  1
  Na  Na6  1  0.83096135  0.65825888  0.74787657  1
  Na  Na7  1  0.99227479  0.36361844  0.75843714  1
  Na  Na8  1  0.49442411  0.34930446  0.75839746  1
  Na  Na9  1  0.17954544  0.98340136  0.74411685  1
  Na  Na10  1  0.02129617  0.71317594  0.58530800  1
  Na  Na11  1  0.32808790  0.97070374  0.59221810  1
  Na  Na12  1  0.02362762  0.33101918  0.08330824  1
  Na  Na13  1  0.52347776  0.33070725  0.08443022  1
  Na  Na14  1  0.15910557  0.30186444  0.92543256  1
  Na  Na15  1  0.66096001  0.30332241  0.92626464  1
  Na  Na16  1  0.15984824  0.01765409  0.42571455  1
  Na  Na17  1  0.66017328  0.01619682  0.42728375  1
  Na  Na18  1  0.00258089  0.99489738  0.50042252  1
  Na  Na19  1  0.51251730  0.98782339  0.50034103  1
  Na  Na20  1  0.00610137  0.01455231  0.99989075  1
  Na  Na21  1  0.50588819  0.01137413  0.00227938  1
  Na  Na22  1  0.34652851  0.32946696  0.83749507  1
  Na  Na23  1  0.85030975  0.32872004  0.83192607  1
  Na  Na24  1  0.35423200  0.37054400  0.33411110  1
  Na  Na25  1  0.85258942  0.36825944  0.33550369  1
  Na  Na26  1  0.17502978  0.64992420  0.16613253  1
  Na  Na27  1  0.67511036  0.65010457  0.16712949  1
  Na  Na28  1  0.17194602  0.68402032  0.67210460  1
  Na  Na29  1  0.68070313  0.71867593  0.66258592  1
  Y  Y30  1  0.99089029  0.98782430  0.35031618  1
  Y  Y31  1  0.49196272  0.98930853  0.35040230  1
  Y  Y32  1  0.99211649  0.99463338  0.85011763  1
  Y  Y33  1  0.49225764  0.00332682  0.85115412  1
  Y  Y34  1  0.99918295  0.99501639  0.65040596  1
  Y  Y35  1  0.50489862  0.99796159  0.64875610  1
  Y  Y36  1  0.00079776  0.00437495  0.15008860  1
  Y  Y37  1  0.50100829  0.00441721  0.15044516  1
  Y  Y38  1  0.32925077  0.32452357  0.68148890  1
  Y  Y39  1  0.82753637  0.31229512  0.68431523  1
  Y  Y40  1  0.33146330  0.34285037  0.18189793  1
  Y  Y41  1  0.83120691  0.34225158  0.18177353  1
  Y  Y42  1  0.33432809  0.33260101  0.98296790  1
  Y  Y43  1  0.83530351  0.33352973  0.98242426  1
  Y  Y44  1  0.33758042  0.34446701  0.48239834  1
  Y  Y45  1  0.83356258  0.33535544  0.48320999  1
  Y  Y46  1  0.16609394  0.65601996  0.01701181  1
  Y  Y47  1  0.66578221  0.65629557  0.01758292  1
  Y  Y48  1  0.16182373  0.66584594  0.51578702  1
  Y  Y49  1  0.66223557  0.67672446  0.51885646  1
  Y  Y50  1  0.16060765  0.65289996  0.31768441  1
  Y  Y51  1  0.66077565  0.65254172  0.31847396  1
  Y  Y52  1  0.16369167  0.66825910  0.81611275  1
  Y  Y53  1  0.66611399  0.67712254  0.81786010  1
  Si  Si54  1  0.35073942  0.70327826  0.24924315  1
  Si  Si55  1  0.85053581  0.70288939  0.24905083  1
  Si  Si56  1  0.99880065  0.29638965  0.24857621  1
  Si  Si57  1  0.49893453  0.29694128  0.24863480  1
  Si  Si58  1  0.99897345  0.70048520  0.74860556  1
  Si  Si59  1  0.35130968  0.00220397  0.74571596  1
  Si  Si60  1  0.85004248  0.99552778  0.74945668  1
  Si  Si61  1  0.18302564  0.03390212  0.58025665  1
  Si  Si62  1  0.68222026  0.03411083  0.58023578  1
  Si  Si63  1  0.18119734  0.32991314  0.08179561  1
  Si  Si64  1  0.68113977  0.32925726  0.08143259  1
  Si  Si65  1  0.01669291  0.36379833  0.91632293  1
  Si  Si66  1  0.51685126  0.36840360  0.91528172  1
  Si  Si67  1  0.01502375  0.66936592  0.41649869  1
  Si  Si68  1  0.51658466  0.67042453  0.41455944  1
  S  S69  1  0.14813927  0.00010122  0.25136632  1
  S  S70  1  0.64829319  -0.00007421  0.25115401  1
  S  S71  1  0.14792919  0.29470242  0.75086347  1
  S  S72  1  0.64705907  0.29685103  0.75177625  1
  S  S73  1  0.49962919  0.70263673  0.75060290  1
  S  S74  1  0.48146202  0.33223591  0.58434365  1
  S  S75  1  0.98135557  0.33361081  0.58356975  1
  S  S76  1  0.33355530  0.63233286  0.58363828  1
  S  S77  1  0.83260144  0.62801916  0.58461230  1
  S  S78  1  0.48221592  0.63047356  0.08286570  1
  S  S79  1  0.98245317  0.63069132  0.08302360  1
  S  S80  1  0.33283961  0.03702422  0.08437898  1
  S  S81  1  0.83274004  0.03717982  0.08434802  1
  S  S82  1  0.31400073  0.66469989  0.91627330  1
  S  S83  1  0.81341974  0.66429245  0.91631653  1
  S  S84  1  0.16745652  0.96618105  0.91667735  1
  S  S85  1  0.66631500  0.96610702  0.91772964  1
  S  S86  1  0.31359734  0.96334054  0.41731407  1
  S  S87  1  0.81302688  0.96212449  0.41645252  1
  S  S88  1  0.16734335  0.36647672  0.41657432  1
  S  S89  1  0.66716008  0.36762631  0.41734397  1
  O  O90  1  0.11188632  0.02849636  0.30195512  1
  O  O91  1  0.61182304  0.02844279  0.30160458  1
  O  O92  1  0.41045656  0.78310430  0.30321492  1
  O  O93  1  0.91059315  0.78197976  0.30301096  1
  O  O94  1  0.48582320  0.17762521  0.30162322  1
  O  O95  1  0.98662519  0.17805771  0.30169007  1
  O  O96  1  0.11201918  0.19447262  0.80173991  1
  O  O97  1  0.61046056  0.19636713  0.80264973  1
  O  O98  1  0.49127680  0.78269313  0.80088133  1
  O  O99  1  0.98792166  0.79653374  0.80155004  1
  O  O100  1  0.41345487  0.03530137  0.79857855  1
  O  O101  1  0.90814283  0.02897013  0.80417497  1
  O  O102  1  0.39421686  0.98483328  0.68839735  1
  O  O103  1  0.89462071  0.96748791  0.69519759  1
  O  O104  1  0.09584843  0.21574113  0.70161244  1
  O  O105  1  0.59452224  0.21469132  0.70282730  1
  O  O106  1  0.01729829  0.81318499  0.69182034  1
  O  O107  1  0.51065089  0.80181376  0.70040422  1
  O  O108  1  0.39498808  0.81913594  0.19492886  1
  O  O109  1  0.89514889  0.81927822  0.19494672  1
  O  O110  1  0.01634068  0.21969279  0.19187971  1
  O  O111  1  0.51585653  0.21949404  0.19179401  1
  O  O112  1  0.09543578  0.97144007  0.20220235  1
  O  O113  1  0.59548539  0.97146576  0.20191563  1
  O  O114  1  0.44426544  0.35833324  0.63576721  1
  O  O115  1  0.94475176  0.36147873  0.63458365  1
  O  O116  1  0.23963805  0.12117732  0.63661155  1
  O  O117  1  0.73843595  0.13125904  0.63414723  1
  O  O118  1  0.32478229  0.53500044  0.63398292  1
  O  O119  1  0.82405770  0.53552828  0.63661266  1
  O  O120  1  0.44556147  0.52945998  0.13418887  1
  O  O121  1  0.94569115  0.52939513  0.13436265  1
  O  O122  1  0.32351977  0.11230686  0.13627894  1
  O  O123  1  0.82307389  0.11164226  0.13629274  1
  O  O124  1  0.23258409  0.34532081  0.13911425  1
  O  O125  1  0.73251700  0.34492995  0.13873151  1
  O  O126  1  0.22908823  0.31905707  0.02565970  1
  O  O127  1  0.72860080  0.31857781  0.02516755  1
  O  O128  1  0.43058037  0.54501071  0.03413641  1
  O  O129  1  0.93061160  0.54533915  0.03435549  1
  O  O130  1  0.34523647  0.14653696  0.03594595  1
  O  O131  1  0.84487133  0.14632682  0.03600554  1
  O  O132  1  0.23115074  0.14222522  0.52496970  1
  O  O133  1  0.72491472  0.13532180  0.52190719  1
  O  O134  1  0.34433271  0.55309245  0.53372120  1
  O  O135  1  0.84557133  0.54404176  0.53615988  1
  O  O136  1  0.42803805  0.31101725  0.53584953  1
  O  O137  1  0.93078520  0.31561087  0.53427478  1
  O  O138  1  0.27656748  0.69101000  0.96658419  1
  O  O139  1  0.77247013  0.68716346  0.96538142  1
  O  O140  1  0.07506598  0.45881740  0.97131326  1
  O  O141  1  0.57554114  0.45980642  0.97001246  1
  O  O142  1  0.16054188  0.86688916  0.96592090  1
  O  O143  1  0.65801080  0.86739460  0.96748257  1
  O  O144  1  0.27345373  0.86119832  0.46763898  1
  O  O145  1  0.77196607  0.85772228  0.46510715  1
  O  O146  1  0.15978633  0.45237134  0.46568990  1
  O  O147  1  0.65963115  0.45305760  0.46587929  1
  O  O148  1  0.07370656  0.69124641  0.47145123  1
  O  O149  1  0.57842856  0.69255949  0.46627614  1
  O  O150  1  0.06043545  0.65334028  0.35967704  1
  O  O151  1  0.55708913  0.65197404  0.35566818  1
  O  O152  1  0.26393562  0.88316220  0.36687497  1
  O  O153  1  0.76555232  0.88597443  0.36453241  1
  O  O154  1  0.17857252  0.46340218  0.36513697  1
  O  O155  1  0.67779811  0.46268254  0.36506036  1
  O  O156  1  0.06225286  0.47042499  0.85956255  1
  O  O157  1  0.56138432  0.47342183  0.85799420  1
  O  O158  1  0.17854185  0.89196330  0.86509360  1
  O  O159  1  0.67811165  0.88921219  0.86713609  1
  O  O160  1  0.26367325  0.64458853  0.86657199  1
  O  O161  1  0.76424678  0.64478832  0.86511831  1
  O  O162  1  0.01720212  0.84843775  0.41485219  1
  O  O163  1  0.51679337  0.84764895  0.41425653  1
  O  O164  1  0.39700009  0.98648090  0.41371198  1
  O  O165  1  0.89722626  0.98676684  0.41323356  1
  O  O166  1  0.09334336  0.20001063  0.41277031  1
  O  O167  1  0.59325268  0.19962303  0.41292919  1
  O  O168  1  0.01755277  0.18740801  0.91477260  1
  O  O169  1  0.51694877  0.18998949  0.91265322  1
  O  O170  1  0.09360198  0.98586801  0.91294615  1
  O  O171  1  0.59179901  0.98349510  0.91191040  1
  O  O172  1  0.39850990  0.80676406  0.91086569  1
  O  O173  1  0.89689713  0.80687712  0.91287106  1
  O  O174  1  0.48327012  0.17525520  0.58901755  1
  O  O175  1  0.99175669  0.18844203  0.58812831  1
  O  O176  1  0.08882311  0.00224575  0.58385607  1
  O  O177  1  0.58969900  0.01555852  0.58558104  1
  O  O178  1  0.40630353  0.80174298  0.58764595  1
  O  O179  1  0.90959303  0.79350485  0.58689822  1
  O  O180  1  0.49102854  0.79477365  0.08754560  1
  O  O181  1  0.99112669  0.79485057  0.08786681  1
  O  O182  1  0.40927228  0.02513378  0.08698298  1
  O  O183  1  0.90904445  0.02511429  0.08703455  1
  O  O184  1  0.08686504  0.16831178  0.08308455  1
  O  O185  1  0.58653497  0.16767268  0.08287378  1
  O  O186  1  0.34508458  0.17562930  0.74443154  1
  O  O187  1  0.84440872  0.16478804  0.74567356  1
  O  O188  1  0.23067019  0.31012305  0.74346490  1
  O  O189  1  0.73171180  0.32679353  0.74509802  1
  O  O190  1  0.42562984  0.53417451  0.74527325  1
  O  O191  1  0.91480623  0.51931221  0.74376428  1
  O  O192  1  0.33718433  0.51471980  0.24480415  1
  O  O193  1  0.83719130  0.51455480  0.24455683  1
  O  O194  1  0.41498029  0.31224868  0.24354047  1
  O  O195  1  0.91493479  0.31169461  0.24353579  1
  O  O196  1  0.23135968  0.14752724  0.24367191  1
  O  O197  1  0.73132491  0.14758049  0.24346888  1
  O  O198  1  0.31728405  0.50869328  0.92151506  1
  O  O199  1  0.81576992  0.50796090  0.92140194  1
  O  O200  1  0.42467881  0.34564890  0.92096597  1
  O  O201  1  0.92483084  0.34365308  0.92194525  1
  O  O202  1  0.24100092  0.13676984  0.92070811  1
  O  O203  1  0.73905120  0.13589150  0.92165246  1
  O  O204  1  0.31676143  0.12553920  0.42231072  1
  O  O205  1  0.81675832  0.12504872  0.42137146  1
  O  O206  1  0.24070862  0.34399282  0.42126702  1
  O  O207  1  0.74078531  0.34497798  0.42090752  1
  O  O208  1  0.42490385  0.50630090  0.42102119  1
  O  O209  1  0.92398685  0.50537777  0.42185617  1
  O  O210  1  0.16935421  0.49569407  0.08056719  1
  O  O211  1  0.66879342  0.49473931  0.08037465  1
  O  O212  1  0.06480644  0.64385458  0.07707010  1
  O  O213  1  0.56453242  0.64330572  0.07695368  1
  O  O214  1  0.25937772  0.87367912  0.07725214  1
  O  O215  1  0.75920731  0.87319173  0.07714138  1
  O  O216  1  0.17875636  0.85004566  0.57887036  1
  O  O217  1  0.67422711  0.84983718  0.58027442  1
  O  O218  1  0.25897295  0.65053436  0.57825043  1
  O  O219  1  0.75955884  0.64548712  0.57719549  1
  O  O220  1  0.06417112  0.48661618  0.57771292  1
  O  O221  1  0.56462403  0.47286266  0.57792979  1
  O  O222  1  0.15860837  0.85303880  0.25710649  1
  O  O223  1  0.65880389  0.85311612  0.25671652  1
  O  O224  1  0.25985419  0.69067600  0.25594512  1
  O  O225  1  0.75970849  0.69032201  0.25576668  1
  O  O226  1  0.08074471  0.48330260  0.25401296  1
  O  O227  1  0.58118427  0.48305140  0.25391981  1
  O  O228  1  0.15620823  0.46020301  0.75598445  1
  O  O229  1  0.65151348  0.46079857  0.75676761  1
  O  O230  1  0.08060981  0.67592943  0.75394562  1
  O  O231  1  0.57300611  0.67855890  0.75448041  1
  O  O232  1  0.25751815  0.84685070  0.75371543  1
  O  O233  1  0.76071198  0.82160146  0.75563875  1
