# generated using pymatgen
data_Ba2Nd2Mg(Fe2O5)2
_symmetry_space_group_name_H-M   'P 1'
_cell_length_a   3.60558952
_cell_length_b   7.85598383
_cell_length_c   11.04038878
_cell_angle_alpha   100.88428396
_cell_angle_beta   90.00000000
_cell_angle_gamma   90.00000000
_symmetry_Int_Tables_number   1
_chemical_formula_structural   Ba2Nd2Mg(Fe2O5)2
_chemical_formula_sum   'Ba2 Nd2 Mg1 Fe4 O10'
_cell_volume   307.09827823
_cell_formula_units_Z   1
loop_
 _symmetry_equiv_pos_site_id
 _symmetry_equiv_pos_as_xyz
  1  'x, y, z'
loop_
 _atom_site_type_symbol
 _atom_site_label
 _atom_site_symmetry_multiplicity
 _atom_site_fract_x
 _atom_site_fract_y
 _atom_site_fract_z
 _atom_site_occupancy
  Ba  Ba0  1  0.00000000  0.07977524  0.95419219  1
  Ba  Ba1  1  0.00000000  0.00638178  0.57987057  1
  Nd  Nd2  1  0.00000000  0.56525108  1.00071599  1
  Nd  Nd3  1  0.00000000  0.45180778  0.51151860  1
  Mg  Mg4  1  0.00000000  0.98219354  0.28410282  1
  Fe  Fe5  1  0.50000000  0.31288575  0.21434811  1
  Fe  Fe6  1  0.50000000  0.29781318  0.76496035  1
  Fe  Fe7  1  0.50000000  0.69532998  0.28734353  1
  Fe  Fe8  1  0.50000000  0.74913081  0.75220768  1
  O  O9  1  0.00000000  0.69730954  0.65818135  1
  O  O10  1  0.50000000  0.36517238  0.04104191  1
  O  O11  1  0.00000000  0.72802996  0.20583672  1
  O  O12  1  0.00000000  0.34694203  0.81904778  1
  O  O13  1  0.50000000  0.95460844  0.37121778  1
  O  O14  1  0.00000000  0.19222612  0.21535840  1
  O  O15  1  0.50000000  0.72243340  0.93048542  1
  O  O16  1  0.50000000  0.49789690  0.37862256  1
  O  O17  1  0.50000000  0.01975572  0.76642569  1
  O  O18  1  0.50000000  0.29338939  0.57612455  1
