# generated using pymatgen
data_Na2In4Ga4SiS11O48
_symmetry_space_group_name_H-M   'P 1'
_cell_length_a   17.35202149
_cell_length_b   8.68455188
_cell_length_c   22.78649082
_cell_angle_alpha   89.96514728
_cell_angle_beta   90.05403000
_cell_angle_gamma   120.10957242
_symmetry_Int_Tables_number   1
_chemical_formula_structural   Na2In4Ga4SiS11O48
_chemical_formula_sum   'Na6 In12 Ga12 Si3 S33 O144'
_cell_volume   2970.46744693
_cell_formula_units_Z   3
loop_
 _symmetry_equiv_pos_site_id
 _symmetry_equiv_pos_as_xyz
  1  'x, y, z'
loop_
 _atom_site_type_symbol
 _atom_site_label
 _atom_site_symmetry_multiplicity
 _atom_site_fract_x
 _atom_site_fract_y
 _atom_site_fract_z
 _atom_site_occupancy
  Na  Na0  1  0.00235807  0.98330342  0.49589350  1
  Na  Na1  1  0.50286671  0.02257240  0.99760689  1
  Na  Na2  1  0.34181185  0.33409318  0.83604502  1
  Na  Na3  1  0.84156820  0.35503410  0.83044026  1
  Na  Na4  1  0.33173047  0.33113770  0.33380108  1
  Na  Na5  1  0.84231286  0.34698740  0.33338043  1
  In  In6  1  -0.00019604  0.99243191  0.85326913  1
  In  In7  1  0.49947716  0.00696727  0.85398475  1
  In  In8  1  0.99971995  0.99340021  0.65206507  1
  In  In9  1  0.49986760  0.00072148  0.64280848  1
  In  In10  1  0.33711940  0.33946916  0.68288852  1
  In  In11  1  0.83717706  0.34636454  0.68272106  1
  In  In12  1  0.33899781  0.33709109  0.98442014  1
  In  In13  1  0.83981288  0.34229124  0.47794317  1
  In  In14  1  0.66294040  0.65686649  0.02214457  1
  In  In15  1  0.16227713  0.67103295  0.51393381  1
  In  In16  1  0.15807198  0.66541087  0.81263936  1
  In  In17  1  0.66604510  0.66040483  0.81825860  1
  Ga  Ga18  1  0.00226229  0.99263437  0.34888886  1
  Ga  Ga19  1  0.50060164  0.00003858  0.35212340  1
  Ga  Ga20  1  0.99841266  0.99837054  0.14724499  1
  Ga  Ga21  1  0.50031959  0.00177199  0.15398587  1
  Ga  Ga22  1  0.32756428  0.32812195  0.18184187  1
  Ga  Ga23  1  0.83933813  0.33690848  0.18360281  1
  Ga  Ga24  1  0.83494939  0.33663680  0.98590751  1
  Ga  Ga25  1  0.33451268  0.33438759  0.48127146  1
  Ga  Ga26  1  0.16358977  0.66222525  0.02008773  1
  Ga  Ga27  1  0.66543022  0.66919377  0.51591504  1
  Ga  Ga28  1  0.16381549  0.66440838  0.31521750  1
  Ga  Ga29  1  0.66382115  0.66235839  0.31288979  1
  Si  Si30  1  0.99764940  0.69965698  0.74987341  1
  Si  Si31  1  0.51652908  0.36890291  0.91858475  1
  Si  Si32  1  0.02066457  0.67300990  0.41013409  1
  S  S33  1  0.14742913  0.00430615  0.24699171  1
  S  S34  1  0.64576184  0.00108151  0.25210206  1
  S  S35  1  0.35356741  0.70868189  0.25228951  1
  S  S36  1  0.85301143  0.70659655  0.24813375  1
  S  S37  1  0.99998349  0.28415057  0.24997543  1
  S  S38  1  0.49926099  0.29052778  0.25028121  1
  S  S39  1  0.15363459  0.30033658  0.75131448  1
  S  S40  1  0.64698750  0.29403176  0.74769691  1
  S  S41  1  0.50044562  0.70833538  0.75056572  1
  S  S42  1  0.35271262  0.00195749  0.74786947  1
  S  S43  1  0.84745697  0.99810654  0.75236925  1
  S  S44  1  0.48300918  0.34341121  0.57684161  1
  S  S45  1  0.98416121  0.32552667  0.58246729  1
  S  S46  1  0.18935289  0.04700888  0.57882500  1
  S  S47  1  0.68793095  0.03339178  0.57911743  1
  S  S48  1  0.33253872  0.62394817  0.57812448  1
  S  S49  1  0.82620208  0.63422320  0.57821989  1
  S  S50  1  0.47778956  0.63545770  0.09139856  1
  S  S51  1  0.97959615  0.62734750  0.08472676  1
  S  S52  1  0.33307475  0.03062931  0.08793601  1
  S  S53  1  0.83740398  0.05008194  0.08625275  1
  S  S54  1  0.18368181  0.33208326  0.08548279  1
  S  S55  1  0.68922375  0.32291442  0.08824529  1
  S  S56  1  0.30525433  0.66287800  0.91990409  1
  S  S57  1  0.81783254  0.66000219  0.92241204  1
  S  S58  1  0.01646457  0.37068964  0.92339230  1
  S  S59  1  0.16540611  0.95411469  0.92265917  1
  S  S60  1  0.67507359  0.97677651  0.92078529  1
  S  S61  1  0.31897402  0.96801967  0.41278988  1
  S  S62  1  0.80738510  0.94431319  0.41305481  1
  S  S63  1  0.17042626  0.37190166  0.41322591  1
  S  S64  1  0.65994378  0.37500558  0.41247257  1
  S  S65  1  0.52145921  0.66786879  0.41453573  1
  O  O66  1  0.11017137  0.04493527  0.29938513  1
  O  O67  1  0.60551837  0.03816094  0.30407496  1
  O  O68  1  0.41346636  0.78761941  0.30416598  1
  O  O69  1  0.91051168  0.78499672  0.30038342  1
  O  O70  1  0.48154950  0.17431435  0.30195935  1
  O  O71  1  0.98120790  0.16854028  0.30281732  1
  O  O72  1  0.11058266  0.19568130  0.80461448  1
  O  O73  1  0.60694827  0.18868846  0.80123139  1
  O  O74  1  0.48671677  0.78886153  0.80395543  1
  O  O75  1  0.98142107  0.77983890  0.80957122  1
  O  O76  1  0.40798125  0.03349205  0.80051097  1
  O  O77  1  0.90439151  0.03538712  0.80494175  1
  O  O78  1  0.39459558  0.98856941  0.69321778  1
  O  O79  1  0.88836316  0.98130112  0.69806236  1
  O  O80  1  0.10192023  0.22391465  0.69725124  1
  O  O81  1  0.59272401  0.21274565  0.69448662  1
  O  O82  1  0.01021312  0.80164441  0.68810797  1
  O  O83  1  0.50416775  0.80437499  0.69641215  1
  O  O84  1  0.39297488  0.82099911  0.19948412  1
  O  O85  1  0.89288811  0.81736065  0.19508876  1
  O  O86  1  0.01115641  0.20033915  0.19676585  1
  O  O87  1  0.51680388  0.21325657  0.19705893  1
  O  O88  1  0.09114773  0.97348563  0.19446693  1
  O  O89  1  0.58939605  0.96717052  0.19912350  1
  O  O90  1  0.44852397  0.37898264  0.63114689  1
  O  O91  1  0.94103733  0.34439411  0.63476406  1
  O  O92  1  0.23775192  0.13061317  0.63326554  1
  O  O93  1  0.74194243  0.11010346  0.63234948  1
  O  O94  1  0.31786487  0.52225707  0.63285983  1
  O  O95  1  0.81240358  0.52982703  0.63176430  1
  O  O96  1  0.43207031  0.51500718  0.14227120  1
  O  O97  1  0.94167558  0.51153729  0.13776402  1
  O  O98  1  0.31706393  0.11648524  0.13982253  1
  O  O99  1  0.82089300  0.12935654  0.13967094  1
  O  O100  1  0.24328335  0.37206846  0.13811953  1
  O  O101  1  0.74390625  0.34354167  0.14118366  1
  O  O102  1  0.22182771  0.29170983  0.03413336  1
  O  O103  1  0.72769185  0.29206866  0.03437018  1
  O  O104  1  0.42508653  0.56824762  0.03707427  1
  O  O105  1  0.92017641  0.54855750  0.03330719  1
  O  O106  1  0.35426096  0.14204591  0.03514242  1
  O  O107  1  0.85424514  0.16463880  0.03399020  1
  O  O108  1  0.23516295  0.15623896  0.52539741  1
  O  O109  1  0.72886934  0.14759774  0.52693346  1
  O  O110  1  0.34694005  0.53496586  0.52653382  1
  O  O111  1  0.84245297  0.55239128  0.52620800  1
  O  O112  1  0.42314495  0.31041004  0.52568020  1
  O  O113  1  0.93034911  0.29650944  0.52843622  1
  O  O114  1  0.26375706  0.68845869  0.97356731  1
  O  O115  1  0.77438933  0.68110448  0.97474890  1
  O  O116  1  0.07328064  0.45730278  0.97589380  1
  O  O117  1  0.56879863  0.44641180  0.98031813  1
  O  O118  1  0.15723071  0.84655640  0.97603748  1
  O  O119  1  0.66449214  0.87296321  0.97438635  1
  O  O120  1  0.28444215  0.86246781  0.46641129  1
  O  O121  1  0.76818218  0.83524912  0.46652975  1
  O  O122  1  0.15678643  0.44346640  0.46792795  1
  O  O123  1  0.64667884  0.45600986  0.46555293  1
  O  O124  1  0.07235414  0.71121931  0.47219594  1
  O  O125  1  0.57706754  0.70037556  0.46709874  1
  O  O126  1  0.06865706  0.63970796  0.35430017  1
  O  O127  1  0.55941302  0.62947276  0.36170230  1
  O  O128  1  0.26082275  0.88650028  0.36086069  1
  O  O129  1  0.75265241  0.85865729  0.35975716  1
  O  O130  1  0.19061940  0.49141287  0.36182908  1
  O  O131  1  0.67665494  0.48858388  0.35936056  1
  O  O132  1  0.05157530  0.47733865  0.87002290  1
  O  O133  1  0.55803939  0.48029218  0.85910301  1
  O  O134  1  0.18202738  0.88071001  0.86937283  1
  O  O135  1  0.69234300  0.90470200  0.86738620  1
  O  O136  1  0.25699796  0.65014537  0.86585710  1
  O  O137  1  0.76567725  0.62723562  0.86809282  1
  O  O138  1  0.00994452  0.85048784  0.40340797  1
  O  O139  1  0.51324338  0.82818414  0.40546605  1
  O  O140  1  0.40846634  0.98948833  0.40300419  1
  O  O141  1  0.89769554  0.97008134  0.40695832  1
  O  O142  1  0.08871707  0.19769187  0.40351608  1
  O  O143  1  0.57768541  0.19969101  0.40436966  1
  O  O144  1  0.00739971  0.19401364  0.91727620  1
  O  O145  1  0.50585528  0.17171875  0.91757318  1
  O  O146  1  0.08410842  0.96495977  0.91969164  1
  O  O147  1  0.59313653  0.98791598  0.91538719  1
  O  O148  1  0.39680021  0.81667399  0.91817748  1
  O  O149  1  0.90566654  0.81925934  0.91892662  1
  O  O150  1  0.49146062  0.18390891  0.58228074  1
  O  O151  1  0.99283205  0.16424267  0.58700005  1
  O  O152  1  0.10082526  0.03158399  0.57930790  1
  O  O153  1  0.59812961  0.01089447  0.58485457  1
  O  O154  1  0.41401642  0.79975622  0.58214962  1
  O  O155  1  0.90373737  0.81609011  0.58229001  1
  O  O156  1  0.48571116  0.81337701  0.10019896  1
  O  O157  1  0.98811058  0.80405623  0.09478458  1
  O  O158  1  0.41369316  0.01254955  0.09810705  1
  O  O159  1  0.91828672  0.03501649  0.09444189  1
  O  O160  1  0.09518896  0.17405339  0.09651553  1
  O  O161  1  0.59847392  0.16083607  0.09462786  1
  O  O162  1  0.34332505  0.16341835  0.74487721  1
  O  O163  1  0.82970490  0.14662004  0.74754890  1
  O  O164  1  0.24119208  0.30693010  0.74813148  1
  O  O165  1  0.73243003  0.29884123  0.74257232  1
  O  O166  1  0.42010883  0.52628275  0.74828408  1
  O  O167  1  0.90751135  0.50417254  0.74887689  1
  O  O168  1  0.34366815  0.52848700  0.24418565  1
  O  O169  1  0.84390849  0.52540188  0.24066876  1
  O  O170  1  0.41899391  0.30919326  0.24216200  1
  O  O171  1  0.91899536  0.30607005  0.24354691  1
  O  O172  1  0.23818046  0.17086802  0.23974056  1
  O  O173  1  0.73567946  0.15992550  0.24450422  1
  O  O174  1  0.30749816  0.49565661  0.92454705  1
  O  O175  1  0.82670022  0.49712647  0.92919560  1
  O  O176  1  0.41923496  0.35514295  0.91887845  1
  O  O177  1  0.92706469  0.35344932  0.93210430  1
  O  O178  1  0.24368331  0.13432554  0.92777917  1
  O  O179  1  0.75369705  0.16014131  0.92770345  1
  O  O180  1  0.32909313  0.14983320  0.41979029  1
  O  O181  1  0.81067219  0.11722047  0.41749307  1
  O  O182  1  0.24990752  0.34611444  0.41944876  1
  O  O183  1  0.73746733  0.34990406  0.41734337  1
  O  O184  1  0.43106048  0.50768627  0.42217441  1
  O  O185  1  0.92181962  0.49310731  0.41222849  1
  O  O186  1  0.17465999  0.49097977  0.07628159  1
  O  O187  1  0.68278709  0.48430407  0.08476475  1
  O  O188  1  0.06792358  0.64625197  0.07501662  1
  O  O189  1  0.56658348  0.65651174  0.08726989  1
  O  O190  1  0.25369255  0.85364188  0.07956702  1
  O  O191  1  0.75830771  0.87331255  0.07904177  1
  O  O192  1  0.18466455  0.87410686  0.57586017  1
  O  O193  1  0.67856747  0.85556568  0.57011175  1
  O  O194  1  0.25383447  0.64175601  0.56985187  1
  O  O195  1  0.74378555  0.64320745  0.56981966  1
  O  O196  1  0.07278307  0.48381817  0.57776181  1
  O  O197  1  0.57068217  0.50244118  0.56686359  1
  O  O198  1  0.16022441  0.85103219  0.25503385  1
  O  O199  1  0.65297127  0.83955003  0.26108640  1
  O  O200  1  0.26524596  0.69190571  0.26178106  1
  O  O201  1  0.76403578  0.68658184  0.25702492  1
  O  O202  1  0.08109135  0.45863161  0.25685908  1
  O  O203  1  0.57926109  0.46858856  0.25866522  1
  O  O204  1  0.17013890  0.48157785  0.75650562  1
  O  O205  1  0.65968142  0.47323742  0.75199492  1
  O  O206  1  0.08603205  0.68244264  0.75026404  1
  O  O207  1  0.58183309  0.69908523  0.75376095  1
  O  O208  1  0.26716137  0.84125377  0.75338598  1
  O  O209  1  0.76236528  0.82960775  0.75874897  1
