# generated using pymatgen
data_Na6Ti4Nb4Si9(SO16)3
_symmetry_space_group_name_H-M   'P 1'
_cell_length_a   17.74670758
_cell_length_b   8.87315901
_cell_length_c   22.67326774
_cell_angle_alpha   89.96090130
_cell_angle_beta   89.96112582
_cell_angle_gamma   119.96939203
_symmetry_Int_Tables_number   1
_chemical_formula_structural   Na6Ti4Nb4Si9(SO16)3
_chemical_formula_sum   'Na18 Ti12 Nb12 Si27 S9 O144'
_cell_volume   3092.95975411
_cell_formula_units_Z   3
loop_
 _symmetry_equiv_pos_site_id
 _symmetry_equiv_pos_as_xyz
  1  'x, y, z'
loop_
 _atom_site_type_symbol
 _atom_site_label
 _atom_site_symmetry_multiplicity
 _atom_site_fract_x
 _atom_site_fract_y
 _atom_site_fract_z
 _atom_site_occupancy
  Na  Na0  1  0.00036326  0.63773491  0.24719703  1
  Na  Na1  1  0.50040992  0.62749251  0.24837741  1
  Na  Na2  1  0.00028844  0.37320427  0.74849625  1
  Na  Na3  1  0.50112495  0.36548701  0.74779319  1
  Na  Na4  1  0.33480802  0.96820630  0.58656014  1
  Na  Na5  1  0.83280969  0.70086123  0.08233300  1
  Na  Na6  1  0.99825734  0.00529826  0.50220676  1
  Na  Na7  1  0.50422968  0.00013789  0.50529523  1
  Na  Na8  1  0.00343842  0.01034948  0.00092112  1
  Na  Na9  1  0.49844353  0.99207924  0.99791792  1
  Na  Na10  1  0.32929840  0.33731881  0.82895514  1
  Na  Na11  1  0.82866665  0.33705481  0.82995923  1
  Na  Na12  1  0.32984712  0.32248486  0.33173366  1
  Na  Na13  1  0.82582003  0.31971287  0.33173464  1
  Na  Na14  1  0.17039651  0.67280527  0.16446376  1
  Na  Na15  1  0.66466236  0.65948664  0.16784135  1
  Na  Na16  1  0.16589621  0.67205268  0.66930254  1
  Na  Na17  1  0.66727656  0.66632358  0.66792723  1
  Ti  Ti18  1  0.50772779  0.01508055  0.65182233  1
  Ti  Ti19  1  0.00558612  0.98238361  0.14673894  1
  Ti  Ti20  1  0.33453513  0.31771152  0.69115516  1
  Ti  Ti21  1  0.83011444  0.34696587  0.68426775  1
  Ti  Ti22  1  0.33135848  0.31427285  0.18371825  1
  Ti  Ti23  1  0.82759445  0.34817727  0.18675432  1
  Ti  Ti24  1  0.66390955  0.67428533  0.01974709  1
  Ti  Ti25  1  0.16700382  0.65468216  0.52355572  1
  Ti  Ti26  1  0.17654628  0.68057485  0.31639176  1
  Ti  Ti27  1  0.66765597  0.68228572  0.30844253  1
  Ti  Ti28  1  0.16862440  0.65363107  0.80788242  1
  Ti  Ti29  1  0.67019068  0.67384177  0.81262545  1
  Nb  Nb30  1  0.00162914  0.00065106  0.35478454  1
  Nb  Nb31  1  0.50385832  0.01034327  0.35621637  1
  Nb  Nb32  1  0.00235219  0.99600602  0.85555453  1
  Nb  Nb33  1  0.50009376  0.98776771  0.85100245  1
  Nb  Nb34  1  0.00694581  0.00018811  0.64173302  1
  Nb  Nb35  1  0.50620267  0.01257213  0.14135697  1
  Nb  Nb36  1  0.33242772  0.34460608  0.98359692  1
  Nb  Nb37  1  0.83219312  0.34237247  0.97280087  1
  Nb  Nb38  1  0.33289985  0.32358779  0.47496113  1
  Nb  Nb39  1  0.83156767  0.31912244  0.48466380  1
  Nb  Nb40  1  0.16846781  0.65225210  0.02453307  1
  Nb  Nb41  1  0.66761103  0.68374485  0.52587411  1
  Si  Si42  1  0.14994538  0.00261165  0.25072603  1
  Si  Si43  1  0.64827695  0.00800901  0.24872299  1
  Si  Si44  1  0.85361714  0.71472808  0.24850702  1
  Si  Si45  1  0.49912008  0.29312727  0.25014260  1
  Si  Si46  1  0.14754381  0.28736404  0.74877676  1
  Si  Si47  1  0.64965416  0.29470148  0.75137072  1
  Si  Si48  1  0.99911558  0.70444048  0.75019341  1
  Si  Si49  1  0.50093180  0.70807200  0.74632015  1
  Si  Si50  1  0.35439795  0.99097599  0.74883246  1
  Si  Si51  1  0.47739858  0.33024250  0.58520037  1
  Si  Si52  1  0.97934388  0.33756914  0.58768966  1
  Si  Si53  1  0.19315975  0.04490054  0.58303911  1
  Si  Si54  1  0.68534373  0.05031724  0.58914241  1
  Si  Si55  1  0.83325872  0.62168125  0.58162811  1
  Si  Si56  1  0.47982976  0.62061837  0.08732951  1
  Si  Si57  1  0.97680704  0.61529179  0.08487510  1
  Si  Si58  1  0.33280967  0.04439205  0.08154439  1
  Si  Si59  1  0.18677185  0.32261932  0.08878522  1
  Si  Si60  1  0.69063357  0.34123888  0.08079731  1
  Si  Si61  1  0.31053375  0.66799879  0.91456209  1
  Si  Si62  1  0.80679143  0.67308706  0.91701011  1
  Si  Si63  1  0.02531433  0.38221173  0.91398592  1
  Si  Si64  1  0.66538013  0.95059469  0.91597813  1
  Si  Si65  1  0.30982150  0.94742880  0.41952469  1
  Si  Si66  1  0.80871925  0.95351000  0.41476441  1
  Si  Si67  1  0.16692248  0.38476196  0.41656726  1
  Si  Si68  1  0.52486885  0.66696465  0.41422073  1
  S  S69  1  0.35422168  0.71172270  0.25040846  1
  S  S70  1  0.00065920  0.28838606  0.24895553  1
  S  S71  1  0.85477842  0.99729740  0.74996938  1
  S  S72  1  0.33369080  0.61894883  0.58355869  1
  S  S73  1  0.83393056  0.04868666  0.08418822  1
  S  S74  1  0.52285321  0.37985228  0.91677819  1
  S  S75  1  0.16902945  0.95358198  0.91595726  1
  S  S76  1  0.66918322  0.38468706  0.41635911  1
  S  S77  1  0.02330471  0.66473649  0.41635289  1
  O  O78  1  0.09813147  0.02611025  0.30743547  1
  O  O79  1  0.59809130  0.03099289  0.30638461  1
  O  O80  1  0.40916818  0.79457647  0.30384361  1
  O  O81  1  0.92056079  0.80861525  0.30473070  1
  O  O82  1  0.48492372  0.16515413  0.30739051  1
  O  O83  1  0.98788147  0.18102443  0.30347460  1
  O  O84  1  0.09592841  0.16442618  0.80660682  1
  O  O85  1  0.59936221  0.16848726  0.80833845  1
  O  O86  1  0.48452683  0.79799376  0.80606285  1
  O  O87  1  0.98474296  0.80408651  0.80749766  1
  O  O88  1  0.41977881  0.03562809  0.80605601  1
  O  O89  1  0.91016046  0.02519614  0.80374317  1
  O  O90  1  0.39927876  0.96770885  0.68927536  1
  O  O91  1  0.89402642  0.96972334  0.69694449  1
  O  O92  1  0.07945447  0.19656076  0.69348174  1
  O  O93  1  0.58326051  0.20550973  0.69442969  1
  O  O94  1  0.01129763  0.83317287  0.69396291  1
  O  O95  1  0.51727248  0.83983980  0.69169934  1
  O  O96  1  0.39228742  0.81750665  0.19714185  1
  O  O97  1  0.90117075  0.83183766  0.18974595  1
  O  O98  1  0.01415190  0.20727064  0.19689698  1
  O  O99  1  0.51125367  0.18887165  0.19397444  1
  O  O100  1  0.08225303  0.96227589  0.19429752  1
  O  O101  1  0.58082720  0.96484325  0.19344438  1
  O  O102  1  0.43402577  0.36370063  0.64355193  1
  O  O103  1  0.93449734  0.36636703  0.64526400  1
  O  O104  1  0.25444906  0.13811582  0.63993470  1
  O  O105  1  0.75226097  0.14263534  0.64269294  1
  O  O106  1  0.31892825  0.51373640  0.63640833  1
  O  O107  1  0.81775209  0.50177694  0.63986085  1
  O  O108  1  0.43397920  0.50210884  0.14513261  1
  O  O109  1  0.93299485  0.50172937  0.14492149  1
  O  O110  1  0.31769314  0.13328858  0.14002910  1
  O  O111  1  0.82060438  0.12866857  0.13725335  1
  O  O112  1  0.25187413  0.36121189  0.14324673  1
  O  O113  1  0.75178794  0.36965938  0.13972043  1
  O  O114  1  0.23213786  0.29939708  0.02759984  1
  O  O115  1  0.73591958  0.30265126  0.02535394  1
  O  O116  1  0.41728506  0.53049353  0.02780439  1
  O  O117  1  0.91246150  0.52583705  0.02851560  1
  O  O118  1  0.34863288  0.16775358  0.02381261  1
  O  O119  1  0.84646492  0.15144782  0.03023950  1
  O  O120  1  0.23534470  0.16790346  0.52467177  1
  O  O121  1  0.73320541  0.16379873  0.52750250  1
  O  O122  1  0.34448081  0.53912080  0.52915630  1
  O  O123  1  0.84882754  0.52970353  0.52341095  1
  O  O124  1  0.41351920  0.30362555  0.52782624  1
  O  O125  1  0.91768132  0.30449001  0.52749918  1
  O  O126  1  0.26454883  0.69289257  0.97416898  1
  O  O127  1  0.76309431  0.69370481  0.97739801  1
  O  O128  1  0.08470909  0.47495092  0.97292298  1
  O  O129  1  0.57627220  0.46388822  0.96999062  1
  O  O130  1  0.15395701  0.85082998  0.97038683  1
  O  O131  1  0.65177234  0.82823483  0.97413527  1
  O  O132  1  0.26326219  0.83133668  0.47693773  1
  O  O133  1  0.76633837  0.83625919  0.47395024  1
  O  O134  1  0.15089301  0.47563782  0.47394344  1
  O  O135  1  0.65402567  0.45635810  0.46973727  1
  O  O136  1  0.07580172  0.69170174  0.46901612  1
  O  O137  1  0.58543984  0.69637090  0.47233655  1
  O  O138  1  0.06264534  0.64342159  0.36112608  1
  O  O139  1  0.56715472  0.63595582  0.35524650  1
  O  O140  1  0.25004666  0.86101403  0.35956160  1
  O  O141  1  0.74771596  0.85736398  0.35799789  1
  O  O142  1  0.17651979  0.50540344  0.35853806  1
  O  O143  1  0.67953146  0.48402426  0.36199866  1
  O  O144  1  0.06649905  0.49806194  0.85541488  1
  O  O145  1  0.56094901  0.48234904  0.86225313  1
  O  O146  1  0.17936848  0.87558728  0.86280937  1
  O  O147  1  0.67759128  0.85289445  0.85897519  1
  O  O148  1  0.24781321  0.63815122  0.85866288  1
  O  O149  1  0.74744405  0.64015337  0.85873153  1
  O  O150  1  0.01412955  0.82502413  0.41115245  1
  O  O151  1  0.51362219  0.83985675  0.40705882  1
  O  O152  1  0.40661278  0.97223898  0.40912164  1
  O  O153  1  0.90666429  0.97746558  0.40633337  1
  O  O154  1  0.08103665  0.18996870  0.40757824  1
  O  O155  1  0.58937802  0.20297426  0.41148665  1
  O  O156  1  0.01344689  0.18641888  0.90834306  1
  O  O157  1  0.51399624  0.20526171  0.91294146  1
  O  O158  1  0.08897918  0.97530429  0.91200441  1
  O  O159  1  0.58106166  0.97694139  0.91118027  1
  O  O160  1  0.40673527  0.84114141  0.91036893  1
  O  O161  1  0.90575205  0.84031893  0.90942921  1
  O  O162  1  0.48093695  0.15056786  0.58893584  1
  O  O163  1  0.98652929  0.16157445  0.59131365  1
  O  O164  1  0.09602301  0.02483929  0.58853955  1
  O  O165  1  0.58911318  0.02475162  0.59044329  1
  O  O166  1  0.40928629  0.79732244  0.58709434  1
  O  O167  1  0.91767404  0.81391883  0.59052287  1
  O  O168  1  0.48622928  0.81037860  0.09235582  1
  O  O169  1  0.98195323  0.80734895  0.09057634  1
  O  O170  1  0.41725977  0.02103003  0.09122315  1
  O  O171  1  0.91087760  0.02364157  0.08956213  1
  O  O172  1  0.08858213  0.15738958  0.09425512  1
  O  O173  1  0.59553638  0.16617077  0.08841334  1
  O  O174  1  0.34949809  0.17180917  0.74369766  1
  O  O175  1  0.84825416  0.15616478  0.74642288  1
  O  O176  1  0.24215065  0.30890550  0.74122591  1
  O  O177  1  0.74310063  0.30710845  0.74362728  1
  O  O178  1  0.41577670  0.51495732  0.74155997  1
  O  O179  1  0.91492999  0.50987113  0.74465952  1
  O  O180  1  0.34679546  0.53936171  0.24651687  1
  O  O181  1  0.85128399  0.52492092  0.24334520  1
  O  O182  1  0.41496441  0.32015493  0.24455761  1
  O  O183  1  0.92230110  0.30774929  0.24550510  1
  O  O184  1  0.24282252  0.17549825  0.24399948  1
  O  O185  1  0.74495920  0.17533958  0.24073543  1
  O  O186  1  0.32086547  0.49245111  0.92229600  1
  O  O187  1  0.81941507  0.50025576  0.92191657  1
  O  O188  1  0.43436140  0.36132270  0.92235767  1
  O  O189  1  0.92830660  0.35638907  0.92598800  1
  O  O190  1  0.24580028  0.13266572  0.92171420  1
  O  O191  1  0.75309987  0.14019408  0.92443296  1
  O  O192  1  0.31966199  0.14135628  0.42142435  1
  O  O193  1  0.82146892  0.15149463  0.42127595  1
  O  O194  1  0.25277479  0.36581410  0.42311048  1
  O  O195  1  0.74596221  0.35899879  0.42095421  1
  O  O196  1  0.42755009  0.50030105  0.42487466  1
  O  O197  1  0.93451322  0.51058166  0.42014495  1
  O  O198  1  0.17936702  0.49907270  0.07923313  1
  O  O199  1  0.68420114  0.51603142  0.07635689  1
  O  O200  1  0.07415998  0.64627283  0.07645555  1
  O  O201  1  0.57502174  0.64085954  0.07504300  1
  O  O202  1  0.24610430  0.85500982  0.07485452  1
  O  O203  1  0.75509895  0.86870144  0.07891277  1
  O  O204  1  0.18377368  0.85359697  0.57477961  1
  O  O205  1  0.67993826  0.86063953  0.57922313  1
  O  O206  1  0.25367484  0.64064114  0.57774725  1
  O  O207  1  0.74639966  0.63689096  0.57416719  1
  O  O208  1  0.07441908  0.50822217  0.57444341  1
  O  O209  1  0.57361546  0.50100428  0.57447022  1
  O  O210  1  0.14955920  0.81682760  0.25857304  1
  O  O211  1  0.65153806  0.82788505  0.25532389  1
  O  O212  1  0.26589180  0.69345389  0.25723267  1
  O  O213  1  0.75786487  0.68650091  0.25806798  1
  O  O214  1  0.07775222  0.46671213  0.25642539  1
  O  O215  1  0.58543091  0.48283608  0.25724271  1
  O  O216  1  0.15055829  0.47408823  0.75527714  1
  O  O217  1  0.65269250  0.48138072  0.75912525  1
  O  O218  1  0.08561400  0.68840068  0.75722477  1
  O  O219  1  0.58536318  0.68326347  0.75812580  1
  O  O220  1  0.25798444  0.82663834  0.75891597  1
  O  O221  1  0.76752169  0.84048590  0.75640010  1
