# generated using pymatgen
data_Na4CaTi3Si3(SO8)3
_symmetry_space_group_name_H-M   'P 1'
_cell_length_a   8.99123345
_cell_length_b   8.98098950
_cell_length_c   22.54605719
_cell_angle_alpha   89.21579771
_cell_angle_beta   90.87440518
_cell_angle_gamma   119.91805842
_symmetry_Int_Tables_number   1
_chemical_formula_structural   Na4CaTi3Si3(SO8)3
_chemical_formula_sum   'Na12 Ca3 Ti9 Si9 S9 O72'
_cell_volume   1577.76186762
_cell_formula_units_Z   3
loop_
 _symmetry_equiv_pos_site_id
 _symmetry_equiv_pos_as_xyz
  1  'x, y, z'
loop_
 _atom_site_type_symbol
 _atom_site_label
 _atom_site_symmetry_multiplicity
 _atom_site_fract_x
 _atom_site_fract_y
 _atom_site_fract_z
 _atom_site_occupancy
  Na  Na0  1  0.64147969  0.00677983  0.23979064  1
  Na  Na1  1  0.36939219  0.34735931  0.25020073  1
  Na  Na2  1  0.98755777  0.63934344  0.24950869  1
  Na  Na3  1  0.99161138  0.36309229  0.75640668  1
  Na  Na4  1  0.38486780  0.00969341  0.75567043  1
  Na  Na5  1  0.70772422  0.67559319  0.40755829  1
  Na  Na6  1  0.00829820  0.01938914  0.49830659  1
  Na  Na7  1  0.00570922  0.00833400  0.00154983  1
  Na  Na8  1  0.65572803  0.33652008  0.83527435  1
  Na  Na9  1  0.64686175  0.31698584  0.32449412  1
  Na  Na10  1  0.34617565  0.68269362  0.15866724  1
  Na  Na11  1  0.35437919  0.66406571  0.67052234  1
  Ca  Ca12  1  0.00943949  0.01046606  0.35815623  1
  Ca  Ca13  1  0.66094045  0.33413410  0.68459806  1
  Ca  Ca14  1  0.65732604  0.32062047  0.17156488  1
  Ti  Ti15  1  0.01391271  0.02772207  0.85947015  1
  Ti  Ti16  1  0.98910326  0.01141201  0.65334914  1
  Ti  Ti17  1  0.98544542  0.97859819  0.14879750  1
  Ti  Ti18  1  0.66779796  0.30262247  0.97777478  1
  Ti  Ti19  1  0.65176665  0.31713376  0.47558284  1
  Ti  Ti20  1  0.32927221  0.67276879  0.01504058  1
  Ti  Ti21  1  0.34088668  0.66483187  0.51582475  1
  Ti  Ti22  1  0.36091564  0.68598433  0.31194326  1
  Ti  Ti23  1  0.34145899  0.66879374  0.81763203  1
  Si  Si24  1  0.29188676  0.99667744  0.25109839  1
  Si  Si25  1  0.70432806  0.70134630  0.25405754  1
  Si  Si26  1  0.28694050  0.29664354  0.75362462  1
  Si  Si27  1  0.70699610  0.98752615  0.75537899  1
  Si  Si28  1  0.66774442  0.01734384  0.08381537  1
  Si  Si29  1  0.04422741  0.38531016  0.91651729  1
  Si  Si30  1  0.32957844  0.95483124  0.91413469  1
  Si  Si31  1  0.61825797  0.95895694  0.41901086  1
  Si  Si32  1  0.33703607  0.38215746  0.41843617  1
  S  S33  1  0.00929881  0.29932643  0.24796872  1
  S  S34  1  0.00770565  0.72482193  0.75118728  1
  S  S35  1  0.96643259  0.33458129  0.58302792  1
  S  S36  1  0.36373766  0.03069137  0.58116346  1
  S  S37  1  0.67089592  0.64059462  0.58015937  1
  S  S38  1  0.97026299  0.63437120  0.08073155  1
  S  S39  1  0.36221041  0.33386399  0.07932672  1
  S  S40  1  0.62268689  0.66447278  0.91809240  1
  S  S41  1  0.03833520  0.64926510  0.42068200  1
  O  O42  1  0.21983108  0.04700042  0.30608920  1
  O  O43  1  0.80460283  0.77591502  0.31491841  1
  O  O44  1  0.97029235  0.19653896  0.30260377  1
  O  O45  1  0.18495441  0.17399680  0.81077887  1
  O  O46  1  0.99043641  0.80442441  0.80431488  1
  O  O47  1  0.83353500  0.00281006  0.80990195  1
  O  O48  1  0.80298855  0.96997954  0.69282010  1
  O  O49  1  0.15582895  0.18773685  0.69458127  1
  O  O50  1  0.02186334  0.82806601  0.69558435  1
  O  O51  1  0.80736027  0.83464393  0.19609566  1
  O  O52  1  0.03021625  0.20934551  0.19601345  1
  O  O53  1  0.16004527  0.96899610  0.19201115  1
  O  O54  1  0.90275403  0.35941760  0.63945893  1
  O  O55  1  0.45923201  0.09374181  0.63739513  1
  O  O56  1  0.64253362  0.54090482  0.63480778  1
  O  O57  1  0.91184422  0.54820431  0.13859223  1
  O  O58  1  0.62577183  0.07200987  0.14501356  1
  O  O59  1  0.44771218  0.36456618  0.13817628  1
  O  O60  1  0.46737012  0.31719356  0.03196695  1
  O  O61  1  0.85271062  0.53823600  0.03151748  1
  O  O62  1  0.68933309  0.16064396  0.02898968  1
  O  O63  1  0.46641232  0.15237857  0.53133258  1
  O  O64  1  0.68707805  0.55132285  0.52795682  1
  O  O65  1  0.84844093  0.31367618  0.53286906  1
  O  O66  1  0.53843282  0.68901308  0.96926814  1
  O  O67  1  0.16887297  0.47997603  0.97238244  1
  O  O68  1  0.31168527  0.83277656  0.97071413  1
  O  O69  1  0.49468777  0.84086823  0.47322760  1
  O  O70  1  0.33528661  0.49579040  0.47531138  1
  O  O71  1  0.14068084  0.65775097  0.47396533  1
  O  O72  1  0.11288269  0.63025268  0.36529753  1
  O  O73  1  0.50921912  0.87539461  0.35642884  1
  O  O74  1  0.36918220  0.50474588  0.35907735  1
  O  O75  1  0.13614469  0.50104146  0.85582776  1
  O  O76  1  0.36304735  0.86668560  0.85500150  1
  O  O77  1  0.51217337  0.64136497  0.86268175  1
  O  O78  1  0.01541935  0.79926870  0.42145925  1
  O  O79  1  0.79491428  0.96168612  0.42471069  1
  O  O80  1  0.17883629  0.19659805  0.42520144  1
  O  O81  1  0.01915510  0.19026418  0.91064169  1
  O  O82  1  0.15606951  0.96910413  0.90834057  1
  O  O83  1  0.79430893  0.81777185  0.91163407  1
  O  O84  1  0.97862828  0.17139190  0.58636114  1
  O  O85  1  0.19412784  0.02260645  0.58287522  1
  O  O86  1  0.82844703  0.81442787  0.58453641  1
  O  O87  1  0.98465373  0.80931557  0.08320560  1
  O  O88  1  0.84964945  0.01332948  0.08827609  1
  O  O89  1  0.19108424  0.17409072  0.08160130  1
  O  O90  1  0.69790842  0.16233047  0.75120639  1
  O  O91  1  0.46557118  0.30056149  0.75038459  1
  O  O92  1  0.86204681  0.54655677  0.74617759  1
  O  O93  1  0.67420350  0.51241750  0.24339627  1
  O  O94  1  0.86703240  0.33614379  0.23927865  1
  O  O95  1  0.48849695  0.14772297  0.24347762  1
  O  O96  1  0.63508465  0.50679657  0.92274260  1
  O  O97  1  0.85057883  0.36255989  0.92543318  1
  O  O98  1  0.50148311  0.14778810  0.92452925  1
  O  O99  1  0.63436801  0.15092261  0.42730972  1
  O  O100  1  0.52319339  0.37792708  0.42814693  1
  O  O101  1  0.86089054  0.49057598  0.42645656  1
  O  O102  1  0.34017205  0.48576768  0.06876631  1
  O  O103  1  0.14704094  0.65941703  0.07272525  1
  O  O104  1  0.50392192  0.82854562  0.06672714  1
  O  O105  1  0.33747412  0.85490092  0.57217571  1
  O  O106  1  0.51594996  0.66609158  0.57450780  1
  O  O107  1  0.14233836  0.48329782  0.57427748  1
  O  O108  1  0.28578197  0.80541886  0.25891920  1
  O  O109  1  0.51529917  0.69935434  0.25452512  1
  O  O110  1  0.17423925  0.46724239  0.25321787  1
  O  O111  1  0.28936562  0.48007659  0.75552023  1
  O  O112  1  0.17099799  0.71572185  0.75141384  1
  O  O113  1  0.51314392  0.81884473  0.75743745  1
