# generated using pymatgen
data_Na10Sc7Nb(PO4)12
_symmetry_space_group_name_H-M   'P 1'
_cell_length_a   17.95726033
_cell_length_b   8.98649148
_cell_length_c   22.76344553
_cell_angle_alpha   89.98980997
_cell_angle_beta   89.99100508
_cell_angle_gamma   120.08109819
_symmetry_Int_Tables_number   1
_chemical_formula_structural   Na10Sc7Nb(PO4)12
_chemical_formula_sum   'Na30 Sc21 Nb3 P36 O144'
_cell_volume   3178.65479881
_cell_formula_units_Z   3
loop_
 _symmetry_equiv_pos_site_id
 _symmetry_equiv_pos_as_xyz
  1  'x, y, z'
loop_
 _atom_site_type_symbol
 _atom_site_label
 _atom_site_symmetry_multiplicity
 _atom_site_fract_x
 _atom_site_fract_y
 _atom_site_fract_z
 _atom_site_occupancy
  Na  Na0  1  0.31750572  0.99951989  0.25133309  1
  Na  Na1  1  0.68288878  0.36424921  0.25136717  1
  Na  Na2  1  0.31566035  0.63205983  0.75172335  1
  Na  Na3  1  0.81564958  0.63203039  0.75158387  1
  Na  Na4  1  0.15133211  0.33395908  0.58277398  1
  Na  Na5  1  0.65135444  0.33367466  0.58270143  1
  Na  Na6  1  0.01507341  0.69694283  0.58307368  1
  Na  Na7  1  0.51548993  0.69711993  0.58315678  1
  Na  Na8  1  0.33306741  0.96915061  0.58275962  1
  Na  Na9  1  0.83313559  0.96956514  0.58258998  1
  Na  Na10  1  0.15159355  0.96963133  0.08275073  1
  Na  Na11  1  0.65182166  0.97016481  0.08341149  1
  Na  Na12  1  0.33313460  0.69654031  0.08320136  1
  Na  Na13  1  0.83326057  0.69670132  0.08289627  1
  Na  Na14  1  0.01500865  0.33370390  0.08292256  1
  Na  Na15  1  0.51500825  0.33320428  0.08323064  1
  Na  Na16  1  0.66659824  0.03259297  0.41495513  1
  Na  Na17  1  0.34893564  0.66661929  0.41456876  1
  Na  Na18  1  0.00006962  0.99944121  0.49797221  1
  Na  Na19  1  0.49970144  0.00933333  0.49631344  1
  Na  Na20  1  0.99997765  0.99981856  0.99941820  1
  Na  Na21  1  0.49997886  0.99981277  0.99958322  1
  Na  Na22  1  0.33373269  0.32520087  0.83589302  1
  Na  Na23  1  0.83370891  0.32519165  0.83588309  1
  Na  Na24  1  0.33440963  0.33460881  0.33273490  1
  Na  Na25  1  0.84107449  0.34024077  0.33292443  1
  Na  Na26  1  0.16313080  0.65697735  0.17048416  1
  Na  Na27  1  0.66592258  0.67562586  0.17047963  1
  Na  Na28  1  0.16235254  0.66715931  0.67079945  1
  Na  Na29  1  0.66247686  0.66721502  0.67080415  1
  Sc  Sc30  1  0.49949196  0.00532739  0.35062700  1
  Sc  Sc31  1  0.00114127  0.00177631  0.65158598  1
  Sc  Sc32  1  0.50119638  0.00150659  0.65137832  1
  Sc  Sc33  1  0.00002977  0.00045807  0.15141051  1
  Sc  Sc34  1  0.50027994  0.99779777  0.15200716  1
  Sc  Sc35  1  0.33371178  0.32665462  0.68814606  1
  Sc  Sc36  1  0.83377389  0.32677697  0.68808390  1
  Sc  Sc37  1  0.33340407  0.34205839  0.18663045  1
  Sc  Sc38  1  0.83686536  0.33058928  0.18751453  1
  Sc  Sc39  1  0.33327813  0.33368433  0.97892994  1
  Sc  Sc40  1  0.83331288  0.33381803  0.97899588  1
  Sc  Sc41  1  0.33274469  0.32442308  0.47959331  1
  Sc  Sc42  1  0.83678439  0.34136061  0.47928026  1
  Sc  Sc43  1  0.16663877  0.66706399  0.01332660  1
  Sc  Sc44  1  0.66655134  0.66657333  0.01333957  1
  Sc  Sc45  1  0.16475254  0.66589487  0.51361511  1
  Sc  Sc46  1  0.66741364  0.66445603  0.51374968  1
  Sc  Sc47  1  0.16374007  0.66083864  0.31472006  1
  Sc  Sc48  1  0.66512915  0.66996717  0.31520472  1
  Sc  Sc49  1  0.16352038  0.66734861  0.81611175  1
  Sc  Sc50  1  0.66350725  0.66733767  0.81612676  1
  Nb  Nb51  1  0.00009141  0.99891209  0.35196239  1
  Nb  Nb52  1  0.00080139  0.00207132  0.85439722  1
  Nb  Nb53  1  0.50083454  0.00215308  0.85438972  1
  P  P54  1  0.14640778  0.99905544  0.24936706  1
  P  P55  1  0.64757272  0.99895724  0.25016492  1
  P  P56  1  0.35235748  0.70480667  0.25095944  1
  P  P57  1  0.85307229  0.70680226  0.24947518  1
  P  P58  1  0.00054907  0.29238075  0.24958605  1
  P  P59  1  0.49994059  0.29570718  0.24899449  1
  P  P60  1  0.14623946  0.29365066  0.74982212  1
  P  P61  1  0.64624952  0.29360892  0.74980576  1
  P  P62  1  0.00117639  0.70924730  0.74962033  1
  P  P63  1  0.50116968  0.70928834  0.74960465  1
  P  P64  1  0.35406233  0.99980481  0.75019950  1
  P  P65  1  0.85401933  0.99980867  0.75022145  1
  P  P66  1  0.47943629  0.33384294  0.58369546  1
  P  P67  1  0.97909687  0.33356436  0.58342917  1
  P  P68  1  0.18740068  0.04104310  0.58352929  1
  P  P69  1  0.68760478  0.04113571  0.58246871  1
  P  P70  1  0.33294895  0.62519308  0.58343028  1
  P  P71  1  0.83321801  0.62551160  0.58476502  1
  P  P72  1  0.47932599  0.62474139  0.08276663  1
  P  P73  1  0.97927761  0.62470951  0.08303802  1
  P  P74  1  0.33300864  0.04111664  0.08405624  1
  P  P75  1  0.83314088  0.04135873  0.08278016  1
  P  P76  1  0.18735672  0.33377386  0.08265282  1
  P  P77  1  0.68776613  0.33414395  0.08411404  1
  P  P78  1  0.31311192  0.66522066  0.91505066  1
  P  P79  1  0.81309404  0.66514098  0.91505929  1
  P  P80  1  0.01943846  0.37394254  0.91630678  1
  P  P81  1  0.51945561  0.37390539  0.91633002  1
  P  P82  1  0.16752643  0.96105840  0.91614864  1
  P  P83  1  0.66752753  0.96105912  0.91618392  1
  P  P84  1  0.31317025  0.96024770  0.41564492  1
  P  P85  1  0.81407428  0.96031182  0.41647909  1
  P  P86  1  0.16598712  0.37213096  0.41657578  1
  P  P87  1  0.66690463  0.37205633  0.41585918  1
  P  P88  1  0.02014619  0.66754723  0.41585964  1
  P  P89  1  0.51908032  0.66543526  0.41697226  1
  O  O90  1  0.09593730  0.01877013  0.30321565  1
  O  O91  1  0.60545687  0.02973936  0.30500565  1
  O  O92  1  0.40722852  0.79082472  0.30627787  1
  O  O93  1  0.91357381  0.80794065  0.30336166  1
  O  O94  1  0.48456505  0.17680116  0.30219840  1
  O  O95  1  0.99094799  0.17075507  0.30340869  1
  O  O96  1  0.09643568  0.17324824  0.80326755  1
  O  O97  1  0.59640735  0.17326159  0.80327773  1
  O  O98  1  0.48856318  0.80778481  0.80283698  1
  O  O99  1  0.98861331  0.80787228  0.80285779  1
  O  O100  1  0.41422738  0.01982420  0.80370744  1
  O  O101  1  0.91425002  0.01995675  0.80369908  1
  O  O102  1  0.39419004  0.96991388  0.69423524  1
  O  O103  1  0.89415270  0.96994791  0.69426025  1
  O  O104  1  0.09339280  0.21254723  0.69359653  1
  O  O105  1  0.59334648  0.21246578  0.69359293  1
  O  O106  1  0.01264022  0.81438385  0.69314508  1
  O  O107  1  0.51263250  0.81434424  0.69311047  1
  O  O108  1  0.39384035  0.81785139  0.19514896  1
  O  O109  1  0.89419477  0.81363838  0.19375827  1
  O  O110  1  0.01260159  0.21094777  0.19341502  1
  O  O111  1  0.51513142  0.21453958  0.19301175  1
  O  O112  1  0.09311659  0.97476826  0.19365279  1
  O  O113  1  0.59341518  0.97529850  0.19397722  1
  O  O114  1  0.43814902  0.36636548  0.63785767  1
  O  O115  1  0.93805563  0.36621501  0.63772792  1
  O  O116  1  0.24503456  0.12361040  0.63768660  1
  O  O117  1  0.74582433  0.12672955  0.63618572  1
  O  O118  1  0.31780751  0.51340953  0.63878703  1
  O  O119  1  0.81754243  0.51517638  0.64048141  1
  O  O120  1  0.43859358  0.51060365  0.13724024  1
  O  O121  1  0.93854059  0.51033214  0.13757129  1
  O  O122  1  0.31678440  0.11824925  0.14014154  1
  O  O123  1  0.81686716  0.12274928  0.13732536  1
  O  O124  1  0.24425714  0.36613292  0.13713902  1
  O  O125  1  0.74270359  0.36620467  0.14017921  1
  O  O126  1  0.22832940  0.30052169  0.02894818  1
  O  O127  1  0.73008051  0.30207253  0.03081199  1
  O  O128  1  0.42168832  0.54297401  0.02896984  1
  O  O129  1  0.92173952  0.54312171  0.02921533  1
  O  O130  1  0.34908646  0.15813623  0.03083821  1
  O  O131  1  0.84994055  0.15663754  0.02902965  1
  O  O132  1  0.22808008  0.15599617  0.52952781  1
  O  O133  1  0.72672694  0.15119137  0.52683413  1
  O  O134  1  0.34845506  0.54415042  0.52846043  1
  O  O135  1  0.84923534  0.54102069  0.53128893  1
  O  O136  1  0.42189815  0.30033724  0.52967187  1
  O  O137  1  0.92174543  0.30036475  0.52935313  1
  O  O138  1  0.27612290  0.70059226  0.97141883  1
  O  O139  1  0.77617287  0.70057216  0.97143100  1
  O  O140  1  0.07302902  0.44457523  0.97324606  1
  O  O141  1  0.57304082  0.44458077  0.97324008  1
  O  O142  1  0.14911009  0.85383917  0.97312045  1
  O  O143  1  0.64910967  0.85375949  0.97310606  1
  O  O144  1  0.27178498  0.84703813  0.47182195  1
  O  O145  1  0.77809603  0.85525850  0.47386201  1
  O  O146  1  0.14905732  0.44439766  0.47375977  1
  O  O147  1  0.65445822  0.45434780  0.47253618  1
  O  O148  1  0.07230768  0.70201717  0.47352717  1
  O  O149  1  0.57468563  0.69715261  0.47340898  1
  O  O150  1  0.06453416  0.64404519  0.36307439  1
  O  O151  1  0.56373716  0.64148261  0.36392660  1
  O  O152  1  0.25886107  0.87407052  0.36074897  1
  O  O153  1  0.75544781  0.87293327  0.36412875  1
  O  O154  1  0.18117218  0.48943513  0.36418178  1
  O  O155  1  0.67894839  0.48108740  0.36111774  1
  O  O156  1  0.06440786  0.48478744  0.86292131  1
  O  O157  1  0.56433951  0.48485265  0.86295026  1
  O  O158  1  0.17836582  0.87152434  0.86284248  1
  O  O159  1  0.67841639  0.87167398  0.86282698  1
  O  O160  1  0.25999604  0.64457749  0.85995853  1
  O  O161  1  0.75999110  0.64448216  0.85997052  1
  O  O162  1  0.01099147  0.83352789  0.40661423  1
  O  O163  1  0.51137807  0.83084437  0.41187065  1
  O  O164  1  0.40205153  0.96957920  0.41175851  1
  O  O165  1  0.90575735  0.97962719  0.40713553  1
  O  O166  1  0.08421127  0.18851519  0.40727974  1
  O  O167  1  0.58676954  0.18791159  0.41175755  1
  O  O168  1  0.01124666  0.18970625  0.90684371  1
  O  O169  1  0.51124532  0.18974787  0.90686274  1
  O  O170  1  0.08368033  0.97768071  0.90645425  1
  O  O171  1  0.58367689  0.97768527  0.90642543  1
  O  O172  1  0.40570348  0.83347685  0.90666381  1
  O  O173  1  0.90571870  0.83338742  0.90666310  1
  O  O174  1  0.48973241  0.17178893  0.58955416  1
  O  O175  1  0.98974725  0.17189020  0.58939894  1
  O  O176  1  0.09588920  0.02014434  0.58926908  1
  O  O177  1  0.59627844  0.02092679  0.58900250  1
  O  O178  1  0.41414679  0.80856323  0.58908658  1
  O  O179  1  0.91437897  0.80898726  0.58936379  1
  O  O180  1  0.48985607  0.80782001  0.08901793  1
  O  O181  1  0.99000735  0.80797790  0.08924582  1
  O  O182  1  0.41405197  0.01957782  0.08927814  1
  O  O183  1  0.91407394  0.01976059  0.08903439  1
  O  O184  1  0.09565304  0.17165915  0.08897032  1
  O  O185  1  0.59586169  0.17174940  0.08909353  1
  O  O186  1  0.34757471  0.16277529  0.74715691  1
  O  O187  1  0.84748184  0.16269053  0.74706471  1
  O  O188  1  0.23633462  0.31145516  0.74698488  1
  O  O189  1  0.73627828  0.31111090  0.74706159  1
  O  O190  1  0.41569554  0.53536086  0.74680837  1
  O  O191  1  0.91577114  0.53530519  0.74690176  1
  O  O192  1  0.34325415  0.52629538  0.24491849  1
  O  O193  1  0.84492649  0.52777910  0.24759422  1
  O  O194  1  0.41676306  0.30552370  0.24363027  1
  O  O195  1  0.91781445  0.30228116  0.24802954  1
  O  O196  1  0.23630924  0.16090175  0.24764911  1
  O  O197  1  0.73573226  0.16831688  0.24428756  1
  O  O198  1  0.32601553  0.51041639  0.92154050  1
  O  O199  1  0.82598059  0.51033153  0.92159763  1
  O  O200  1  0.42884599  0.34718607  0.92204933  1
  O  O201  1  0.92889684  0.34747518  0.92190871  1
  O  O202  1  0.24494384  0.14203157  0.92195759  1
  O  O203  1  0.74482007  0.14226958  0.92202732  1
  O  O204  1  0.32290139  0.13933299  0.42208012  1
  O  O205  1  0.82208603  0.13888521  0.42248762  1
  O  O206  1  0.24751093  0.35714528  0.42275794  1
  O  O207  1  0.74637187  0.34720239  0.42194990  1
  O  O208  1  0.42700836  0.50940269  0.42263118  1
  O  O209  1  0.92947257  0.51103659  0.42176547  1
  O  O210  1  0.17704944  0.49598562  0.07675135  1
  O  O211  1  0.67750652  0.49632935  0.07713332  1
  O  O212  1  0.07083918  0.64563146  0.07696854  1
  O  O213  1  0.57095435  0.64605541  0.07675071  1
  O  O214  1  0.25185665  0.85791863  0.07706826  1
  O  O215  1  0.75202227  0.85815860  0.07678961  1
  O  O216  1  0.17696251  0.85837223  0.57749528  1
  O  O217  1  0.67708484  0.85828673  0.57753905  1
  O  O218  1  0.25172630  0.64569045  0.57751380  1
  O  O219  1  0.75214531  0.64563325  0.57819184  1
  O  O220  1  0.07051213  0.49586877  0.57745272  1
  O  O221  1  0.57087726  0.49567267  0.57755667  1
  O  O222  1  0.15700951  0.84056346  0.25664157  1
  O  O223  1  0.65710498  0.83928817  0.25551358  1
  O  O224  1  0.26395077  0.69648094  0.25552125  1
  O  O225  1  0.76309191  0.68453591  0.25711579  1
  O  O226  1  0.08101726  0.46841616  0.25738088  1
  O  O227  1  0.58312432  0.47145196  0.25522913  1
  O  O228  1  0.15784225  0.47445639  0.75660348  1
  O  O229  1  0.65785202  0.47443016  0.75663664  1
  O  O230  1  0.08044767  0.69057392  0.75642318  1
  O  O231  1  0.58039270  0.69047718  0.75641580  1
  O  O232  1  0.26662405  0.83348062  0.75714874  1
  O  O233  1  0.76660425  0.83350070  0.75715173  1
