# generated using pymatgen
data_Na6Ca2Si5Ge6S7O48
_symmetry_space_group_name_H-M   'P 1'
_cell_length_a   17.33608380
_cell_length_b   8.88185039
_cell_length_c   22.43051743
_cell_angle_alpha   89.17198877
_cell_angle_beta   90.96712682
_cell_angle_gamma   120.87148282
_symmetry_Int_Tables_number   1
_chemical_formula_structural   Na6Ca2Si5Ge6S7O48
_chemical_formula_sum   'Na18 Ca6 Si15 Ge18 S21 O144'
_cell_volume   2963.95372997
_cell_formula_units_Z   3
loop_
 _symmetry_equiv_pos_site_id
 _symmetry_equiv_pos_as_xyz
  1  'x, y, z'
loop_
 _atom_site_type_symbol
 _atom_site_label
 _atom_site_symmetry_multiplicity
 _atom_site_fract_x
 _atom_site_fract_y
 _atom_site_fract_z
 _atom_site_occupancy
  Na  Na0  1  0.66505811  0.36283537  0.58755102  1
  Na  Na1  1  0.51000769  0.67331542  0.58860088  1
  Na  Na2  1  0.82653872  0.98360097  0.58673098  1
  Na  Na3  1  0.16451192  0.96873247  0.09054835  1
  Na  Na4  1  0.32636677  0.67306843  0.09190851  1
  Na  Na5  1  0.00816097  0.34469774  0.09555308  1
  Na  Na6  1  0.00724075  0.99299771  0.49678946  1
  Na  Na7  1  0.48934258  0.00575032  0.49738168  1
  Na  Na8  1  0.98982611  0.97658126  0.00164674  1
  Na  Na9  1  0.50868477  0.01566416  0.99903513  1
  Na  Na10  1  0.33100671  0.31768890  0.82959021  1
  Na  Na11  1  0.82512316  0.33075953  0.83507916  1
  Na  Na12  1  0.32270488  0.32260704  0.33456360  1
  Na  Na13  1  0.83446309  0.34200864  0.33156255  1
  Na  Na14  1  0.16047180  0.65975535  0.16199007  1
  Na  Na15  1  0.67645997  0.68366991  0.16706905  1
  Na  Na16  1  0.17413288  0.66617438  0.66180490  1
  Na  Na17  1  0.66396335  0.66209467  0.65624074  1
  Ca  Ca18  1  0.32684825  0.32633097  0.69442432  1
  Ca  Ca19  1  0.83897595  0.33338527  0.68975919  1
  Ca  Ca20  1  0.33753136  0.34133245  0.18988059  1
  Ca  Ca21  1  0.82902340  0.33268441  0.19443401  1
  Ca  Ca22  1  0.16558352  0.66637397  0.00922477  1
  Ca  Ca23  1  0.66700339  0.66841236  0.50782846  1
  Si  Si24  1  0.63380258  0.98398317  0.25457924  1
  Si  Si25  1  0.86032032  0.73224680  0.25656373  1
  Si  Si26  1  0.13378192  0.28096293  0.75422080  1
  Si  Si27  1  0.36245525  0.98873398  0.75571755  1
  Si  Si28  1  0.46913285  0.33122860  0.58097936  1
  Si  Si29  1  0.68506821  0.05340324  0.58352077  1
  Si  Si30  1  0.84151532  0.64959972  0.59051862  1
  Si  Si31  1  0.97029149  0.61266492  0.08148415  1
  Si  Si32  1  0.34290608  0.03771240  0.08762455  1
  Si  Si33  1  0.18165832  0.32000053  0.08588670  1
  Si  Si34  1  0.81093019  0.67470782  0.91216807  1
  Si  Si35  1  0.66947137  0.96706162  0.91536842  1
  Si  Si36  1  0.30740088  0.93873959  0.41006421  1
  Si  Si37  1  0.16852599  0.36786358  0.41657902  1
  Si  Si38  1  0.01762790  0.65350455  0.41809859  1
  Ge  Ge39  1  0.00627988  0.98747707  0.35938892  1
  Ge  Ge40  1  0.49571595  0.99182949  0.35482174  1
  Ge  Ge41  1  0.99501923  0.99636015  0.85444993  1
  Ge  Ge42  1  0.50939517  0.99385921  0.84892603  1
  Ge  Ge43  1  0.01483767  0.00604579  0.64641894  1
  Ge  Ge44  1  0.48450334  0.01136775  0.63693554  1
  Ge  Ge45  1  0.99174279  0.96089889  0.14474040  1
  Ge  Ge46  1  0.50279332  0.02513101  0.15907632  1
  Ge  Ge47  1  0.32739839  0.29421219  0.99293592  1
  Ge  Ge48  1  0.82001652  0.35732068  0.97477754  1
  Ge  Ge49  1  0.32099785  0.27749198  0.47115145  1
  Ge  Ge50  1  0.83572871  0.38403215  0.48921867  1
  Ge  Ge51  1  0.67261690  0.68790134  0.00792630  1
  Ge  Ge52  1  0.16823329  0.65203506  0.50428638  1
  Ge  Ge53  1  0.15505865  0.63718520  0.32445841  1
  Ge  Ge54  1  0.67652164  0.70297046  0.30663979  1
  Ge  Ge55  1  0.17310619  0.64186477  0.80361594  1
  Ge  Ge56  1  0.67231069  0.69000264  0.81782700  1
  S  S57  1  0.14021741  0.97496152  0.25441482  1
  S  S58  1  0.34844015  0.72268684  0.25208215  1
  S  S59  1  0.01482232  0.29749943  0.25458424  1
  S  S60  1  0.51029747  0.30111588  0.25958019  1
  S  S61  1  0.64267914  0.30739335  0.75526752  1
  S  S62  1  0.01152941  0.72452585  0.75965402  1
  S  S63  1  0.51373658  0.71814538  0.75409103  1
  S  S64  1  0.84788767  0.97750038  0.75355261  1
  S  S65  1  0.99163375  0.34434637  0.58066348  1
  S  S66  1  0.18541944  0.02041186  0.58028618  1
  S  S67  1  0.32397983  0.62685092  0.58164028  1
  S  S68  1  0.48699399  0.62417162  0.07449217  1
  S  S69  1  0.82439881  0.02804016  0.08026978  1
  S  S70  1  0.68353133  0.35090040  0.07793114  1
  S  S71  1  0.32210591  0.65621663  0.91327242  1
  S  S72  1  0.01211225  0.36140043  0.91019680  1
  S  S73  1  0.52164083  0.38636294  0.91619576  1
  S  S74  1  0.17171107  0.98910637  0.91687192  1
  S  S75  1  0.82154322  0.98259236  0.41210149  1
  S  S76  1  0.66695667  0.35951213  0.41373666  1
  S  S77  1  0.51072964  0.65932705  0.41066307  1
  O  O78  1  0.09805010  -0.00796763  0.30939361  1
  O  O79  1  0.57550124  -0.00470633  0.30819701  1
  O  O80  1  0.39607394  0.82932715  0.30525254  1
  O  O81  1  0.91544452  0.84188961  0.31517221  1
  O  O82  1  0.49776042  0.18986405  0.31197510  1
  O  O83  1  0.02219317  0.20100384  0.30623596  1
  O  O84  1  0.07396205  0.15938526  0.80865926  1
  O  O85  1  0.60098468  0.20012013  0.81139079  1
  O  O86  1  0.51927341  0.82227704  0.80774077  1
  O  O87  1  -0.00041034  0.80526407  0.81342925  1
  O  O88  1  0.41884496  -0.00498562  0.81609424  1
  O  O89  1  0.89167781  0.95743565  0.80819763  1
  O  O90  1  0.40733755  0.94901772  0.69578397  1
  O  O91  1  0.89168679  0.97727990  0.69765182  1
  O  O92  1  0.08297106  0.18902147  0.68856571  1
  O  O93  1  0.59342882  0.21645648  0.70006607  1
  O  O94  1  0.01525874  0.81993687  0.70294219  1
  O  O95  1  0.52633416  0.81271573  0.69759961  1
  O  O96  1  0.39582307  0.81878572  0.19442517  1
  O  O97  1  0.90232797  0.85832247  0.19519199  1
  O  O98  1  0.02618552  0.23519888  0.19644772  1
  O  O99  1  0.51312701  0.21562255  0.20168427  1
  O  O100  1  0.09153056  0.97226467  0.19742479  1
  O  O101  1  0.58198232  0.97763616  0.18809613  1
  O  O102  1  0.43809816  0.40576978  0.63320628  1
  O  O103  1  0.96221047  0.36874403  0.63833240  1
  O  O104  1  0.23947125  0.10051636  0.63269786  1
  O  O105  1  0.75308021  0.10595542  0.63828622  1
  O  O106  1  0.30474767  0.53456025  0.63827079  1
  O  O107  1  0.81691316  0.51873262  0.64464017  1
  O  O108  1  0.45731854  0.53890592  0.13285451  1
  O  O109  1  0.93748930  0.46892429  0.13268716  1
  O  O110  1  0.31872658  0.12307706  0.13987934  1
  O  O111  1  0.80411456  0.08219268  0.13584087  1
  O  O112  1  0.25526360  0.40418229  0.13755186  1
  O  O113  1  0.74305097  0.39501418  0.12916652  1
  O  O114  1  0.22853458  0.26545063  0.02867403  1
  O  O115  1  0.71704973  0.31091741  0.02150809  1
  O  O116  1  0.41756002  0.52246113  0.02520143  1
  O  O117  1  0.91046915  0.51705088  0.01725169  1
  O  O118  1  0.36520327  0.15874630  0.02421749  1
  O  O119  1  0.83165835  0.13239664  0.02733085  1
  O  O120  1  0.21836194  0.12535236  0.52326224  1
  O  O121  1  0.73787114  0.20696270  0.52634680  1
  O  O122  1  0.33534906  0.54421823  0.52997052  1
  O  O123  1  0.86616455  0.57871525  0.52853044  1
  O  O124  1  0.41028472  0.31134146  0.51681666  1
  O  O125  1  0.92680932  0.31259286  0.53082156  1
  O  O126  1  0.28969097  0.68320201  0.96980544  1
  O  O127  1  0.76912283  0.71188589  0.97092612  1
  O  O128  1  0.05570235  0.41570077  0.96813712  1
  O  O129  1  0.58133093  0.47327124  0.96963069  1
  O  O130  1  0.16054688  0.90353941  0.97480588  1
  O  O131  1  0.64435048  0.83472708  0.97221321  1
  O  O132  1  0.26976260  0.82592412  0.47173446  1
  O  O133  1  0.79246401  0.88926299  0.46909286  1
  O  O134  1  0.14616478  0.44905105  0.47405196  1
  O  O135  1  0.65515414  0.41705453  0.47210276  1
  O  O136  1  0.08599092  0.69567529  0.47474478  1
  O  O137  1  0.55199134  0.68819985  0.46964586  1
  O  O138  1  0.05439638  0.60264755  0.35898823  1
  O  O139  1  0.56669720  0.64985379  0.36254897  1
  O  O140  1  0.24187955  0.84641926  0.35261199  1
  O  O141  1  0.75561314  0.86988067  0.36198472  1
  O  O142  1  0.19215829  0.49705250  0.35851873  1
  O  O143  1  0.67168772  0.47173693  0.36378658  1
  O  O144  1  0.06842432  0.48910999  0.86111056  1
  O  O145  1  0.56037145  0.49732971  0.86090736  1
  O  O146  1  0.18069036  0.89871265  0.86639943  1
  O  O147  1  0.69051947  0.88347521  0.85724489  1
  O  O148  1  0.25781641  0.63550055  0.86178933  1
  O  O149  1  0.74684615  0.63789825  0.85363893  1
  O  O150  1  0.00663019  0.82640191  0.41169344  1
  O  O151  1  0.49440783  0.81116054  0.40360985  1
  O  O152  1  0.41239016  0.98177830  0.40535908  1
  O  O153  1  0.91411647  0.01594188  0.40389876  1
  O  O154  1  0.08437375  0.16594124  0.40809989  1
  O  O155  1  0.58767722  0.17226615  0.40811585  1
  O  O156  1  -0.00477414  0.17776945  0.90279638  1
  O  O157  1  0.51389862  0.21350057  0.91259936  1
  O  O158  1  0.09422995  0.02124118  0.90992320  1
  O  O159  1  0.58364428  0.00120982  0.90677470  1
  O  O160  1  0.41438069  0.81543953  0.90566904  1
  O  O161  1  0.91630532  0.84114787  0.90789421  1
  O  O162  1  0.45611412  0.13052497  0.58594952  1
  O  O163  1  0.99871023  0.18139895  0.58150792  1
  O  O164  1  0.09509202  0.01036387  0.58691114  1
  O  O165  1  0.58695893  0.05787266  0.59554325  1
  O  O166  1  0.41730013  0.80204172  0.58676458  1
  O  O167  1  0.93173910  0.85388255  0.59905489  1
  O  O168  1  0.49631654  0.79750181  0.07212696  1
  O  O169  1  0.96174617  0.79071453  0.09104306  1
  O  O170  1  0.43421322  0.01404631  0.09860439  1
  O  O171  1  0.91305371  0.03215839  0.08499727  1
  O  O172  1  0.08505590  0.12188505  0.09798825  1
  O  O173  1  0.59594901  0.18670961  0.08801131  1
  O  O174  1  0.35056105  0.15272376  0.75530533  1
  O  O175  1  0.83957262  0.13145601  0.76038198  1
  O  O176  1  0.23359111  0.32602393  0.76006569  1
  O  O177  1  0.73452347  0.34064070  0.75658010  1
  O  O178  1  0.43352769  0.54829003  0.75892665  1
  O  O179  1  0.93917210  0.54179879  0.75871514  1
  O  O180  1  0.34594781  0.55603767  0.25644643  1
  O  O181  1  0.84960224  0.54519089  0.25522725  1
  O  O182  1  0.43668152  0.33408113  0.25776866  1
  O  O183  1  0.93411194  0.30814469  0.25780484  1
  O  O184  1  0.23130980  0.12921485  0.25407880  1
  O  O185  1  0.73374826  0.13859185  0.25913212  1
  O  O186  1  0.32747244  0.49810573  0.91421388  1
  O  O187  1  0.81567625  0.49581252  0.91753847  1
  O  O188  1  0.43306513  0.36962676  0.92362229  1
  O  O189  1  0.92500655  0.35203797  0.90803184  1
  O  O190  1  0.26014488  0.16838701  0.92076552  1
  O  O191  1  0.75581147  0.16467930  0.92848647  1
  O  O192  1  0.31543022  0.13149913  0.41551741  1
  O  O193  1  0.82111683  0.14517088  0.41093678  1
  O  O194  1  0.25726812  0.34769631  0.42927076  1
  O  O195  1  0.75218942  0.35403899  0.41567992  1
  O  O196  1  0.42294031  0.49498441  0.40803090  1
  O  O197  1  0.91730348  0.47885612  0.43070263  1
  O  O198  1  0.15140755  0.45628972  0.06893216  1
  O  O199  1  0.66858904  0.50000092  0.06680462  1
  O  O200  1  0.07485668  0.68583896  0.07127557  1
  O  O201  1  0.57445682  0.63142889  0.06528801  1
  O  O202  1  0.26409185  0.84011998  0.07680444  1
  O  O203  1  0.74757019  0.83582515  0.07295454  1
  O  O204  1  0.17035090  0.84352896  0.57370162  1
  O  O205  1  0.65492346  0.85870034  0.56477147  1
  O  O206  1  0.25112439  0.67119037  0.57275190  1
  O  O207  1  0.76252634  0.68998122  0.57884750  1
  O  O208  1  0.08235364  0.50486466  0.57145646  1
  O  O209  1  0.57445600  0.46631195  0.57234652  1
  O  O210  1  0.13919395  0.80779080  0.25460654  1
  O  O211  1  0.62731248  0.78842578  0.25607272  1
  O  O212  1  0.25979458  0.70470098  0.24813132  1
  O  O213  1  0.75980727  0.72015011  0.25793893  1
  O  O214  1  0.09837616  0.48746030  0.25739553  1
  O  O215  1  0.59890156  0.46641874  0.25993594  1
  O  O216  1  0.12735849  0.46317226  0.75342204  1
  O  O217  1  0.63969467  0.47193492  0.75846280  1
  O  O218  1  0.10180997  0.73660541  0.76250403  1
  O  O219  1  0.59606845  0.69794245  0.75850912  1
  O  O220  1  0.26252747  0.79924182  0.75874592  1
  O  O221  1  0.75605765  0.81103830  0.75107345  1
