# generated using pymatgen
data_Nb3ClO7
_symmetry_space_group_name_H-M   'P 1'
_cell_length_a   3.88417737
_cell_length_b   11.02496575
_cell_length_c   15.74295519
_cell_angle_alpha   90.00000000
_cell_angle_beta   90.00000000
_cell_angle_gamma   90.00000000
_symmetry_Int_Tables_number   1
_chemical_formula_structural   Nb3ClO7
_chemical_formula_sum   'Nb12 Cl4 O28'
_cell_volume   674.15934957
_cell_formula_units_Z   4
loop_
 _symmetry_equiv_pos_site_id
 _symmetry_equiv_pos_as_xyz
  1  'x, y, z'
loop_
 _atom_site_type_symbol
 _atom_site_label
 _atom_site_symmetry_multiplicity
 _atom_site_fract_x
 _atom_site_fract_y
 _atom_site_fract_z
 _atom_site_occupancy
  Nb  Nb0  1  0.50132307  0.03704379  0.16441334  1
  Nb  Nb1  1  0.04861720  0.25000000  0.46890380  1
  Nb  Nb2  1  0.45138280  0.25000000  0.96890380  1
  Nb  Nb3  1  0.95138280  0.75000000  0.53109620  1
  Nb  Nb4  1  0.54861720  0.75000000  0.03109620  1
  Nb  Nb5  1  0.00132307  0.96295621  0.33558666  1
  Nb  Nb6  1  0.49867693  0.53704379  0.83558666  1
  Nb  Nb7  1  0.99867693  0.46295621  0.66441334  1
  Nb  Nb8  1  0.49867693  0.96295621  0.83558666  1
  Nb  Nb9  1  0.99867693  0.03704379  0.66441334  1
  Nb  Nb10  1  0.50132307  0.46295621  0.16441334  1
  Nb  Nb11  1  0.00132307  0.53704379  0.33558666  1
  Cl  Cl12  1  0.00741391  0.75000000  0.25873331  1
  Cl  Cl13  1  0.50741391  0.25000000  0.24126669  1
  Cl  Cl14  1  0.99258609  0.25000000  0.74126669  1
  Cl  Cl15  1  0.49258609  0.75000000  0.75873331  1
  O  O16  1  0.00650201  0.12548471  0.56635423  1
  O  O17  1  0.51646963  0.25000000  0.47539443  1
  O  O18  1  0.98353037  0.25000000  0.97539443  1
  O  O19  1  0.48353037  0.75000000  0.52460557  1
  O  O20  1  0.49321197  0.11623457  0.88564129  1
  O  O21  1  0.99321197  0.88376543  0.61435871  1
  O  O22  1  0.50678803  0.61623457  0.11435871  1
  O  O23  1  0.00678803  0.38376543  0.38564129  1
  O  O24  1  0.50678803  0.88376543  0.11435871  1
  O  O25  1  0.00678803  0.11623457  0.38564129  1
  O  O26  1  0.49321197  0.38376543  0.88564129  1
  O  O27  1  0.99321197  0.61623457  0.61435871  1
  O  O28  1  0.00251182  0.46975065  0.20048902  1
  O  O29  1  0.50251182  0.53024935  0.29951098  1
  O  O30  1  0.99748818  0.96975065  0.79951098  1
  O  O31  1  0.49349799  0.12548471  0.06635423  1
  O  O32  1  0.99748818  0.53024935  0.79951098  1
  O  O33  1  0.49748818  0.46975065  0.70048902  1
  O  O34  1  0.00251182  0.03024935  0.20048902  1
  O  O35  1  0.50251182  0.96975065  0.29951098  1
  O  O36  1  0.99349799  0.62548471  0.43364577  1
  O  O37  1  0.49349799  0.37451529  0.06635423  1
  O  O38  1  0.49748818  0.03024935  0.70048902  1
  O  O39  1  0.50650201  0.87451529  0.93364577  1
  O  O40  1  0.00650201  0.37451529  0.56635423  1
  O  O41  1  0.50650201  0.62548471  0.93364577  1
  O  O42  1  0.99349799  0.87451529  0.43364577  1
  O  O43  1  0.01646963  0.75000000  0.02460557  1
