# generated using pymatgen
data_Na10Ti4In4Si7S5O48
_symmetry_space_group_name_H-M   'P 1'
_cell_length_a   18.08884341
_cell_length_b   9.03205242
_cell_length_c   22.49736617
_cell_angle_alpha   89.91033434
_cell_angle_beta   88.94585321
_cell_angle_gamma   119.78410740
_symmetry_Int_Tables_number   1
_chemical_formula_structural   Na10Ti4In4Si7S5O48
_chemical_formula_sum   'Na30 Ti12 In12 Si21 S15 O144'
_cell_volume   3189.28772643
_cell_formula_units_Z   3
loop_
 _symmetry_equiv_pos_site_id
 _symmetry_equiv_pos_as_xyz
  1  'x, y, z'
loop_
 _atom_site_type_symbol
 _atom_site_label
 _atom_site_symmetry_multiplicity
 _atom_site_fract_x
 _atom_site_fract_y
 _atom_site_fract_z
 _atom_site_occupancy
  Na  Na0  1  0.18612634  0.37005216  0.24224712  1
  Na  Na1  1  0.68625910  0.37061099  0.24290475  1
  Na  Na2  1  0.99279965  0.63175335  0.25327240  1
  Na  Na3  1  0.49360710  0.63165064  0.25288408  1
  Na  Na4  1  0.49284400  0.35130893  0.75707215  1
  Na  Na5  1  0.18602996  0.00228868  0.74535464  1
  Na  Na6  1  0.68485898  0.00151491  0.74493057  1
  Na  Na7  1  0.65569937  0.34120267  0.58168637  1
  Na  Na8  1  0.01893051  0.70360432  0.57816515  1
  Na  Na9  1  0.82782104  0.96376022  0.58906671  1
  Na  Na10  1  0.48853534  0.67149452  0.91557214  1
  Na  Na11  1  0.99000137  0.67380741  0.91432179  1
  Na  Na12  1  0.85262333  0.03607254  0.90983510  1
  Na  Na13  1  0.15838752  0.29862580  0.92192716  1
  Na  Na14  1  0.48895366  0.30714540  0.41411209  1
  Na  Na15  1  0.98596789  0.30275592  0.41403870  1
  Na  Na16  1  0.35145938  0.66799861  0.40947085  1
  Na  Na17  1  0.85221743  0.66945423  0.41090349  1
  Na  Na18  1  0.01890660  0.00895310  0.49834086  1
  Na  Na19  1  0.51264480  0.99030256  0.49797722  1
  Na  Na20  1  0.00915805  0.01335700  0.00234247  1
  Na  Na21  1  0.51033990  0.03188198  0.99703087  1
  Na  Na22  1  0.33973712  0.32932584  0.83194528  1
  Na  Na23  1  0.84316329  0.34190571  0.82700146  1
  Na  Na24  1  0.33520888  0.32815826  0.32902118  1
  Na  Na25  1  0.83436942  0.32681075  0.33175046  1
  Na  Na26  1  0.17488265  0.66520935  0.16158618  1
  Na  Na27  1  0.67449118  0.66591643  0.16203795  1
  Na  Na28  1  0.17466230  0.67242536  0.66882448  1
  Na  Na29  1  0.67309214  0.68069683  0.66583058  1
  Ti  Ti30  1  0.99564898  0.97493204  0.64821511  1
  Ti  Ti31  1  0.49590789  0.97592657  0.64958196  1
  Ti  Ti32  1  0.99892662  0.01924951  0.14736399  1
  Ti  Ti33  1  0.49826663  0.01746263  0.14715084  1
  Ti  Ti34  1  0.32601255  0.30997724  0.97723894  1
  Ti  Ti35  1  0.82107489  0.31655492  0.97772473  1
  Ti  Ti36  1  0.32346677  0.32990262  0.47728134  1
  Ti  Ti37  1  0.82521824  0.34773094  0.47945002  1
  Ti  Ti38  1  0.16145430  0.63846735  0.31204440  1
  Ti  Ti39  1  0.66119734  0.63914853  0.31251542  1
  Ti  Ti40  1  0.15917136  0.68191814  0.81183136  1
  Ti  Ti41  1  0.66182725  0.68519309  0.81291599  1
  In  In42  1  0.00140687  0.99808082  0.35015558  1
  In  In43  1  0.50194504  0.99875671  0.34959308  1
  In  In44  1  0.99907333  0.00094557  0.84761149  1
  In  In45  1  0.49659567  0.00187477  0.85271985  1
  In  In46  1  0.33281397  0.32955615  0.68374662  1
  In  In47  1  0.83539758  0.33303189  0.68508873  1
  In  In48  1  0.33433535  0.34060933  0.18123412  1
  In  In49  1  0.83417554  0.34002815  0.18169202  1
  In  In50  1  0.16071848  0.65126734  0.01757626  1
  In  In51  1  0.65934045  0.64868961  0.01853094  1
  In  In52  1  0.16502732  0.67382674  0.51620660  1
  In  In53  1  0.66137006  0.66978154  0.51760811  1
  Si  Si54  1  0.35261053  0.71509821  0.25044011  1
  Si  Si55  1  0.85269188  0.71523715  0.25028221  1
  Si  Si56  1  0.99687988  0.29130344  0.25196329  1
  Si  Si57  1  0.49699656  0.29151568  0.25177256  1
  Si  Si58  1  0.99706886  0.69827731  0.75268429  1
  Si  Si59  1  0.49730221  0.70181176  0.75319080  1
  Si  Si60  1  0.35157606  0.99020290  0.74990972  1
  Si  Si61  1  0.85108583  0.99251154  0.75149658  1
  Si  Si62  1  0.18527769  0.03994423  0.58585183  1
  Si  Si63  1  0.68429524  0.04225148  0.58538857  1
  Si  Si64  1  0.83263251  0.62849935  0.58345890  1
  Si  Si65  1  0.18474282  0.33042083  0.08472695  1
  Si  Si66  1  0.68306963  0.32943281  0.08641707  1
  Si  Si67  1  0.01833445  0.37346676  0.91635826  1
  Si  Si68  1  0.51775901  0.37082930  0.91662292  1
  Si  Si69  1  0.16674973  0.95838300  0.91766528  1
  Si  Si70  1  0.66465139  0.95836799  0.91924313  1
  Si  Si71  1  0.16482853  0.37054147  0.41837161  1
  Si  Si72  1  0.66450094  0.36741772  0.41905950  1
  Si  Si73  1  0.01808087  0.66329646  0.41759827  1
  Si  Si74  1  0.51826532  0.66421989  0.41654323  1
  S  S75  1  0.14617825  0.99456641  0.24757663  1
  S  S76  1  0.64636561  0.99462415  0.24741732  1
  S  S77  1  0.14557125  0.29973568  0.74857929  1
  S  S78  1  0.64431616  0.29496310  0.74787572  1
  S  S79  1  0.47834901  0.32402278  0.58213436  1
  S  S80  1  0.98124799  0.32773316  0.58082967  1
  S  S81  1  0.33583698  0.62920275  0.58141177  1
  S  S82  1  0.48078400  0.63811587  0.08278945  1
  S  S83  1  0.98048878  0.63649195  0.08208835  1
  S  S84  1  0.33530165  0.04191432  0.08261480  1
  S  S85  1  0.83551074  0.04233488  0.08181424  1
  S  S86  1  0.31048219  0.65953034  0.91729025  1
  S  S87  1  0.81054502  0.65852214  0.91752507  1
  S  S88  1  0.31133766  0.96474872  0.41622489  1
  S  S89  1  0.81062469  0.96313087  0.41628972  1
  O  O90  1  0.11347073  0.03285489  0.30308014  1
  O  O91  1  0.61382918  0.03297823  0.30289163  1
  O  O92  1  0.40818735  0.77862286  0.31023093  1
  O  O93  1  0.90898511  0.77836136  0.30984647  1
  O  O94  1  0.48557056  0.19341668  0.31349842  1
  O  O95  1  0.98639175  0.19372328  0.31364592  1
  O  O96  1  0.11380062  0.20232870  0.80569615  1
  O  O97  1  0.60696085  0.18751477  0.80161072  1
  O  O98  1  0.48687083  0.78125752  0.81367438  1
  O  O99  1  0.98995031  0.78119844  0.81399075  1
  O  O100  1  0.41658225  0.04951335  0.80357589  1
  O  O101  1  0.90146892  0.02408905  0.81245209  1
  O  O102  1  0.40751403  0.97294918  0.69099703  1
  O  O103  1  0.90630582  0.97755468  0.69267319  1
  O  O104  1  0.09116506  0.20495966  0.69844190  1
  O  O105  1  0.59166340  0.21012930  0.69416738  1
  O  O106  1  0.01327560  0.82863911  0.69367815  1
  O  O107  1  0.51457352  0.83387526  0.69472846  1
  O  O108  1  0.40950149  0.84318606  0.19406856  1
  O  O109  1  0.90997798  0.84409212  0.19383630  1
  O  O110  1  0.01604994  0.19621963  0.19493979  1
  O  O111  1  0.51539575  0.19480366  0.19492772  1
  O  O112  1  0.09100742  0.97300951  0.19686907  1
  O  O113  1  0.59087426  0.97272570  0.19679540  1
  O  O114  1  0.44139118  0.34848066  0.63802777  1
  O  O115  1  0.94266720  0.35893993  0.63442155  1
  O  O116  1  0.23666773  0.11751874  0.64564821  1
  O  O117  1  0.73868762  0.11413054  0.64512069  1
  O  O118  1  0.32404167  0.52787891  0.63530627  1
  O  O119  1  0.81318736  0.50209154  0.63801188  1
  O  O120  1  0.44465957  0.53835715  0.13947397  1
  O  O121  1  0.94409908  0.53776646  0.13868696  1
  O  O122  1  0.32380379  0.11795877  0.13741515  1
  O  O123  1  0.82431949  0.12061210  0.13587825  1
  O  O124  1  0.23274266  0.34633658  0.14629386  1
  O  O125  1  0.73224987  0.34611053  0.14718712  1
  O  O126  1  0.23970547  0.30877417  0.02663755  1
  O  O127  1  0.74088221  0.30935552  0.02892648  1
  O  O128  1  0.43008474  0.54507750  0.03108999  1
  O  O129  1  0.92966078  0.54344813  0.03009432  1
  O  O130  1  0.34636321  0.15163925  0.02929619  1
  O  O131  1  0.84636555  0.14802882  0.02727970  1
  O  O132  1  0.24281376  0.17191102  0.52779310  1
  O  O133  1  0.74067514  0.18182866  0.52893357  1
  O  O134  1  0.34610715  0.54545633  0.52664373  1
  O  O135  1  0.84986697  0.54070915  0.52193725  1
  O  O136  1  0.42899224  0.31571665  0.52958620  1
  O  O137  1  0.93027598  0.30970519  0.52726333  1
  O  O138  1  0.27553444  0.68671128  0.97277086  1
  O  O139  1  0.77500500  0.69003342  0.97196187  1
  O  O140  1  0.08091577  0.43803626  0.97183723  1
  O  O141  1  0.57196249  0.44792203  0.97457131  1
  O  O142  1  0.14881360  0.83762679  0.97396819  1
  O  O143  1  0.65648577  0.84543506  0.97572247  1
  O  O144  1  0.27690373  0.86446788  0.47175822  1
  O  O145  1  0.77709831  0.86534947  0.47274792  1
  O  O146  1  0.15381557  0.46390465  0.47490937  1
  O  O147  1  0.65180052  0.45057626  0.47863564  1
  O  O148  1  0.06748466  0.69386952  0.47915151  1
  O  O149  1  0.57321668  0.69870127  0.47423383  1
  O  O150  1  0.07284670  0.64010647  0.36005781  1
  O  O151  1  0.56782301  0.63522052  0.35699614  1
  O  O152  1  0.25909103  0.88193111  0.36451335  1
  O  O153  1  0.75790299  0.87367711  0.36525756  1
  O  O154  1  0.18333780  0.49390723  0.35724673  1
  O  O155  1  0.68015018  0.49446706  0.35919798  1
  O  O156  1  0.07109033  0.50975381  0.85952030  1
  O  O157  1  0.56760165  0.50414800  0.85735318  1
  O  O158  1  0.18020145  0.87086201  0.85580703  1
  O  O159  1  0.68389707  0.87267731  0.85776822  1
  O  O160  1  0.25826713  0.63827814  0.86534446  1
  O  O161  1  0.75944653  0.63718099  0.86471837  1
  O  O162  1  0.99740674  0.81820682  0.41267025  1
  O  O163  1  0.49510225  0.81586843  0.41215565  1
  O  O164  1  0.39837258  0.98890469  0.41173978  1
  O  O165  1  0.89800041  0.98401601  0.41177363  1
  O  O166  1  0.08103518  0.18645497  0.41324479  1
  O  O167  1  0.58006171  0.18412449  0.41296930  1
  O  O168  1  0.00069396  0.17858849  0.91030984  1
  O  O169  1  0.49947399  0.17863585  0.91208982  1
  O  O170  1  0.08665279  0.99263234  0.91262425  1
  O  O171  1  0.58065501  0.97381401  0.91335782  1
  O  O172  1  0.39937324  0.80175665  0.91304092  1
  O  O173  1  0.89852245  0.80724459  0.91313757  1
  O  O174  1  0.48520246  0.16610640  0.58547009  1
  O  O175  1  0.98511891  0.16870113  0.58657276  1
  O  O176  1  0.09010955  0.02526422  0.58987336  1
  O  O177  1  0.59156079  0.03947094  0.59021013  1
  O  O178  1  0.41652330  0.79894539  0.58526124  1
  O  O179  1  0.92169334  0.81613512  0.58962228  1
  O  O180  1  0.48420845  0.80509400  0.08698473  1
  O  O181  1  0.98425534  0.80391578  0.08580769  1
  O  O182  1  0.41593278  0.03311403  0.08625259  1
  O  O183  1  0.91627105  0.03308939  0.08583527  1
  O  O184  1  0.08878993  0.15083230  0.09098339  1
  O  O185  1  0.58829911  0.15067238  0.09128919  1
  O  O186  1  0.33493773  0.15269860  0.74478333  1
  O  O187  1  0.82942541  0.14659373  0.74609378  1
  O  O188  1  0.23241170  0.31915523  0.74286019  1
  O  O189  1  0.73024103  0.31532975  0.74347197  1
  O  O190  1  0.42059443  0.50907849  0.74372474  1
  O  O191  1  0.91708564  0.51176599  0.74611368  1
  O  O192  1  0.33565038  0.51870519  0.24547533  1
  O  O193  1  0.83600225  0.51915605  0.24505309  1
  O  O194  1  0.42002211  0.33139543  0.24313366  1
  O  O195  1  0.92018522  0.33131272  0.24314672  1
  O  O196  1  0.23366326  0.14250597  0.24157067  1
  O  O197  1  0.73372357  0.14220764  0.24133864  1
  O  O198  1  0.31584365  0.49646804  0.92173458  1
  O  O199  1  0.82098356  0.50291102  0.92356390  1
  O  O200  1  0.42442643  0.37279530  0.92580896  1
  O  O201  1  0.92537740  0.36848523  0.92539514  1
  O  O202  1  0.25438130  0.15099256  0.92380028  1
  O  O203  1  0.75567594  0.14774483  0.92499478  1
  O  O204  1  0.32126090  0.14016721  0.42209830  1
  O  O205  1  0.82102148  0.13704405  0.42065497  1
  O  O206  1  0.25575669  0.36458163  0.42419328  1
  O  O207  1  0.75599789  0.36550523  0.42136239  1
  O  O208  1  0.42388910  0.47965326  0.42440029  1
  O  O209  1  0.92532163  0.47838791  0.42135844  1
  O  O210  1  0.17485401  0.49905028  0.08109724  1
  O  O211  1  0.67528914  0.49962659  0.08166095  1
  O  O212  1  0.06799660  0.66080341  0.08010944  1
  O  O213  1  0.56881127  0.66426708  0.08132334  1
  O  O214  1  0.26138354  0.87082926  0.07735554  1
  O  O215  1  0.76173689  0.86960711  0.07771845  1
  O  O216  1  0.16892860  0.84493665  0.58091446  1
  O  O217  1  0.67726103  0.85778255  0.57890653  1
  O  O218  1  0.26164224  0.65468346  0.57728798  1
  O  O219  1  0.75182757  0.65831694  0.57773701  1
  O  O220  1  0.06800432  0.48021084  0.57823105  1
  O  O221  1  0.56687550  0.47216012  0.58087724  1
  O  O222  1  0.14881454  0.83316749  0.25344057  1
  O  O223  1  0.64914208  0.83333371  0.25322918  1
  O  O224  1  0.25701195  0.69920631  0.25742172  1
  O  O225  1  0.75703213  0.69845793  0.25753574  1
  O  O226  1  0.08833124  0.48221219  0.25544443  1
  O  O227  1  0.58871610  0.48175939  0.25516950  1
  O  O228  1  0.15270056  0.46933935  0.75267783  1
  O  O229  1  0.64753903  0.46120784  0.75253458  1
  O  O230  1  0.09044791  0.70051001  0.75388059  1
  O  O231  1  0.58895752  0.69641613  0.75461634  1
  O  O232  1  0.25788996  0.81549240  0.75636038  1
  O  O233  1  0.75603098  0.81212648  0.75704012  1
