# generated using pymatgen
data_NaMgCr3O8
_symmetry_space_group_name_H-M   'P 1'
_cell_length_a   5.49487889
_cell_length_b   5.49487858
_cell_length_c   7.36995056
_cell_angle_alpha   80.35133664
_cell_angle_beta   80.35133825
_cell_angle_gamma   59.53890008
_symmetry_Int_Tables_number   1
_chemical_formula_structural   NaMgCr3O8
_chemical_formula_sum   'Na1 Mg1 Cr3 O8'
_cell_volume   188.20193138
_cell_formula_units_Z   1
loop_
 _symmetry_equiv_pos_site_id
 _symmetry_equiv_pos_as_xyz
  1  'x, y, z'
loop_
 _atom_site_type_symbol
 _atom_site_label
 _atom_site_symmetry_multiplicity
 _atom_site_fract_x
 _atom_site_fract_y
 _atom_site_fract_z
 _atom_site_occupancy
  Na  Na0  1  0.11506935  0.11506935  0.04576976  1
  Mg  Mg1  1  0.85799734  0.85799734  0.83494475  1
  Cr  Cr2  1  0.60593452  0.60593452  0.72078577  1
  Cr  Cr3  1  0.99475379  0.99475379  0.49059880  1
  Cr  Cr4  1  0.37577291  0.37577291  0.25996382  1
  O  O5  1  0.77819492  0.23361177  0.70143177  1
  O  O6  1  0.72269626  0.21786305  0.29412775  1
  O  O7  1  0.21786305  0.72269626  0.29412775  1
  O  O8  1  0.23361177  0.77819492  0.70143177  1
  O  O9  1  0.21466262  0.21466262  0.39607550  1
  O  O10  1  0.78677122  0.78677122  0.58730157  1
  O  O11  1  0.65858972  0.65858972  0.94300823  1
  O  O12  1  0.35058253  0.35058253  0.04524776  1
