# generated using pymatgen
data_NaCaNb3(PO4)6
_symmetry_space_group_name_H-M   'P 1'
_cell_length_a   8.89600185
_cell_length_b   8.89600156
_cell_length_c   23.13705199
_cell_angle_alpha   90.00000000
_cell_angle_beta   90.00000000
_cell_angle_gamma   120.00000110
_symmetry_Int_Tables_number   1
_chemical_formula_structural   NaCaNb3(PO4)6
_chemical_formula_sum   'Na3 Ca3 Nb9 P18 O72'
_cell_volume   1585.72679365
_cell_formula_units_Z   3
loop_
 _symmetry_equiv_pos_site_id
 _symmetry_equiv_pos_as_xyz
  1  'x, y, z'
loop_
 _atom_site_type_symbol
 _atom_site_label
 _atom_site_symmetry_multiplicity
 _atom_site_fract_x
 _atom_site_fract_y
 _atom_site_fract_z
 _atom_site_occupancy
  Na  Na0  1  -0.00000000  0.00000000  0.98686656  1
  Na  Na1  1  0.66666700  0.33333300  0.84258501  1
  Na  Na2  1  0.66666700  0.33333300  0.34082489  1
  Ca  Ca3  1  -0.00000000  0.00000000  0.85384323  1
  Ca  Ca4  1  0.66666700  0.33333300  0.97748625  1
  Ca  Ca5  1  0.66666700  0.33333300  0.47946035  1
  Nb  Nb6  1  -0.00000000  0.00000000  0.35960822  1
  Nb  Nb7  1  -0.00000000  0.00000000  0.64982548  1
  Nb  Nb8  1  -0.00000000  0.00000000  0.14778722  1
  Nb  Nb9  1  0.66666700  0.33333300  0.68387764  1
  Nb  Nb10  1  0.66666700  0.33333300  0.18442296  1
  Nb  Nb11  1  0.33333300  0.66666700  0.02044330  1
  Nb  Nb12  1  0.33333300  0.66666700  0.52611880  1
  Nb  Nb13  1  0.33333300  0.66666700  0.30881144  1
  Nb  Nb14  1  0.33333300  0.66666700  0.80953193  1
  P  P15  1  0.28772645  0.00532269  0.25180020  1
  P  P16  1  0.71759624  0.71227355  0.25180020  1
  P  P17  1  0.99467731  0.28240376  0.25180020  1
  P  P18  1  0.29629701  0.29316615  0.75007400  1
  P  P19  1  0.99686914  0.70370299  0.75007400  1
  P  P20  1  0.70683385  0.00313086  0.75007400  1
  P  P21  1  0.95777529  0.32796853  0.58295415  1
  P  P22  1  0.37019425  0.04222471  0.58295415  1
  P  P23  1  0.67203147  0.62980575  0.58295415  1
  P  P24  1  0.96111681  0.62755688  0.08412396  1
  P  P25  1  0.66644107  0.03888319  0.08412396  1
  P  P26  1  0.37244312  0.33355893  0.08412396  1
  P  P27  1  0.61595742  0.66720409  0.91570019  1
  P  P28  1  0.05124567  0.38404258  0.91570019  1
  P  P29  1  0.33279591  0.94875433  0.91570019  1
  P  P30  1  0.61465928  0.94463961  0.41441556  1
  P  P31  1  0.32997933  0.38534072  0.41441556  1
  P  P32  1  0.05536039  0.67002067  0.41441556  1
  O  O33  1  0.20073301  0.03436743  0.30509151  1
  O  O34  1  0.83363443  0.79926699  0.30509151  1
  O  O35  1  0.96563257  0.16636557  0.30509151  1
  O  O36  1  0.23915231  0.18699425  0.80365653  1
  O  O37  1  0.94784194  0.76084769  0.80365653  1
  O  O38  1  0.81300575  0.05215806  0.80365653  1
  O  O39  1  0.80188441  0.97654651  0.69734227  1
  O  O40  1  0.17466210  0.19811559  0.69734227  1
  O  O41  1  0.02345349  0.82533790  0.69734227  1
  O  O42  1  0.80227009  0.82664337  0.19828249  1
  O  O43  1  0.02437328  0.19772991  0.19828249  1
  O  O44  1  0.17335663  0.97562672  0.19828249  1
  O  O45  1  0.86899322  0.36373671  0.63486401  1
  O  O46  1  0.49474449  0.13100678  0.63486401  1
  O  O47  1  0.63626329  0.50525551  0.63486401  1
  O  O48  1  0.86123360  0.50526790  0.13863464  1
  O  O49  1  0.64403530  0.13876640  0.13863464  1
  O  O50  1  0.49473210  0.35596470  0.13863464  1
  O  O51  1  0.43117336  0.28106605  0.03177859  1
  O  O52  1  0.84989369  0.56882664  0.03177859  1
  O  O53  1  0.71893395  0.15010631  0.03177859  1
  O  O54  1  0.43064881  0.14421443  0.52833327  1
  O  O55  1  0.71356662  0.56935119  0.52833327  1
  O  O56  1  0.85578557  0.28643338  0.52833327  1
  O  O57  1  0.51002325  0.66663458  0.97271430  1
  O  O58  1  0.15661033  0.48997675  0.97271430  1
  O  O59  1  0.33336542  0.84338967  0.97271430  1
  O  O60  1  0.53071222  0.83626781  0.46945528  1
  O  O61  1  0.30555459  0.46928778  0.46945528  1
  O  O62  1  0.16373219  0.69444541  0.46945528  1
  O  O63  1  0.15549087  0.66193160  0.35978293  1
  O  O64  1  0.50643972  0.84450913  0.35978293  1
  O  O65  1  0.33806840  0.49356028  0.35978293  1
  O  O66  1  0.15755374  0.48937773  0.86063965  1
  O  O67  1  0.33182299  0.84244626  0.86063965  1
  O  O68  1  0.51062227  0.66817701  0.86063965  1
  O  O69  1  0.04687880  0.84272578  0.40464730  1
  O  O70  1  0.79584698  0.95312120  0.40464730  1
  O  O71  1  0.15727422  0.20415302  0.40464730  1
  O  O72  1  0.05018974  0.21482434  0.92022170  1
  O  O73  1  0.16463459  0.94981026  0.92022170  1
  O  O74  1  0.78517566  0.83536541  0.92022170  1
  O  O75  1  0.99317545  0.18068545  0.60098316  1
  O  O76  1  0.18751000  0.00682455  0.60098316  1
  O  O77  1  0.81931455  0.81249000  0.60098316  1
  O  O78  1  0.98973584  0.81216471  0.10183542  1
  O  O79  1  0.82242887  0.01026416  0.10183542  1
  O  O80  1  0.18783529  0.17757113  0.10183542  1
  O  O81  1  0.67554524  0.15729485  0.73282750  1
  O  O82  1  0.48175061  0.32445476  0.73282750  1
  O  O83  1  0.84270515  0.51824939  0.73282750  1
  O  O84  1  0.69544872  0.52910587  0.24215483  1
  O  O85  1  0.83365815  0.30455128  0.24215483  1
  O  O86  1  0.47089413  0.16634185  0.24215483  1
  O  O87  1  0.61751706  0.49909451  0.91348258  1
  O  O88  1  0.88157845  0.38248294  0.91348258  1
  O  O89  1  0.50090549  0.11842155  0.91348258  1
  O  O90  1  0.63732868  0.12294019  0.41277837  1
  O  O91  1  0.48561251  0.36267132  0.41277837  1
  O  O92  1  0.87705981  0.51438749  0.41277837  1
  O  O93  1  0.35529937  0.49589026  0.07957438  1
  O  O94  1  0.14058988  0.64470063  0.07957438  1
  O  O95  1  0.50410974  0.85941012  0.07957438  1
  O  O96  1  0.35387111  0.85690795  0.57384702  1
  O  O97  1  0.50303583  0.64612889  0.57384702  1
  O  O98  1  0.14309205  0.49696417  0.57384702  1
  O  O99  1  0.30846266  0.84336615  0.26049018  1
  O  O100  1  0.53490249  0.69153734  0.26049018  1
  O  O101  1  0.15663385  0.46509751  0.26049018  1
  O  O102  1  0.31462202  0.47556930  0.75590498  1
  O  O103  1  0.16094629  0.68537798  0.75590498  1
  O  O104  1  0.52443070  0.83905371  0.75590498  1
