# generated using pymatgen
data_Na2Y4Ta4Si5S7O48
_symmetry_space_group_name_H-M   'P 1'
_cell_length_a   18.08096355
_cell_length_b   9.05700801
_cell_length_c   23.60712939
_cell_angle_alpha   89.92274047
_cell_angle_beta   90.04965228
_cell_angle_gamma   120.18403083
_symmetry_Int_Tables_number   1
_chemical_formula_structural   Na2Y4Ta4Si5S7O48
_chemical_formula_sum   'Na6 Y12 Ta12 Si15 S21 O144'
_cell_volume   3341.73014031
_cell_formula_units_Z   3
loop_
 _symmetry_equiv_pos_site_id
 _symmetry_equiv_pos_as_xyz
  1  'x, y, z'
loop_
 _atom_site_type_symbol
 _atom_site_label
 _atom_site_symmetry_multiplicity
 _atom_site_fract_x
 _atom_site_fract_y
 _atom_site_fract_z
 _atom_site_occupancy
  Na  Na0  1  0.00135234  0.98741021  0.49584159  1
  Na  Na1  1  0.49647768  0.00846011  0.99396250  1
  Na  Na2  1  0.33116257  0.30915463  0.84538899  1
  Na  Na3  1  0.83263919  0.33957754  0.83441808  1
  Na  Na4  1  0.32853867  0.32100106  0.32904920  1
  Na  Na5  1  0.84655172  0.35538308  0.33477055  1
  Y  Y6  1  0.00795061  0.99167123  0.35520517  1
  Y  Y7  1  0.50517188  0.02268448  0.85594453  1
  Y  Y8  1  0.00341669  0.00538279  0.64992525  1
  Y  Y9  1  0.50363566  0.00279646  0.14822570  1
  Y  Y10  1  0.32475507  0.32329699  0.97881879  1
  Y  Y11  1  0.84354607  0.33556870  0.98413501  1
  Y  Y12  1  0.34231221  0.35062871  0.48458471  1
  Y  Y13  1  0.82806130  0.32795402  0.48071760  1
  Y  Y14  1  0.15645741  0.67180059  0.30497529  1
  Y  Y15  1  0.67154468  0.67164631  0.30315236  1
  Y  Y16  1  0.17063438  0.67585364  0.80327660  1
  Y  Y17  1  0.65687652  0.64146646  0.80469339  1
  Ta  Ta18  1  0.50303077  0.01330366  0.34947128  1
  Ta  Ta19  1  0.00906576  0.99176800  0.85335527  1
  Ta  Ta20  1  0.50372514  0.00834081  0.64214031  1
  Ta  Ta21  1  0.00520410  0.00288695  0.14156573  1
  Ta  Ta22  1  0.33273157  0.34418820  0.68341931  1
  Ta  Ta23  1  0.83135734  0.32818610  0.68840683  1
  Ta  Ta24  1  0.33140858  0.32911330  0.18388190  1
  Ta  Ta25  1  0.83141488  0.32172444  0.18166866  1
  Ta  Ta26  1  0.15817060  0.66148525  0.02243756  1
  Ta  Ta27  1  0.67064063  0.66777647  0.02016829  1
  Ta  Ta28  1  0.16954080  0.67238581  0.52091078  1
  Ta  Ta29  1  0.66018609  0.66883147  0.52632824  1
  Si  Si30  1  0.14520509  0.01270335  0.24732408  1
  Si  Si31  1  0.65367156  0.02661173  0.25004838  1
  Si  Si32  1  0.49041100  0.28401045  0.24836334  1
  Si  Si33  1  0.15304180  0.28214429  0.75076428  1
  Si  Si34  1  0.64395400  0.27715511  0.74776164  1
  Si  Si35  1  0.99131617  0.70095079  0.74911261  1
  Si  Si36  1  0.47673299  0.32965802  0.58428690  1
  Si  Si37  1  0.68903081  0.04356333  0.58531000  1
  Si  Si38  1  0.33148910  0.62971049  0.58556424  1
  Si  Si39  1  0.97804441  0.62560252  0.08441289  1
  Si  Si40  1  0.83160070  0.03214488  0.08552206  1
  Si  Si41  1  0.18997925  0.34592015  0.08469169  1
  Si  Si42  1  0.52198323  0.37546794  0.91939327  1
  Si  Si43  1  0.16528390  0.94768815  0.91515496  1
  Si  Si44  1  0.02020170  0.66635698  0.41919294  1
  S  S45  1  0.35984729  0.69948916  0.25311615  1
  S  S46  1  0.86241228  0.70334759  0.24450471  1
  S  S47  1  0.99047702  0.27589505  0.24613066  1
  S  S48  1  0.49156093  0.70736218  0.74589448  1
  S  S49  1  0.36225300  0.02037141  0.74291703  1
  S  S50  1  0.85743082  0.01685548  0.75189829  1
  S  S51  1  0.98496496  0.34781869  0.58183755  1
  S  S52  1  0.18907907  0.03518972  0.58060781  1
  S  S53  1  0.82655417  0.62278869  0.58161763  1
  S  S54  1  0.48519304  0.62083114  0.08157356  1
  S  S55  1  0.32682841  0.03367571  0.08309573  1
  S  S56  1  0.69018128  0.34389000  0.08079422  1
  S  S57  1  0.30998144  0.67742308  0.92107645  1
  S  S58  1  0.81315661  0.67843720  0.91570352  1
  S  S59  1  0.02612876  0.37060233  0.91518556  1
  S  S60  1  0.66572679  0.94660732  0.91925643  1
  S  S61  1  0.31429858  0.94945068  0.41558991  1
  S  S62  1  0.80876581  0.94142127  0.42149665  1
  S  S63  1  0.16580548  0.38524977  0.41959321  1
  S  S64  1  0.65813144  0.37028119  0.41589121  1
  S  S65  1  0.52837251  0.68184951  0.41597697  1
  O  O66  1  0.11751740  0.06104531  0.30644547  1
  O  O67  1  0.59555194  0.04523768  0.30632664  1
  O  O68  1  0.41861481  0.79097924  0.30361921  1
  O  O69  1  0.91115777  0.77158559  0.29804097  1
  O  O70  1  0.47446871  0.14816945  0.30630580  1
  O  O71  1  0.97393095  0.17964867  0.29944602  1
  O  O72  1  0.09661702  0.14868253  0.80635858  1
  O  O73  1  0.61509777  0.17154253  0.80618079  1
  O  O74  1  0.47544864  0.77091911  0.79890788  1
  O  O75  1  0.97513230  0.79953765  0.80586679  1
  O  O76  1  0.41078158  0.05147036  0.79641711  1
  O  O77  1  0.91298631  0.04548935  0.80136803  1
  O  O78  1  0.40895791  0.00273716  0.69488895  1
  O  O79  1  0.89162881  0.99093272  0.69891782  1
  O  O80  1  0.09780105  0.20593190  0.69445636  1
  O  O81  1  0.58105303  0.16279800  0.69654078  1
  O  O82  1  0.99750906  0.80293492  0.69277035  1
  O  O83  1  0.49552977  0.80943669  0.69687151  1
  O  O84  1  0.39407747  0.79833423  0.20133548  1
  O  O85  1  0.90615791  0.81419479  0.19615131  1
  O  O86  1  0.99491292  0.18178918  0.19753838  1
  O  O87  1  0.49949628  0.19390925  0.19370012  1
  O  O88  1  0.07978174  0.99826073  0.19766466  1
  O  O89  1  0.59713655  0.98975040  0.19485949  1
  O  O90  1  0.42676894  0.36378608  0.63643914  1
  O  O91  1  0.94564666  0.37288913  0.63363346  1
  O  O92  1  0.24062404  0.11654259  0.63207794  1
  O  O93  1  0.76080598  0.14361503  0.63595078  1
  O  O94  1  0.31021730  0.48889278  0.63881307  1
  O  O95  1  0.81441107  0.51574273  0.63236640  1
  O  O96  1  0.44530739  0.51547445  0.13405461  1
  O  O97  1  0.92505591  0.49136406  0.13755784  1
  O  O98  1  0.31903722  0.12807147  0.13452973  1
  O  O99  1  0.81005839  0.13020502  0.13956933  1
  O  O100  1  0.26112743  0.38328218  0.13776312  1
  O  O101  1  0.74186524  0.36284753  0.13292141  1
  O  O102  1  0.22217946  0.28565943  0.03265903  1
  O  O103  1  0.72831342  0.31626850  0.03045350  1
  O  O104  1  0.43254196  0.53968919  0.03215492  1
  O  O105  1  0.92176071  0.55905477  0.02882512  1
  O  O106  1  0.34566192  0.14077423  0.03331963  1
  O  O107  1  0.85540356  0.15341860  0.03176704  1
  O  O108  1  0.22749958  0.13824477  0.52977437  1
  O  O109  1  0.72017597  0.15259098  0.52913474  1
  O  O110  1  0.35540308  0.55848356  0.53110436  1
  O  O111  1  0.84346371  0.55075049  0.53108671  1
  O  O112  1  0.42388242  0.28833915  0.52719457  1
  O  O113  1  0.93234752  0.32608889  0.53173697  1
  O  O114  1  0.26023275  0.68230561  0.97191702  1
  O  O115  1  0.76947344  0.69239067  0.96963741  1
  O  O116  1  0.07380582  0.45191888  0.97021029  1
  O  O117  1  0.58596440  0.49370382  0.97525870  1
  O  O118  1  0.15541516  0.82821506  0.97318853  1
  O  O119  1  0.66733397  0.84787365  0.97173286  1
  O  O120  1  0.27169104  0.84815513  0.46916108  1
  O  O121  1  0.75826980  0.83265880  0.47197951  1
  O  O122  1  0.16713894  0.48681219  0.47157949  1
  O  O123  1  0.64702982  0.45044643  0.46777923  1
  O  O124  1  0.08350786  0.67336527  0.47482421  1
  O  O125  1  0.57754274  0.69488100  0.47051298  1
  O  O126  1  0.06548695  0.65701734  0.36176070  1
  O  O127  1  0.57188590  0.65883850  0.36828722  1
  O  O128  1  0.26170383  0.86440482  0.36603755  1
  O  O129  1  0.76463782  0.85873430  0.36955146  1
  O  O130  1  0.17452264  0.48043269  0.36799062  1
  O  O131  1  0.67280522  0.47511033  0.36598299  1
  O  O132  1  0.06927233  0.47787464  0.86709925  1
  O  O133  1  0.56822156  0.47330807  0.86174375  1
  O  O134  1  0.17726931  0.86166440  0.86077633  1
  O  O135  1  0.67463720  0.86900185  0.86792886  1
  O  O136  1  0.26623217  0.66592754  0.86852982  1
  O  O137  1  0.76010199  0.65667830  0.86631289  1
  O  O138  1  0.01898868  0.84550762  0.42329779  1
  O  O139  1  0.52284616  0.84006100  0.41022011  1
  O  O140  1  0.39880579  0.95577406  0.40967463  1
  O  O141  1  0.89458109  0.95938873  0.42401468  1
  O  O142  1  0.08293213  0.22202330  0.42253375  1
  O  O143  1  0.57520758  0.19779637  0.40754992  1
  O  O144  1  0.01774519  0.19860739  0.90960462  1
  O  O145  1  0.52074822  0.19377174  0.92362870  1
  O  O146  1  0.07168207  0.95000679  0.90614661  1
  O  O147  1  0.58299799  0.94343275  0.92235186  1
  O  O148  1  0.39537892  0.83674113  0.92295232  1
  O  O149  1  0.89630096  0.84040619  0.91104286  1
  O  O150  1  0.49967704  0.18235901  0.60054895  1
  O  O151  1  0.99671346  0.19876167  0.58563454  1
  O  O152  1  0.10014021  0.99847842  0.58526154  1
  O  O153  1  0.59260580  0.99593291  0.60337485  1
  O  O154  1  0.40696694  0.81486557  0.60644836  1
  O  O155  1  0.89535985  0.80100100  0.58768124  1
  O  O156  1  0.49743659  0.79386944  0.08737500  1
  O  O157  1  0.99929437  0.81783930  0.10149159  1
  O  O158  1  0.39672258  0.99757583  0.09148215  1
  O  O159  1  0.90745259  0.00038720  0.10712673  1
  O  O160  1  0.09340261  0.19366160  0.10441382  1
  O  O161  1  0.60171204  0.20198203  0.08633741  1
  O  O162  1  0.35334412  0.17393146  0.73297122  1
  O  O163  1  0.85464187  0.18451191  0.74446647  1
  O  O164  1  0.24479186  0.28002422  0.73941898  1
  O  O165  1  0.73878858  0.29339816  0.73028135  1
  O  O166  1  0.41460153  0.52644343  0.73704735  1
  O  O167  1  0.90173838  0.51090261  0.73870896  1
  O  O168  1  0.35842973  0.53159867  0.24736478  1
  O  O169  1  0.85341440  0.53146335  0.23572062  1
  O  O170  1  0.40359277  0.29967897  0.24000551  1
  O  O171  1  0.91363397  0.30284217  0.23755535  1
  O  O172  1  0.24034291  0.18453083  0.22954486  1
  O  O173  1  0.74510571  0.21072024  0.24160099  1
  O  O174  1  0.32158444  0.52795044  0.92602157  1
  O  O175  1  0.82438387  0.52836825  0.92163120  1
  O  O176  1  0.42896615  0.35595780  0.92358761  1
  O  O177  1  0.93831152  0.34733589  0.91917808  1
  O  O178  1  0.23903768  0.14346305  0.91954342  1
  O  O179  1  0.73878288  0.12316181  0.92451263  1
  O  O180  1  0.32716546  0.12306117  0.42078817  1
  O  O181  1  0.81493922  0.11012048  0.42556883  1
  O  O182  1  0.23868664  0.35491958  0.42459558  1
  O  O183  1  0.72864748  0.33430851  0.42136634  1
  O  O184  1  0.44111648  0.53157724  0.42033793  1
  O  O185  1  0.92416261  0.50112554  0.42163774  1
  O  O186  1  0.18237075  0.51569864  0.07011863  1
  O  O187  1  0.68839710  0.50752987  0.07445824  1
  O  O188  1  0.07002364  0.63316031  0.07163659  1
  O  O189  1  0.57278237  0.63918614  0.07469612  1
  O  O190  1  0.24459914  0.86895575  0.07762965  1
  O  O191  1  0.74687330  0.84595055  0.07138499  1
  O  O192  1  0.18649715  0.86622514  0.57288905  1
  O  O193  1  0.68021216  0.85147172  0.57141896  1
  O  O194  1  0.24655844  0.64644625  0.57029420  1
  O  O195  1  0.74374013  0.62494612  0.57120184  1
  O  O196  1  0.07275103  0.50469364  0.57425202  1
  O  O197  1  0.57131181  0.50569098  0.56975394  1
  O  O198  1  0.15953538  0.85269819  0.24770124  1
  O  O199  1  0.67550239  0.88499863  0.26803967  1
  O  O200  1  0.27456099  0.66754062  0.26562863  1
  O  O201  1  0.77649753  0.68116656  0.24875584  1
  O  O202  1  0.06778102  0.44479874  0.24853987  1
  O  O203  1  0.56827581  0.46284822  0.26579385  1
  O  O204  1  0.17867380  0.46957189  0.76700832  1
  O  O205  1  0.65951391  0.46648494  0.74690746  1
  O  O206  1  0.06509893  0.66114647  0.76067254  1
  O  O207  1  0.56847137  0.69244644  0.74785507  1
  O  O208  1  0.27767267  0.86848643  0.74477017  1
  O  O209  1  0.76997648  0.88019776  0.76112601  1
