# generated using pymatgen
data_Na3MgGe(PO4)3
_symmetry_space_group_name_H-M   'P 1'
_cell_length_a   15.21251557
_cell_length_b   8.77838083
_cell_length_c   8.72421030
_cell_angle_alpha   90.00000000
_cell_angle_beta   125.04815778
_cell_angle_gamma   90.00000000
_symmetry_Int_Tables_number   1
_chemical_formula_structural   Na3MgGe(PO4)3
_chemical_formula_sum   'Na12 Mg4 Ge4 P12 O48'
_cell_volume   953.78452822
_cell_formula_units_Z   4
loop_
 _symmetry_equiv_pos_site_id
 _symmetry_equiv_pos_as_xyz
  1  'x, y, z'
loop_
 _atom_site_type_symbol
 _atom_site_label
 _atom_site_symmetry_multiplicity
 _atom_site_fract_x
 _atom_site_fract_y
 _atom_site_fract_z
 _atom_site_occupancy
  Na  Na0  1  0.25065460  0.72989508  0.98952305  1
  Na  Na1  1  0.75065460  0.77010492  0.48952305  1
  Na  Na2  1  0.75065460  0.22989508  0.98952305  1
  Na  Na3  1  0.25065460  0.27010492  0.48952305  1
  Na  Na4  1  0.50368008  0.10688510  0.74987357  1
  Na  Na5  1  0.50368008  0.89311490  0.24987357  1
  Na  Na6  1  0.00368008  0.60688510  0.74987357  1
  Na  Na7  1  0.00368008  0.39311490  0.24987357  1
  Na  Na8  1  0.18277984  0.93950188  0.28568964  1
  Na  Na9  1  0.18277984  0.06049812  0.78568964  1
  Na  Na10  1  0.68277984  0.43950188  0.28568964  1
  Na  Na11  1  0.68277984  0.56049812  0.78568964  1
  Mg  Mg12  1  0.10407643  0.74927234  0.56439776  1
  Mg  Mg13  1  0.10407643  0.25072766  0.06439776  1
  Mg  Mg14  1  0.60407643  0.24927234  0.56439776  1
  Mg  Mg15  1  0.60407643  0.75072766  0.06439776  1
  Ge  Ge16  1  0.89656736  0.75708449  0.94210299  1
  Ge  Ge17  1  0.89656736  0.24291551  0.44210299  1
  Ge  Ge18  1  0.39656736  0.25708449  0.94210299  1
  Ge  Ge19  1  0.39656736  0.74291551  0.44210299  1
  P  P20  1  0.99481711  0.95771106  0.75675585  1
  P  P21  1  0.99481711  0.04228894  0.25675585  1
  P  P22  1  0.49481711  0.45771106  0.75675585  1
  P  P23  1  0.49481711  0.54228894  0.25675585  1
  P  P24  1  0.35644873  0.90121066  0.76065806  1
  P  P25  1  0.64884525  0.88814402  0.75065635  1
  P  P26  1  0.64884525  0.11185598  0.25065635  1
  P  P27  1  0.35644873  0.09878934  0.26065806  1
  P  P28  1  0.85644873  0.40121066  0.76065806  1
  P  P29  1  0.14884525  0.38814402  0.75065635  1
  P  P30  1  0.14884525  0.61185598  0.25065635  1
  P  P31  1  0.85644873  0.59878934  0.26065806  1
  O  O32  1  0.15510435  0.55999839  0.73920196  1
  O  O33  1  0.85081070  0.58340533  0.75897512  1
  O  O34  1  0.85081070  0.41659467  0.25897512  1
  O  O35  1  0.15510435  0.44000161  0.23920196  1
  O  O36  1  0.65510435  0.05999839  0.73920196  1
  O  O37  1  0.35081070  0.08340533  0.75897512  1
  O  O38  1  0.35081070  0.91659467  0.25897512  1
  O  O39  1  0.65510435  0.94000161  0.23920196  1
  O  O40  1  0.42440152  0.56007614  0.57561779  1
  O  O41  1  0.56336066  0.55097519  0.93192697  1
  O  O42  1  0.56336066  0.44902481  0.43192697  1
  O  O43  1  0.42440152  0.43992386  0.07561779  1
  O  O44  1  0.92440152  0.06007614  0.57561779  1
  O  O45  1  0.06336066  0.05097519  0.93192697  1
  O  O46  1  0.06336066  0.94902481  0.43192697  1
  O  O47  1  0.92440152  0.93992386  0.07561779  1
  O  O48  1  0.25729841  0.84227562  0.74431990  1
  O  O49  1  0.74378387  0.80572172  0.75808099  1
  O  O50  1  0.74378387  0.19427828  0.25808099  1
  O  O51  1  0.25729841  0.15772438  0.24431990  1
  O  O52  1  0.75729841  0.34227562  0.74431990  1
  O  O53  1  0.24378387  0.30572172  0.75808099  1
  O  O54  1  0.24378387  0.69427828  0.25808099  1
  O  O55  1  0.75729841  0.65772438  0.24431990  1
  O  O56  1  0.35602599  0.87080065  0.57857333  1
  O  O57  1  0.64798474  0.84330996  0.91533640  1
  O  O58  1  0.64798474  0.15669004  0.41533640  1
  O  O59  1  0.35602599  0.12919935  0.07857333  1
  O  O60  1  0.85602599  0.37080065  0.57857333  1
  O  O61  1  0.14798474  0.34330996  0.91533640  1
  O  O62  1  0.14798474  0.65669004  0.41533640  1
  O  O63  1  0.85602599  0.62919935  0.07857333  1
  O  O64  1  0.45854631  0.84731728  0.93576573  1
  O  O65  1  0.54487035  0.81779211  0.56238395  1
  O  O66  1  0.54487035  0.18220789  0.06238395  1
  O  O67  1  0.45854631  0.15268272  0.43576573  1
  O  O68  1  0.95854631  0.34731728  0.93576573  1
  O  O69  1  0.04487035  0.31779211  0.56238395  1
  O  O70  1  0.04487035  0.68220789  0.06238395  1
  O  O71  1  0.95854631  0.65268272  0.43576573  1
  O  O72  1  0.06961472  0.85024832  0.74210552  1
  O  O73  1  0.91032896  0.85454426  0.75805506  1
  O  O74  1  0.91032896  0.14545574  0.25805506  1
  O  O75  1  0.06961472  0.14975168  0.24210552  1
  O  O76  1  0.56961472  0.35024832  0.74210552  1
  O  O77  1  0.41032896  0.35454426  0.75805506  1
  O  O78  1  0.41032896  0.64545574  0.25805506  1
  O  O79  1  0.56961472  0.64975168  0.24210552  1
