# generated using pymatgen
data_Na3TiZn3PS5O24
_symmetry_space_group_name_H-M   'P 1'
_cell_length_a   8.76569292
_cell_length_b   8.74458984
_cell_length_c   22.43174422
_cell_angle_alpha   90.21303704
_cell_angle_beta   90.04493956
_cell_angle_gamma   120.20690391
_symmetry_Int_Tables_number   1
_chemical_formula_structural   Na3TiZn3PS5O24
_chemical_formula_sum   'Na9 Ti3 Zn9 P3 S15 O72'
_cell_volume   1485.95301905
_cell_formula_units_Z   3
loop_
 _symmetry_equiv_pos_site_id
 _symmetry_equiv_pos_as_xyz
  1  'x, y, z'
loop_
 _atom_site_type_symbol
 _atom_site_label
 _atom_site_symmetry_multiplicity
 _atom_site_fract_x
 _atom_site_fract_y
 _atom_site_fract_z
 _atom_site_occupancy
  Na  Na0  1  0.36284834  0.36272768  0.25087412  1
  Na  Na1  1  0.03297083  0.70067938  0.58480256  1
  Na  Na2  1  0.29892840  0.96482219  0.08084423  1
  Na  Na3  1  0.99317685  0.00550053  0.49932182  1
  Na  Na4  1  0.99594683  0.00616640  0.99398408  1
  Na  Na5  1  0.66440234  0.33047327  0.82807066  1
  Na  Na6  1  0.67817362  0.33021091  0.33246002  1
  Na  Na7  1  0.33240401  0.66536192  0.16729856  1
  Na  Na8  1  0.35228627  0.66407273  0.66531228  1
  Ti  Ti9  1  0.67177399  0.32973772  0.97423232  1
  Ti  Ti10  1  0.66691717  0.34139840  0.48308398  1
  Ti  Ti11  1  0.32456649  0.66841855  0.81704535  1
  Zn  Zn12  1  0.99471914  0.99690923  0.35001747  1
  Zn  Zn13  1  0.00648869  0.00777656  0.85135001  1
  Zn  Zn14  1  0.98968814  0.00068054  0.65103079  1
  Zn  Zn15  1  0.99000320  0.99738174  0.15128471  1
  Zn  Zn16  1  0.66031696  0.33483608  0.68444538  1
  Zn  Zn17  1  0.67627376  0.33644358  0.18341992  1
  Zn  Zn18  1  0.32985846  0.66059356  0.01248495  1
  Zn  Zn19  1  0.34844790  0.66752182  0.51572593  1
  Zn  Zn20  1  0.33431728  0.67604076  0.31975325  1
  P  P21  1  0.66347598  0.62739323  0.58554298  1
  P  P22  1  0.04350283  0.37279355  0.91812358  1
  P  P23  1  0.32917670  0.95681008  0.91973097  1
  S  S24  1  0.29467040  0.99719552  0.24869867  1
  S  S25  1  0.70356412  0.70432544  0.25015757  1
  S  S26  1  0.99956483  0.29570850  0.25061191  1
  S  S27  1  0.29467719  0.29743626  0.75083239  1
  S  S28  1  0.00106080  0.70471008  0.75049076  1
  S  S29  1  0.70168167  0.99778840  0.75145093  1
  S  S30  1  0.95661189  0.33182039  0.58291412  1
  S  S31  1  0.37623640  0.04289515  0.58299723  1
  S  S32  1  0.95695419  0.62408793  0.08278566  1
  S  S33  1  0.66891064  0.04303650  0.08225361  1
  S  S34  1  0.37737785  0.33718147  0.08346148  1
  S  S35  1  0.62476132  0.66591376  0.91747520  1
  S  S36  1  0.63083695  0.96696211  0.41737227  1
  S  S37  1  0.33321176  0.36763166  0.41625600  1
  S  S38  1  0.03727918  0.66598777  0.41887983  1
  O  O39  1  0.20996129  0.02842003  0.30083601  1
  O  O40  1  0.80994795  0.78521255  0.30398806  1
  O  O41  1  0.97517975  0.18942119  0.30430772  1
  O  O42  1  0.21370620  0.19057644  0.80408778  1
  O  O43  1  0.97792960  0.79164008  0.80283034  1
  O  O44  1  0.80985490  0.02369282  0.80453950  1
  O  O45  1  0.77185512  0.96196149  0.69644467  1
  O  O46  1  0.18825840  0.22384328  0.69598037  1
  O  O47  1  0.03534400  0.80639565  0.69446685  1
  O  O48  1  0.78154514  0.80729439  0.19543141  1
  O  O49  1  0.03262287  0.21764791  0.19625211  1
  O  O50  1  0.19428138  0.97373643  0.19221670  1
  O  O51  1  0.87840626  0.36065511  0.63655951  1
  O  O52  1  0.48109532  0.11856902  0.63714399  1
  O  O53  1  0.64166855  0.51713194  0.63990122  1
  O  O54  1  0.87789475  0.52288828  0.13731551  1
  O  O55  1  0.63687647  0.12113911  0.13591352  1
  O  O56  1  0.47452929  0.35718672  0.13995588  1
  O  O57  1  0.47157579  0.31213424  0.03139727  1
  O  O58  1  0.84662796  0.53088688  0.02910872  1
  O  O59  1  0.68779030  0.15518578  0.02832676  1
  O  O60  1  0.47051902  0.15417843  0.52911224  1
  O  O61  1  0.68637777  0.52230021  0.52888346  1
  O  O62  1  0.84309488  0.31028590  0.52855938  1
  O  O63  1  0.55154624  0.69398928  0.97218318  1
  O  O64  1  0.14857583  0.44955741  0.97449490  1
  O  O65  1  0.30899413  0.85947215  0.97791617  1
  O  O66  1  0.55009867  0.85977062  0.47072032  1
  O  O67  1  0.30646296  0.45190121  0.46877225  1
  O  O68  1  0.13962321  0.68945816  0.47390892  1
  O  O69  1  0.11286448  0.63160536  0.36538290  1
  O  O70  1  0.52376524  0.89315653  0.36286975  1
  O  O71  1  0.36815410  0.47178258  0.36084004  1
  O  O72  1  0.13574702  0.49761590  0.86285989  1
  O  O73  1  0.36259322  0.86312105  0.86495952  1
  O  O74  1  0.50938273  0.63370157  0.86428445  1
  O  O75  1  0.01288184  0.82007286  0.41264857  1
  O  O76  1  0.80934360  0.98983115  0.41179399  1
  O  O77  1  0.17930949  0.18779983  0.41104264  1
  O  O78  1  0.00616204  0.18613456  0.90863139  1
  O  O79  1  0.17360748  0.98326946  0.90973331  1
  O  O80  1  0.80278676  0.81566830  0.90916343  1
  O  O81  1  0.97163280  0.17199842  0.58491237  1
  O  O82  1  0.20144066  0.03096248  0.58477262  1
  O  O83  1  0.84114272  0.80501159  0.58438012  1
  O  O84  1  0.97388384  0.80289971  0.08459454  1
  O  O85  1  0.83074355  0.03202220  0.08527247  1
  O  O86  1  0.20175978  0.16981956  0.08516532  1
  O  O87  1  0.67768149  0.15259597  0.74531487  1
  O  O88  1  0.47345960  0.32111189  0.74608459  1
  O  O89  1  0.84958027  0.52385300  0.74621161  1
  O  O90  1  0.67945076  0.52198109  0.24578163  1
  O  O91  1  0.84189381  0.31448164  0.24490290  1
  O  O92  1  0.47247130  0.16226693  0.24486257  1
  O  O93  1  0.63551773  0.49778928  0.92328452  1
  O  O94  1  0.85793272  0.36637742  0.92412772  1
  O  O95  1  0.50634651  0.14492208  0.92483050  1
  O  O96  1  0.64830079  0.14716059  0.42528016  1
  O  O97  1  0.49732895  0.35145824  0.42508651  1
  O  O98  1  0.85524356  0.49995671  0.42515096  1
  O  O99  1  0.35900010  0.49431283  0.07753145  1
  O  O100  1  0.13725072  0.64873181  0.07878225  1
  O  O101  1  0.50828493  0.86578491  0.07629103  1
  O  O102  1  0.34815334  0.86162407  0.57578190  1
  O  O103  1  0.50148323  0.64561669  0.57692576  1
  O  O104  1  0.13075895  0.49518995  0.57519865  1
  O  O105  1  0.31296038  0.83923756  0.25491892  1
  O  O106  1  0.52217661  0.68072234  0.25503708  1
  O  O107  1  0.16407551  0.47376945  0.25603858  1
  O  O108  1  0.31368144  0.47972272  0.75905615  1
  O  O109  1  0.16769460  0.69003783  0.75877646  1
  O  O110  1  0.52039797  0.83282383  0.75966965  1
