# generated using pymatgen
data_Na6Nb4Ga4Si7S5O48
_symmetry_space_group_name_H-M   'P 1'
_cell_length_a   17.68951514
_cell_length_b   8.79617905
_cell_length_c   22.55124927
_cell_angle_alpha   89.88652046
_cell_angle_beta   90.27326265
_cell_angle_gamma   119.81922250
_symmetry_Int_Tables_number   1
_chemical_formula_structural   Na6Nb4Ga4Si7S5O48
_chemical_formula_sum   'Na18 Nb12 Ga12 Si21 S15 O144'
_cell_volume   3044.34937052
_cell_formula_units_Z   3
loop_
 _symmetry_equiv_pos_site_id
 _symmetry_equiv_pos_as_xyz
  1  'x, y, z'
loop_
 _atom_site_type_symbol
 _atom_site_label
 _atom_site_symmetry_multiplicity
 _atom_site_fract_x
 _atom_site_fract_y
 _atom_site_fract_z
 _atom_site_occupancy
  Na  Na0  1  0.99989009  0.61898169  0.25189834  1
  Na  Na1  1  0.50084646  0.64102397  0.25652124  1
  Na  Na2  1  0.99982154  0.36176661  0.75058671  1
  Na  Na3  1  0.49990227  0.37992484  0.74885403  1
  Na  Na4  1  0.33292314  0.96888829  0.58166796  1
  Na  Na5  1  0.83170837  0.69542875  0.08395583  1
  Na  Na6  1  0.00060073  0.98560811  0.50093169  1
  Na  Na7  1  0.50249699  0.00526958  0.49938802  1
  Na  Na8  1  0.99790661  0.99850818  0.00212990  1
  Na  Na9  1  0.50191883  0.01739942  0.00257495  1
  Na  Na10  1  0.33077455  0.34847763  0.82391466  1
  Na  Na11  1  0.82919565  0.33366402  0.83219998  1
  Na  Na12  1  0.33066434  0.32805347  0.33371993  1
  Na  Na13  1  0.82783213  0.31201664  0.32630691  1
  Na  Na14  1  0.16997095  0.66121165  0.17485635  1
  Na  Na15  1  0.66950506  0.66875448  0.16869885  1
  Na  Na16  1  0.16881210  0.66952153  0.66454170  1
  Na  Na17  1  0.66989871  0.67815399  0.66951304  1
  Nb  Nb18  1  0.99482249  0.00711588  0.35704590  1
  Nb  Nb19  1  0.50053405  0.98384791  0.35725600  1
  Nb  Nb20  1  0.99564310  0.01605601  0.85303308  1
  Nb  Nb21  1  0.49569679  0.98340943  0.85621828  1
  Nb  Nb22  1  0.99835673  0.00319442  0.64426839  1
  Nb  Nb23  1  0.49910952  0.99503914  0.14706762  1
  Nb  Nb24  1  0.34210784  0.33151324  0.97451141  1
  Nb  Nb25  1  0.83543017  0.35593651  0.98031904  1
  Nb  Nb26  1  0.33590898  0.31291332  0.48024429  1
  Nb  Nb27  1  0.83636929  0.35515268  0.47094945  1
  Nb  Nb28  1  0.16738771  0.66571982  0.02526650  1
  Nb  Nb29  1  0.66575764  0.65161481  0.52141101  1
  Ga  Ga30  1  0.50547069  0.99909997  0.64652655  1
  Ga  Ga31  1  0.00116901  0.00356833  0.15045864  1
  Ga  Ga32  1  0.33263468  0.34105786  0.68550059  1
  Ga  Ga33  1  0.82554853  0.32116051  0.68375632  1
  Ga  Ga34  1  0.32671802  0.32666124  0.18755113  1
  Ga  Ga35  1  0.83251576  0.32454160  0.18676671  1
  Ga  Ga36  1  0.67138444  0.63562689  0.01434504  1
  Ga  Ga37  1  0.17027426  0.70646189  0.51436932  1
  Ga  Ga38  1  0.16716279  0.65914827  0.31231913  1
  Ga  Ga39  1  0.66702221  0.68700565  0.32137335  1
  Ga  Ga40  1  0.16540658  0.63276645  0.81557073  1
  Ga  Ga41  1  0.66632096  0.67307667  0.81175823  1
  Si  Si42  1  0.65189411  0.00143285  0.25067701  1
  Si  Si43  1  0.34828006  0.69745321  0.24904670  1
  Si  Si44  1  0.00112735  0.29427752  0.24449361  1
  Si  Si45  1  0.15095491  0.29428825  0.74892480  1
  Si  Si46  1  0.50106029  0.70766720  0.74449794  1
  Si  Si47  1  0.84587253  0.99898929  0.74649061  1
  Si  Si48  1  0.47979842  0.32790660  0.59243021  1
  Si  Si49  1  0.19058634  0.04512488  0.58743203  1
  Si  Si50  1  0.83196667  0.61401735  0.58881241  1
  Si  Si51  1  0.97895975  0.63314944  0.09130122  1
  Si  Si52  1  0.33351367  0.05069037  0.08877582  1
  Si  Si53  1  0.68974028  0.33460600  0.08742961  1
  Si  Si54  1  0.30700902  0.66343456  0.91715230  1
  Si  Si55  1  0.80730656  0.67223097  0.91389015  1
  Si  Si56  1  0.02212765  0.38493751  0.91533015  1
  Si  Si57  1  0.53209484  0.38760286  0.91228997  1
  Si  Si58  1  0.30587508  0.93908322  0.41371866  1
  Si  Si59  1  0.80643155  0.95190039  0.41786561  1
  Si  Si60  1  0.66359856  0.38412995  0.40961503  1
  Si  Si61  1  0.03142566  0.67381113  0.41200183  1
  Si  Si62  1  0.52162243  0.65743785  0.41641684  1
  S  S63  1  0.14531721  0.00372354  0.24866795  1
  S  S64  1  0.85325096  0.71164456  0.24905608  1
  S  S65  1  0.49926746  0.28982378  0.24958295  1
  S  S66  1  0.64521706  0.28660099  0.74901945  1
  S  S67  1  0.00180133  0.71193167  0.75065580  1
  S  S68  1  0.35095832  0.99151239  0.75049805  1
  S  S69  1  0.98036027  0.34122794  0.58333767  1
  S  S70  1  0.68875615  0.04602548  0.58369858  1
  S  S71  1  0.33124543  0.62188721  0.58322114  1
  S  S72  1  0.48072070  0.62111551  0.08358385  1
  S  S73  1  0.83111733  0.04047188  0.08292717  1
  S  S74  1  0.18866539  0.32727077  0.08394675  1
  S  S75  1  0.16606362  0.95098182  0.91531416  1
  S  S76  1  0.66800997  0.95257590  0.91811945  1
  S  S77  1  0.16800774  0.38296684  0.41828509  1
  O  O78  1  0.10232647  0.02545573  0.30184659  1
  O  O79  1  0.59798213  0.02217301  0.30696584  1
  O  O80  1  0.41719758  0.79258876  0.30470210  1
  O  O81  1  0.91156298  0.80404787  0.30205401  1
  O  O82  1  0.48631481  0.18285765  0.30208640  1
  O  O83  1  0.99048371  0.16858246  0.30442985  1
  O  O84  1  0.09800785  0.17035612  0.80739114  1
  O  O85  1  0.60152415  0.17846402  0.80267688  1
  O  O86  1  0.49032468  0.81131858  0.80496674  1
  O  O87  1  0.98865210  0.79541274  0.80380956  1
  O  O88  1  0.41020465  0.01624510  0.80370699  1
  O  O89  1  0.91523229  0.04226339  0.80497292  1
  O  O90  1  0.38951423  0.96598199  0.69642768  1
  O  O91  1  0.90058478  0.97610610  0.69167356  1
  O  O92  1  0.08080520  0.19164572  0.69438525  1
  O  O93  1  0.59091928  0.20836631  0.69521481  1
  O  O94  1  0.01176101  0.81761881  0.69664548  1
  O  O95  1  0.51531332  0.83742945  0.68969578  1
  O  O96  1  0.40001033  0.82559641  0.19091597  1
  O  O97  1  0.89412776  0.81433337  0.19418451  1
  O  O98  1  0.01654820  0.19706050  0.18855108  1
  O  O99  1  0.50907339  0.20167594  0.19499868  1
  O  O100  1  0.09169103  0.97464625  0.19422255  1
  O  O101  1  0.58173309  0.96773804  0.19409619  1
  O  O102  1  0.43612920  0.35972100  0.64958849  1
  O  O103  1  0.94189341  0.36103940  0.63925358  1
  O  O104  1  0.25647187  0.13507334  0.64208787  1
  O  O105  1  0.73955732  0.11804150  0.63940883  1
  O  O106  1  0.31981872  0.52113262  0.63778340  1
  O  O107  1  0.81851415  0.49508750  0.64625838  1
  O  O108  1  0.44065557  0.51974983  0.13747621  1
  O  O109  1  0.93815922  0.51221889  0.14820419  1
  O  O110  1  0.31730992  0.14325254  0.14418020  1
  O  O111  1  0.82020524  0.11943394  0.13700097  1
  O  O112  1  0.24059602  0.36018542  0.13809886  1
  O  O113  1  0.75774974  0.37888387  0.14094746  1
  O  O114  1  0.23246082  0.31225930  0.03021512  1
  O  O115  1  0.73481665  0.30605601  0.02628258  1
  O  O116  1  0.42369861  0.53467584  0.02972401  1
  O  O117  1  0.91587291  0.54006981  0.03035282  1
  O  O118  1  0.34391407  0.16764134  0.02798984  1
  O  O119  1  0.84527993  0.15151655  0.02929305  1
  O  O120  1  0.23387670  0.16336421  0.52667362  1
  O  O121  1  0.73272901  0.15468170  0.53157571  1
  O  O122  1  0.34513753  0.53900632  0.53004119  1
  O  O123  1  0.84546618  0.52337455  0.52886305  1
  O  O124  1  0.41601573  0.29190695  0.53149943  1
  O  O125  1  0.92437363  0.31268391  0.53134880  1
  O  O126  1  0.26529593  0.70021608  0.97587285  1
  O  O127  1  0.77834461  0.71307568  0.97775594  1
  O  O128  1  0.08552461  0.48251463  0.97241283  1
  O  O129  1  0.57874839  0.46219771  0.97498969  1
  O  O130  1  0.15567408  0.84949459  0.97008167  1
  O  O131  1  0.65138397  0.84593268  0.97129174  1
  O  O132  1  0.27677754  0.84233649  0.47814369  1
  O  O133  1  0.76577740  0.83029476  0.47634786  1
  O  O134  1  0.15124585  0.45621400  0.47120207  1
  O  O135  1  0.65171108  0.46627417  0.47259746  1
  O  O136  1  0.07937341  0.69924164  0.47482600  1
  O  O137  1  0.58437165  0.69126298  0.47388618  1
  O  O138  1  0.06424760  0.63140722  0.35163525  1
  O  O139  1  0.55527847  0.62183448  0.35442349  1
  O  O140  1  0.24384143  0.85619770  0.35782440  1
  O  O141  1  0.75545576  0.88712645  0.35644129  1
  O  O142  1  0.18017083  0.48009810  0.36312328  1
  O  O143  1  0.68489844  0.50901399  0.35346873  1
  O  O144  1  0.05818789  0.49444773  0.85423953  1
  O  O145  1  0.56339659  0.49636984  0.85205107  1
  O  O146  1  0.18248646  0.87652031  0.86214983  1
  O  O147  1  0.68014062  0.87954620  0.86324139  1
  O  O148  1  0.25454374  0.63440689  0.85684730  1
  O  O149  1  0.74573231  0.63578404  0.85801390  1
  O  O150  1  0.01509946  0.84277295  0.40379780  1
  O  O151  1  0.51280967  0.83568218  0.41392286  1
  O  O152  1  0.40601805  0.97849072  0.40439587  1
  O  O153  1  0.90656860  0.97618448  0.41106444  1
  O  O154  1  0.08908570  0.19838916  0.41136471  1
  O  O155  1  0.57848175  0.18978017  0.40702223  1
  O  O156  1  0.01651269  0.19035773  0.91233602  1
  O  O157  1  0.51389962  0.18571018  0.90499928  1
  O  O158  1  0.08799216  0.97006856  0.91117377  1
  O  O159  1  0.58933990  0.97994715  0.91130522  1
  O  O160  1  0.40713277  0.83388524  0.91123650  1
  O  O161  1  0.90983573  0.83301263  0.90468726  1
  O  O162  1  0.48462832  0.14472746  0.59479318  1
  O  O163  1  0.98575967  0.17327379  0.58689052  1
  O  O164  1  0.09301587  0.02472365  0.59301973  1
  O  O165  1  0.60174000  0.03339606  0.58712291  1
  O  O166  1  0.40958882  0.80269526  0.58705852  1
  O  O167  1  0.91970962  0.80952981  0.59248471  1
  O  O168  1  0.48404457  0.79575927  0.08548478  1
  O  O169  1  0.98525705  0.82645222  0.09398025  1
  O  O170  1  0.41938821  0.02775184  0.09067671  1
  O  O171  1  0.90930971  0.01626575  0.08649276  1
  O  O172  1  0.10141783  0.17221793  0.08652543  1
  O  O173  1  0.59259103  0.15998715  0.09190720  1
  O  O174  1  0.34880759  0.15683011  0.75045526  1
  O  O175  1  0.84861292  0.18820272  0.73957573  1
  O  O176  1  0.24364678  0.30752638  0.74329506  1
  O  O177  1  0.73173060  0.29757649  0.74611311  1
  O  O178  1  0.41379822  0.51467167  0.74407413  1
  O  O179  1  0.92492148  0.53361268  0.74595180  1
  O  O180  1  0.34931020  0.51144594  0.23958468  1
  O  O181  1  0.85050912  0.54184704  0.24859244  1
  O  O182  1  0.42138176  0.31267710  0.24361466  1
  O  O183  1  0.91385614  0.31304469  0.24383766  1
  O  O184  1  0.23213956  0.16615223  0.24552045  1
  O  O185  1  0.74324625  0.17678269  0.24262443  1
  O  O186  1  0.31958018  0.49281640  0.92854729  1
  O  O187  1  0.81887492  0.49393291  0.92195972  1
  O  O188  1  0.42894937  0.35554511  0.92297618  1
  O  O189  1  0.92275115  0.34572445  0.92604541  1
  O  O190  1  0.24462139  0.13278718  0.92314266  1
  O  O191  1  0.74567863  0.13165319  0.92392276  1
  O  O192  1  0.31781104  0.14151607  0.42233911  1
  O  O193  1  0.82415471  0.14973143  0.43030017  1
  O  O194  1  0.24564047  0.35932743  0.42412611  1
  O  O195  1  0.74916512  0.35726625  0.42217377  1
  O  O196  1  0.42199133  0.49513193  0.42734118  1
  O  O197  1  0.92986917  0.50350282  0.42190530  1
  O  O198  1  0.17932672  0.48982438  0.07896034  1
  O  O199  1  0.68201326  0.51319375  0.08002122  1
  O  O200  1  0.07399495  0.65175552  0.07499742  1
  O  O201  1  0.56819427  0.64701765  0.07598158  1
  O  O202  1  0.24750061  0.85665455  0.07745741  1
  O  O203  1  0.75193366  0.86407555  0.07691742  1
  O  O204  1  0.18225189  0.85092143  0.58046056  1
  O  O205  1  0.67842014  0.86825643  0.57917910  1
  O  O206  1  0.25231755  0.64061456  0.57754947  1
  O  O207  1  0.74836127  0.64321241  0.58076698  1
  O  O208  1  0.06912459  0.48997906  0.57760590  1
  O  O209  1  0.57405694  0.50130419  0.57986111  1
  O  O210  1  0.15382374  0.84597351  0.25243334  1
  O  O211  1  0.65026408  0.81321070  0.25435643  1
  O  O212  1  0.25549363  0.68382814  0.25546917  1
  O  O213  1  0.76718904  0.69654914  0.25419876  1
  O  O214  1  0.08600875  0.48790532  0.25330162  1
  O  O215  1  0.57835941  0.46451088  0.25090194  1
  O  O216  1  0.14904495  0.47983887  0.75182042  1
  O  O217  1  0.65343789  0.46129822  0.75354703  1
  O  O218  1  0.08226280  0.69850200  0.75467799  1
  O  O219  1  0.58611163  0.68456617  0.75350553  1
  O  O220  1  0.26334634  0.83758845  0.75885934  1
  O  O221  1  0.75492174  0.82661680  0.75578512  1
