# generated using pymatgen
data_Na6Sc4Ti4Si5S7O48
_symmetry_space_group_name_H-M   'P 1'
_cell_length_a   17.73162819
_cell_length_b   8.83800258
_cell_length_c   22.75979719
_cell_angle_alpha   90.05042351
_cell_angle_beta   89.92716422
_cell_angle_gamma   119.94299766
_symmetry_Int_Tables_number   1
_chemical_formula_structural   Na6Sc4Ti4Si5S7O48
_chemical_formula_sum   'Na18 Sc12 Ti12 Si15 S21 O144'
_cell_volume   3090.65522695
_cell_formula_units_Z   3
loop_
 _symmetry_equiv_pos_site_id
 _symmetry_equiv_pos_as_xyz
  1  'x, y, z'
loop_
 _atom_site_type_symbol
 _atom_site_label
 _atom_site_symmetry_multiplicity
 _atom_site_fract_x
 _atom_site_fract_y
 _atom_site_fract_z
 _atom_site_occupancy
  Na  Na0  1  0.00001073  0.63236129  0.25410291  1
  Na  Na1  1  0.49895382  0.63043187  0.25028105  1
  Na  Na2  1  0.99951045  0.37188177  0.74901094  1
  Na  Na3  1  0.50043652  0.36287174  0.75296451  1
  Na  Na4  1  0.66463697  0.30353228  0.91713757  1
  Na  Na5  1  0.16598357  0.02221743  0.42517242  1
  Na  Na6  1  0.99946675  0.99805223  0.50625758  1
  Na  Na7  1  0.50075202  0.99301869  0.50108449  1
  Na  Na8  1  0.00216372  0.00617334  0.99505544  1
  Na  Na9  1  0.49988895  0.00242168  0.00171822  1
  Na  Na10  1  0.33116588  0.32837627  0.83681561  1
  Na  Na11  1  0.83049432  0.32955681  0.82430298  1
  Na  Na12  1  0.33877442  0.34329166  0.32916408  1
  Na  Na13  1  0.82857657  0.33129354  0.34004658  1
  Na  Na14  1  0.18038503  0.66419036  0.16497820  1
  Na  Na15  1  0.67143387  0.66293744  0.16297288  1
  Na  Na16  1  0.17300884  0.68228724  0.66493084  1
  Na  Na17  1  0.67853958  0.68484585  0.67078769  1
  Sc  Sc18  1  0.99588881  0.98801037  0.35803153  1
  Sc  Sc19  1  0.50191380  0.01149441  0.85484652  1
  Sc  Sc20  1  0.32299741  0.33163170  0.67968065  1
  Sc  Sc21  1  0.82539457  0.31406471  0.69092450  1
  Sc  Sc22  1  0.33138924  0.34589227  0.18724547  1
  Sc  Sc23  1  0.82173464  0.31600151  0.17954785  1
  Sc  Sc24  1  0.83058363  0.31846462  0.98633802  1
  Sc  Sc25  1  0.33233906  0.34717481  0.48844954  1
  Sc  Sc26  1  0.16937360  0.66512322  0.31451089  1
  Sc  Sc27  1  0.66784223  0.64937069  0.31451549  1
  Sc  Sc28  1  0.16961193  0.68847646  0.81392725  1
  Sc  Sc29  1  0.66683124  0.66052039  0.81006428  1
  Ti  Ti30  1  0.49843094  0.01183383  0.35084954  1
  Ti  Ti31  1  0.99829625  0.98470004  0.85027025  1
  Ti  Ti32  1  0.99911447  0.98343869  0.64940133  1
  Ti  Ti33  1  0.51010992  0.00113707  0.64138061  1
  Ti  Ti34  1  0.00256469  0.01754329  0.13795157  1
  Ti  Ti35  1  0.49802130  0.01441948  0.14847803  1
  Ti  Ti36  1  0.32499710  0.31723315  0.97725940  1
  Ti  Ti37  1  0.82540930  0.33398340  0.47829824  1
  Ti  Ti38  1  0.16503183  0.66589967  0.01665526  1
  Ti  Ti39  1  0.66334713  0.64872683  0.02437096  1
  Ti  Ti40  1  0.16283218  0.67695526  0.52688150  1
  Ti  Ti41  1  0.66322335  0.65854393  0.51947001  1
  Si  Si42  1  0.35628454  0.71975698  0.25040934  1
  Si  Si43  1  0.49945495  0.29308952  0.24943304  1
  Si  Si44  1  0.64311561  0.28606413  0.74957616  1
  Si  Si45  1  0.00154728  0.70755685  0.74921598  1
  Si  Si46  1  0.85738103  0.99483994  0.75044871  1
  Si  Si47  1  0.18168108  0.04287199  0.58196692  1
  Si  Si48  1  0.69157107  0.04010797  0.58154093  1
  Si  Si49  1  0.33288562  0.63726353  0.58366464  1
  Si  Si50  1  0.82889421  0.03120677  0.08265871  1
  Si  Si51  1  0.19134020  0.34330118  0.08199096  1
  Si  Si52  1  0.68142706  0.32224298  0.08189537  1
  Si  Si53  1  0.51854299  0.38025568  0.91749239  1
  Si  Si54  1  0.16124312  0.95603874  0.91809909  1
  Si  Si55  1  0.66186236  0.36710677  0.41792841  1
  Si  Si56  1  0.01993844  0.65499456  0.41672726  1
  S  S57  1  0.14284496  0.00087544  0.24937735  1
  S  S58  1  0.64368618  0.00373822  0.25136821  1
  S  S59  1  0.85751765  0.71423291  0.24747587  1
  S  S60  1  0.99873505  0.28689961  0.24862061  1
  S  S61  1  0.14368298  0.28359188  0.75152809  1
  S  S62  1  0.49736373  0.70964857  0.74911341  1
  S  S63  1  0.35624988  0.00046077  0.74786502  1
  S  S64  1  0.48250635  0.33422361  0.58386118  1
  S  S65  1  0.97790777  0.33155847  0.58184643  1
  S  S66  1  0.83187318  0.62447388  0.58139033  1
  S  S67  1  0.47892600  0.62624175  0.08197832  1
  S  S68  1  0.98322503  0.63156064  0.08514182  1
  S  S69  1  0.33143620  0.03942145  0.08201818  1
  S  S70  1  0.31005082  0.66219282  0.91826001  1
  S  S71  1  0.81373453  0.67052100  0.91829799  1
  S  S72  1  0.02157420  0.37684836  0.91638812  1
  S  S73  1  0.66711844  0.95360893  0.91782873  1
  S  S74  1  0.31420205  0.95794681  0.41787138  1
  S  S75  1  0.80927790  0.95716981  0.41813922  1
  S  S76  1  0.16775830  0.37683313  0.41726240  1
  S  S77  1  0.52134214  0.66675625  0.41633722  1
  O  O78  1  0.10345021  0.02239405  0.30460875  1
  O  O79  1  0.60201396  0.02560535  0.30493279  1
  O  O80  1  0.42093843  0.81696734  0.30792489  1
  O  O81  1  0.90979004  0.79586069  0.30186747  1
  O  O82  1  0.49173781  0.17120400  0.30704895  1
  O  O83  1  0.98899723  0.18393204  0.30196378  1
  O  O84  1  0.10198690  0.17819053  0.80506618  1
  O  O85  1  0.60029191  0.17803277  0.81055300  1
  O  O86  1  0.48419470  0.78660722  0.80251750  1
  O  O87  1  0.99310423  0.81327981  0.80705533  1
  O  O88  1  0.40704793  0.02182158  0.80232146  1
  O  O89  1  0.92208761  0.02342201  0.80817673  1
  O  O90  1  0.39768475  0.98023882  0.69501986  1
  O  O91  1  0.91112294  0.98033074  0.69274751  1
  O  O92  1  0.09113220  0.20447785  0.69770597  1
  O  O93  1  0.57609861  0.17556450  0.69445478  1
  O  O94  1  0.01632626  0.83518883  0.69213235  1
  O  O95  1  0.50552629  0.81376553  0.69579650  1
  O  O96  1  0.40995103  0.83856178  0.19265383  1
  O  O97  1  0.90249055  0.81928489  0.19554729  1
  O  O98  1  0.00766213  0.19750894  0.19573671  1
  O  O99  1  0.51432527  0.19591840  0.19224206  1
  O  O100  1  0.08575935  0.97587299  0.19838071  1
  O  O101  1  0.59110598  0.97776475  0.19766727  1
  O  O102  1  0.44522144  0.36318821  0.63802062  1
  O  O103  1  0.94546673  0.36754649  0.63681205  1
  O  O104  1  0.24376314  0.12187852  0.63869553  1
  O  O105  1  0.74821415  0.11382143  0.63955899  1
  O  O106  1  0.31374222  0.51335864  0.64061750  1
  O  O107  1  0.81801650  0.52220299  0.63442918  1
  O  O108  1  0.44487780  0.52369579  0.13743591  1
  O  O109  1  0.94506311  0.52774340  0.13935219  1
  O  O110  1  0.31793992  0.11502291  0.13532068  1
  O  O111  1  0.81512243  0.11617886  0.14162119  1
  O  O112  1  0.24583104  0.37430710  0.14116539  1
  O  O113  1  0.74312722  0.36754461  0.13927692  1
  O  O114  1  0.23782219  0.30786364  0.02602963  1
  O  O115  1  0.72429218  0.29858497  0.02192103  1
  O  O116  1  0.42290005  0.53626785  0.03143440  1
  O  O117  1  0.92852217  0.55262164  0.03312938  1
  O  O118  1  0.34516133  0.14851814  0.02922057  1
  O  O119  1  0.85638812  0.15827637  0.02629112  1
  O  O120  1  0.22342229  0.14835211  0.52086759  1
  O  O121  1  0.73944218  0.16925822  0.52501263  1
  O  O122  1  0.35604682  0.55748977  0.52639634  1
  O  O123  1  0.84531488  0.54267015  0.52820119  1
  O  O124  1  0.42876827  0.31002722  0.53163790  1
  O  O125  1  0.92309449  0.31129172  0.53058724  1
  O  O126  1  0.26459828  0.68437643  0.97035511  1
  O  O127  1  0.77311890  0.69456041  0.97153167  1
  O  O128  1  0.07743408  0.46795945  0.96933079  1
  O  O129  1  0.58819687  0.48713143  0.97149751  1
  O  O130  1  0.15306405  0.82854397  0.97441205  1
  O  O131  1  0.66033579  0.85387543  0.97061115  1
  O  O132  1  0.27319662  0.85217482  0.47060934  1
  O  O133  1  0.76668577  0.84528398  0.46979730  1
  O  O134  1  0.15734951  0.45885605  0.46933209  1
  O  O135  1  0.65245664  0.47547112  0.47398994  1
  O  O136  1  0.08987413  0.69343108  0.47005639  1
  O  O137  1  0.57643253  0.68628671  0.46878954  1
  O  O138  1  0.05913062  0.63264748  0.35408989  1
  O  O139  1  0.56264476  0.64861195  0.36175054  1
  O  O140  1  0.25887121  0.87695561  0.36479575  1
  O  O141  1  0.75930750  0.88336590  0.36386635  1
  O  O142  1  0.17936783  0.47864982  0.36293124  1
  O  O143  1  0.68404538  0.48907245  0.36030994  1
  O  O144  1  0.06337955  0.47751892  0.86233010  1
  O  O145  1  0.55696505  0.48558862  0.85639359  1
  O  O146  1  0.18339445  0.87746992  0.86114216  1
  O  O147  1  0.67841051  0.87580129  0.86371946  1
  O  O148  1  0.25859210  0.63323057  0.86452467  1
  O  O149  1  0.75903953  0.63998257  0.86553171  1
  O  O150  1  0.01472306  0.83868316  0.41288281  1
  O  O151  1  0.51342141  0.82508768  0.41334264  1
  O  O152  1  0.40097420  0.97216717  0.41101849  1
  O  O153  1  0.89787364  0.97562801  0.41347241  1
  O  O154  1  0.08851725  0.19768995  0.41117784  1
  O  O155  1  0.57675998  0.17253849  0.41088717  1
  O  O156  1  0.01388271  0.20284440  0.91417960  1
  O  O157  1  0.51275199  0.18790947  0.91706530  1
  O  O158  1  0.07651669  0.98036068  0.91248124  1
  O  O159  1  0.58728709  0.97190092  0.91488254  1
  O  O160  1  0.39667101  0.81919185  0.91510882  1
  O  O161  1  0.90093583  0.83041971  0.91207712  1
  O  O162  1  0.49284607  0.17855095  0.58853128  1
  O  O163  1  0.98815568  0.17543587  0.58661368  1
  O  O164  1  0.08523128  0.02237311  0.59080051  1
  O  O165  1  0.59309759  0.01895441  0.58864034  1
  O  O166  1  0.41727766  0.83224849  0.59599025  1
  O  O167  1  0.91053162  0.80257776  0.58585818  1
  O  O168  1  0.48844938  0.80177519  0.08787915  1
  O  O169  1  0.99436456  0.81006678  0.09244604  1
  O  O170  1  0.41026301  0.01912489  0.08698285  1
  O  O171  1  0.91673224  0.00727505  0.09521619  1
  O  O172  1  0.09176270  0.16574660  0.09156921  1
  O  O173  1  0.58511708  0.14898930  0.09183521  1
  O  O174  1  0.34969671  0.16291915  0.74474798  1
  O  O175  1  0.85804782  0.17822033  0.74764963  1
  O  O176  1  0.23111605  0.30136169  0.74791179  1
  O  O177  1  0.73865066  0.31081740  0.74517437  1
  O  O178  1  0.42214681  0.52741651  0.74362504  1
  O  O179  1  0.91701824  0.51964506  0.74507770  1
  O  O180  1  0.35306856  0.53191292  0.24721330  1
  O  O181  1  0.85097524  0.53913250  0.24466946  1
  O  O182  1  0.41308913  0.30851685  0.24563972  1
  O  O183  1  0.92269436  0.31408994  0.24407284  1
  O  O184  1  0.23006401  0.15194652  0.24414339  1
  O  O185  1  0.73143927  0.16163156  0.24786840  1
  O  O186  1  0.31973006  0.50569441  0.92626547  1
  O  O187  1  0.82405809  0.51368769  0.92355778  1
  O  O188  1  0.42281428  0.35920737  0.93213091  1
  O  O189  1  0.93621911  0.36597834  0.92269762  1
  O  O190  1  0.24965237  0.14879983  0.92805063  1
  O  O191  1  0.74402801  0.13740254  0.92076424  1
  O  O192  1  0.32379128  0.13473927  0.42209458  1
  O  O193  1  0.82122923  0.13456106  0.42534201  1
  O  O194  1  0.24451665  0.34916434  0.41975182  1
  O  O195  1  0.74995200  0.35046475  0.42788900  1
  O  O196  1  0.43506192  0.50637316  0.42154684  1
  O  O197  1  0.92381617  0.48795497  0.42958973  1
  O  O198  1  0.17355017  0.50602086  0.06858889  1
  O  O199  1  0.66988282  0.49679018  0.07482038  1
  O  O200  1  0.07115897  0.65014797  0.07752410  1
  O  O201  1  0.56798369  0.64826857  0.07449478  1
  O  O202  1  0.25381773  0.86038005  0.07375656  1
  O  O203  1  0.74468661  0.84020398  0.07170022  1
  O  O204  1  0.16969421  0.84377151  0.57545501  1
  O  O205  1  0.67408927  0.84177775  0.56577099  1
  O  O206  1  0.24516313  0.65096673  0.56993875  1
  O  O207  1  0.75401668  0.64777482  0.57265495  1
  O  O208  1  0.06813082  0.48773248  0.57332713  1
  O  O209  1  0.57104143  0.49410632  0.57650820  1
  O  O210  1  0.14796959  0.83708257  0.25315078  1
  O  O211  1  0.65144016  0.84461990  0.25687098  1
  O  O212  1  0.26066190  0.70078211  0.25455966  1
  O  O213  1  0.77115099  0.69913370  0.25222809  1
  O  O214  1  0.07855518  0.46322672  0.25077029  1
  O  O215  1  0.58439148  0.48891001  0.25339263  1
  O  O216  1  0.15097731  0.45792208  0.75710582  1
  O  O217  1  0.64368765  0.47203031  0.74991747  1
  O  O218  1  0.08735662  0.68502116  0.75320986  1
  O  O219  1  0.57792694  0.69700624  0.75163565  1
  O  O220  1  0.26870670  0.84269435  0.75278096  1
  O  O221  1  0.76235202  0.82555028  0.75475313  1
