# generated using pymatgen
data_Na7Ti2In2Si3(PO8)3
_symmetry_space_group_name_H-M   'P 1'
_cell_length_a   9.07271239
_cell_length_b   9.07499270
_cell_length_c   22.17494195
_cell_angle_alpha   89.97212997
_cell_angle_beta   89.99668589
_cell_angle_gamma   120.00597054
_symmetry_Int_Tables_number   1
_chemical_formula_structural   Na7Ti2In2Si3(PO8)3
_chemical_formula_sum   'Na21 Ti6 In6 Si9 P9 O72'
_cell_volume   1581.06724688
_cell_formula_units_Z   3
loop_
 _symmetry_equiv_pos_site_id
 _symmetry_equiv_pos_as_xyz
  1  'x, y, z'
loop_
 _atom_site_type_symbol
 _atom_site_label
 _atom_site_symmetry_multiplicity
 _atom_site_fract_x
 _atom_site_fract_y
 _atom_site_fract_z
 _atom_site_occupancy
  Na  Na0  1  0.62755911  0.00164627  0.25262088  1
  Na  Na1  1  0.37142199  0.37370434  0.24876969  1
  Na  Na2  1  0.00083034  0.62097097  0.25033745  1
  Na  Na3  1  0.63122429  0.63199558  0.74937166  1
  Na  Na4  1  0.98992686  0.36366096  0.74815694  1
  Na  Na5  1  0.37540110  0.00183236  0.74543540  1
  Na  Na6  1  0.02988320  0.69432950  0.58443592  1
  Na  Na7  1  0.65850852  0.96638186  0.58258334  1
  Na  Na8  1  0.67008983  0.69204879  0.08334250  1
  Na  Na9  1  0.02723191  0.33764425  0.08595885  1
  Na  Na10  1  0.95839972  0.66349322  0.92076727  1
  Na  Na11  1  0.70267600  0.03388342  0.91594669  1
  Na  Na12  1  0.34246308  0.30408786  0.91902617  1
  Na  Na13  1  0.97101815  0.30913510  0.41612059  1
  Na  Na14  1  0.33620606  0.03337595  0.41690232  1
  Na  Na15  1  0.00217840  0.99865962  0.49996270  1
  Na  Na16  1  0.01003655  0.99431044  0.00287435  1
  Na  Na17  1  0.66688597  0.33347441  0.83308362  1
  Na  Na18  1  0.67272165  0.34660193  0.33751246  1
  Na  Na19  1  0.32566643  0.67130713  0.16499341  1
  Na  Na20  1  0.33393394  0.65711710  0.66198592  1
  Ti  Ti21  1  0.98703606  0.99532430  0.35652917  1
  Ti  Ti22  1  0.00077924  0.00821798  0.64446620  1
  Ti  Ti23  1  0.01181237  0.00728551  0.14635432  1
  Ti  Ti24  1  0.66800271  0.32881077  0.48406515  1
  Ti  Ti25  1  0.33605860  0.66716974  0.01996628  1
  Ti  Ti26  1  0.32955079  0.67131357  0.51531789  1
  In  In27  1  0.99546824  0.99798023  0.85243430  1
  In  In28  1  0.66819929  0.33142569  0.67699190  1
  In  In29  1  0.67167218  0.33630302  0.18192206  1
  In  In30  1  0.66411172  0.33704283  0.98891529  1
  In  In31  1  0.32812064  0.66193415  0.31933510  1
  In  In32  1  0.33744256  0.66855708  0.81369439  1
  Si  Si33  1  0.99930150  0.28665527  0.25093910  1
  Si  Si34  1  0.70685682  0.00307887  0.74874959  1
  Si  Si35  1  0.97072053  0.33721601  0.58263220  1
  Si  Si36  1  0.36618071  0.03436231  0.58231825  1
  Si  Si37  1  0.97577533  0.64170959  0.08420843  1
  Si  Si38  1  0.36407418  0.33317638  0.08357962  1
  Si  Si39  1  0.62717938  0.66307574  0.91660383  1
  Si  Si40  1  0.62716744  0.96266718  0.41652705  1
  Si  Si41  1  0.02949090  0.66467416  0.41623055  1
  P  P42  1  0.28367827  0.00158072  0.25159458  1
  P  P43  1  0.71673527  0.71823406  0.25001569  1
  P  P44  1  0.28896045  0.28780575  0.74885037  1
  P  P45  1  0.99781647  0.70735137  0.74832485  1
  P  P46  1  0.66218628  0.62664823  0.58327909  1
  P  P47  1  0.66551930  0.02846104  0.08431206  1
  P  P48  1  0.04262070  0.37641863  0.91770596  1
  P  P49  1  0.33622797  0.95868932  0.91685405  1
  P  P50  1  0.33821010  0.37286985  0.41667425  1
  O  O51  1  0.19730458  0.01726487  0.30905086  1
  O  O52  1  0.82827292  0.81217354  0.30632573  1
  O  O53  1  0.98439220  0.16870140  0.31041771  1
  O  O54  1  0.22186728  0.18917311  0.80885218  1
  O  O55  1  0.97704988  0.78181395  0.80852932  1
  O  O56  1  0.81417826  0.03710789  0.81119244  1
  O  O57  1  0.81651045  0.98409196  0.69148393  1
  O  O58  1  0.17041793  0.18211653  0.69554905  1
  O  O59  1  0.01912060  0.82252065  0.69348070  1
  O  O60  1  0.80279684  0.81946312  0.19296811  1
  O  O61  1  0.01319036  0.18446375  0.19223659  1
  O  O62  1  0.17322391  0.98483351  0.19579292  1
  O  O63  1  0.90871558  0.39088342  0.64331849  1
  O  O64  1  0.48054629  0.09811258  0.64306307  1
  O  O65  1  0.63297819  0.53380845  0.64408293  1
  O  O66  1  0.90478684  0.51400847  0.14280980  1
  O  O67  1  0.63195629  0.10401856  0.14126886  1
  O  O68  1  0.48891428  0.38363330  0.14234071  1
  O  O69  1  0.43274172  0.29080970  0.02286577  1
  O  O70  1  0.85141050  0.56762061  0.02556838  1
  O  O71  1  0.70656119  0.14495860  0.02854738  1
  O  O72  1  0.46933612  0.16093257  0.52572802  1
  O  O73  1  0.69180209  0.52568820  0.53325118  1
  O  O74  1  0.83233896  0.30045069  0.52789975  1
  O  O75  1  0.51818471  0.68089886  0.97347244  1
  O  O76  1  0.15569336  0.47614645  0.97224404  1
  O  O77  1  0.31511447  0.83717911  0.96914528  1
  O  O78  1  0.52863568  0.83828405  0.47355411  1
  O  O79  1  0.30734194  0.47270529  0.46657519  1
  O  O80  1  0.16699280  0.69797879  0.47115855  1
  O  O81  1  0.09196824  0.60964097  0.35530164  1
  O  O82  1  0.51365811  0.89560054  0.35514546  1
  O  O83  1  0.37038482  0.46655411  0.35544536  1
  O  O84  1  0.11131300  0.47778052  0.85848227  1
  O  O85  1  0.35779593  0.88907025  0.85588539  1
  O  O86  1  0.51963341  0.62977846  0.85431152  1
  O  O87  1  0.02882004  0.84513741  0.41062051  1
  O  O88  1  0.82144178  0.98835468  0.41177442  1
  O  O89  1  0.17152768  0.19306518  0.41384755  1
  O  O90  1  0.04044717  0.20424727  0.91802480  1
  O  O91  1  0.17418805  0.97637574  0.91746483  1
  O  O92  1  0.81302654  0.83948742  0.91989879  1
  O  O93  1  0.97370616  0.15665121  0.58899521  1
  O  O94  1  0.17271532  0.00604290  0.58863360  1
  O  O95  1  0.83020390  0.80608923  0.58629299  1
  O  O96  1  0.98511687  0.82488838  0.09477895  1
  O  O97  1  0.82446023  0.00688671  0.09085704  1
  O  O98  1  0.16904381  0.17154118  0.09209345  1
  O  O99  1  0.68545716  0.17117372  0.74546094  1
  O  O100  1  0.47004744  0.31718223  0.74249606  1
  O  O101  1  0.83537978  0.53079111  0.74477902  1
  O  O102  1  0.70058244  0.53908891  0.25068187  1
  O  O103  1  0.82431673  0.29834147  0.25094028  1
  O  O104  1  0.46185326  0.16493320  0.24774837  1
  O  O105  1  0.65036229  0.49573418  0.91944004  1
  O  O106  1  0.85985271  0.34559509  0.92384294  1
  O  O107  1  0.49896764  0.13436214  0.92272818  1
  O  O108  1  0.65176011  0.15498137  0.42592389  1
  O  O109  1  0.48946213  0.34342087  0.42692677  1
  O  O110  1  0.84389670  0.49812753  0.43043945  1
  O  O111  1  0.34201320  0.50344832  0.07510420  1
  O  O112  1  0.16261394  0.65950626  0.07274840  1
  O  O113  1  0.51022453  0.84776243  0.07589168  1
  O  O114  1  0.34586118  0.84313411  0.57237306  1
  O  O115  1  0.51173997  0.65743366  0.57318174  1
  O  O116  1  0.15687673  0.50214701  0.56906445  1
  O  O117  1  0.30087040  0.83945554  0.25063186  1
  O  O118  1  0.53869781  0.70267739  0.25314203  1
  O  O119  1  0.17390463  0.47345515  0.25020845  1
  O  O120  1  0.28944230  0.45887841  0.74789522  1
  O  O121  1  0.15965972  0.68923505  0.74897503  1
  O  O122  1  0.52174383  0.82636732  0.74583611  1
