# generated using pymatgen
data_Na4LaSi2SnPO12
_symmetry_space_group_name_H-M   'P 1'
_cell_length_a   9.52699859
_cell_length_b   9.52699823
_cell_length_c   22.61520373
_cell_angle_alpha   90.68950425
_cell_angle_beta   89.31049576
_cell_angle_gamma   120.06399762
_symmetry_Int_Tables_number   1
_chemical_formula_structural   Na4LaSi2SnPO12
_chemical_formula_sum   'Na24 La6 Si12 Sn6 P6 O72'
_cell_volume   1776.31910406
_cell_formula_units_Z   6
loop_
 _symmetry_equiv_pos_site_id
 _symmetry_equiv_pos_as_xyz
  1  'x, y, z'
loop_
 _atom_site_type_symbol
 _atom_site_label
 _atom_site_symmetry_multiplicity
 _atom_site_fract_x
 _atom_site_fract_y
 _atom_site_fract_z
 _atom_site_occupancy
  Na  Na0  1  0.64272690  0.00543928  0.25111872  1
  Na  Na1  1  0.36549163  0.36954610  0.24437844  1
  Na  Na2  1  0.99300581  0.62663757  0.24982135  1
  Na  Na3  1  0.63045390  0.63450837  0.74437844  1
  Na  Na4  1  0.99456072  0.35727310  0.75111872  1
  Na  Na5  1  0.37336243  0.00699419  0.74982135  1
  Na  Na6  1  0.30939390  0.33877228  0.58445172  1
  Na  Na7  1  0.03215863  0.70287910  0.57771144  1
  Na  Na8  1  0.65967281  0.95997057  0.58315435  1
  Na  Na9  1  0.29712090  0.96784137  0.07771144  1
  Na  Na10  1  0.66122772  0.69060610  0.08445172  1
  Na  Na11  1  0.04002943  0.34032719  0.08315435  1
  Na  Na12  1  0.97605990  0.67210628  0.91778572  1
  Na  Na13  1  0.69882463  0.03621310  0.91104544  1
  Na  Na14  1  0.32633881  0.29330457  0.91648835  1
  Na  Na15  1  0.96378690  0.30117537  0.41104544  1
  Na  Na16  1  0.32789372  0.02394010  0.41778572  1
  Na  Na17  1  0.70669543  0.67366119  0.41648835  1
  Na  Na18  1  0.99223879  0.98881482  0.50040670  1
  Na  Na19  1  0.01118518  0.00776121  0.00040670  1
  Na  Na20  1  0.65890579  0.32214782  0.83373970  1
  Na  Na21  1  0.67785218  0.34109421  0.33373970  1
  Na  Na22  1  0.32557179  0.65548182  0.16707370  1
  Na  Na23  1  0.34451818  0.67442821  0.66707370  1
  La  La24  1  0.99555643  0.99730460  0.34581235  1
  La  La25  1  0.00269540  0.00444357  0.84581235  1
  La  La26  1  0.66222343  0.33063760  0.67914535  1
  La  La27  1  0.66936240  0.33777657  0.17914535  1
  La  La28  1  0.32888943  0.66397160  0.01247935  1
  La  La29  1  0.33602840  0.67111057  0.51247935  1
  Si  Si30  1  0.68650822  0.70195286  0.25085161  1
  Si  Si31  1  0.01334589  0.31104560  0.25144612  1
  Si  Si32  1  0.29804714  0.31349178  0.75085161  1
  Si  Si33  1  0.68895440  0.98665411  0.75144612  1
  Si  Si34  1  0.35317522  0.03528586  0.58418461  1
  Si  Si35  1  0.68001289  0.64437860  0.58477912  1
  Si  Si36  1  0.96471414  0.64682478  0.08418461  1
  Si  Si37  1  0.35562140  0.31998711  0.08477912  1
  Si  Si38  1  0.01984122  0.36861986  0.91751861  1
  Si  Si39  1  0.34667889  0.97771260  0.91811312  1
  Si  Si40  1  0.63138014  0.98015878  0.41751861  1
  Si  Si41  1  0.02228740  0.65332111  0.41811312  1
  Sn  Sn42  1  0.99911929  0.00161884  0.64978284  1
  Sn  Sn43  1  0.99838116  0.00088071  0.14978284  1
  Sn  Sn44  1  0.66578629  0.33495184  0.98311584  1
  Sn  Sn45  1  0.66504816  0.33421371  0.48311584  1
  Sn  Sn46  1  0.33245229  0.66828584  0.31644984  1
  Sn  Sn47  1  0.33171416  0.66754771  0.81644984  1
  P  P48  1  0.29535031  0.98242436  0.24911418  1
  P  P49  1  0.01757564  0.70464969  0.74911418  1
  P  P50  1  0.96201731  0.31575736  0.58244718  1
  P  P51  1  0.68424264  0.03798269  0.08244718  1
  P  P52  1  0.62868331  0.64909136  0.91578118  1
  P  P53  1  0.35090864  0.37131669  0.41578118  1
  O  O54  1  0.23124247  0.01318772  0.30712981  1
  O  O55  1  0.78878262  0.76768914  0.31099709  1
  O  O56  1  0.98704137  0.21372149  0.31187403  1
  O  O57  1  0.23231086  0.21121738  0.81099709  1
  O  O58  1  0.98681228  0.76875753  0.80712981  1
  O  O59  1  0.78627851  0.01295863  0.81187403  1
  O  O60  1  0.78826884  0.96121807  0.69335174  1
  O  O61  1  0.17254148  0.21303112  0.69368333  1
  O  O62  1  0.03506330  0.81773491  0.69542356  1
  O  O63  1  0.78696888  0.82745852  0.19368333  1
  O  O64  1  0.03878193  0.21173116  0.19335174  1
  O  O65  1  0.18226509  0.96493670  0.19542356  1
  O  O66  1  0.89790947  0.34652072  0.64046281  1
  O  O67  1  0.45544962  0.10102214  0.64433009  1
  O  O68  1  0.65370837  0.54705449  0.64520703  1
  O  O69  1  0.89897786  0.54455038  0.14433009  1
  O  O70  1  0.65347928  0.10209053  0.14046281  1
  O  O71  1  0.45294551  0.34629163  0.14520703  1
  O  O72  1  0.45493584  0.29455107  0.02668474  1
  O  O73  1  0.83920848  0.54636412  0.02701633  1
  O  O74  1  0.70173030  0.15106791  0.02875656  1
  O  O75  1  0.45363588  0.16079152  0.52701633  1
  O  O76  1  0.70544893  0.54506416  0.52668474  1
  O  O77  1  0.84893209  0.29826970  0.52875656  1
  O  O78  1  0.56457547  0.67985472  0.97379681  1
  O  O79  1  0.12211562  0.43435614  0.97766409  1
  O  O80  1  0.32037437  0.88038849  0.97854103  1
  O  O81  1  0.56564386  0.87788438  0.47766409  1
  O  O82  1  0.32014528  0.43542453  0.47379681  1
  O  O83  1  0.11961151  0.67962563  0.47854103  1
  O  O84  1  0.12160184  0.62788507  0.36001874  1
  O  O85  1  0.50587448  0.87969812  0.36035033  1
  O  O86  1  0.36839630  0.48440191  0.36209056  1
  O  O87  1  0.12030188  0.49412552  0.86035033  1
  O  O88  1  0.37211493  0.87839816  0.86001874  1
  O  O89  1  0.51559809  0.63160370  0.86209056  1
  O  O90  1  0.99645724  0.80982323  0.41425613  1
  O  O91  1  0.81779088  0.01800987  0.41286150  1
  O  O92  1  0.21143885  0.19547405  0.40926065  1
  O  O93  1  0.98199013  0.18220912  0.91286150  1
  O  O94  1  0.19017677  0.00354276  0.91425613  1
  O  O95  1  0.80452595  0.78856115  0.90926065  1
  O  O96  1  0.95916238  0.14881817  0.58447055  1
  O  O97  1  0.17929974  0.03947515  0.58742255  1
  O  O98  1  0.85468269  0.82214820  0.58653675  1
  O  O99  1  0.96052485  0.82070026  0.08742255  1
  O  O100  1  0.85118183  0.04083762  0.08447055  1
  O  O101  1  0.17785180  0.14531731  0.08653675  1
  O  O102  1  0.66312424  0.14315623  0.74758913  1
  O  O103  1  0.48445788  0.35134287  0.74619450  1
  O  O104  1  0.87810585  0.52880705  0.74259365  1
  O  O105  1  0.64865713  0.51554212  0.24619450  1
  O  O106  1  0.85684377  0.33687576  0.24758913  1
  O  O107  1  0.47119295  0.12189415  0.24259365  1
  O  O108  1  0.62582938  0.48215117  0.91780355  1
  O  O109  1  0.84596674  0.37280815  0.92075555  1
  O  O110  1  0.52134969  0.15548120  0.91986975  1
  O  O111  1  0.62719185  0.15403326  0.42075555  1
  O  O112  1  0.51784883  0.37417062  0.41780355  1
  O  O113  1  0.84451880  0.47865031  0.41986975  1
  O  O114  1  0.32979024  0.47649023  0.08092313  1
  O  O115  1  0.15112388  0.68467687  0.07952850  1
  O  O116  1  0.54477185  0.86214105  0.07592765  1
  O  O117  1  0.31532313  0.84887612  0.57952850  1
  O  O118  1  0.52350977  0.67020976  0.58092313  1
  O  O119  1  0.13785895  0.45522815  0.57592765  1
  O  O120  1  0.29249538  0.81548517  0.25113755  1
  O  O121  1  0.51263274  0.70614215  0.25408955  1
  O  O122  1  0.18801569  0.48881520  0.25320375  1
  O  O123  1  0.29385785  0.48736726  0.75408955  1
  O  O124  1  0.18451483  0.70750462  0.75113755  1
  O  O125  1  0.51118480  0.81198431  0.75320375  1
