# generated using pymatgen
data_Na5Y2Mg2P3(SO8)3
_symmetry_space_group_name_H-M   'P 1'
_cell_length_a   9.16114007
_cell_length_b   9.12148005
_cell_length_c   23.20105605
_cell_angle_alpha   89.74290121
_cell_angle_beta   90.17003248
_cell_angle_gamma   120.09183380
_symmetry_Int_Tables_number   1
_chemical_formula_structural   Na5Y2Mg2P3(SO8)3
_chemical_formula_sum   'Na15 Y6 Mg6 P9 S9 O72'
_cell_volume   1677.43642160
_cell_formula_units_Z   3
loop_
 _symmetry_equiv_pos_site_id
 _symmetry_equiv_pos_as_xyz
  1  'x, y, z'
loop_
 _atom_site_type_symbol
 _atom_site_label
 _atom_site_symmetry_multiplicity
 _atom_site_fract_x
 _atom_site_fract_y
 _atom_site_fract_z
 _atom_site_occupancy
  Na  Na0  1  0.63853662  0.01538051  0.25282097  1
  Na  Na1  1  0.00124897  0.63262405  0.24275877  1
  Na  Na2  1  0.62925982  0.62907059  0.74390094  1
  Na  Na3  1  0.99590286  0.35132549  0.74560791  1
  Na  Na4  1  0.30471184  0.34734625  0.58572580  1
  Na  Na5  1  0.66860357  0.96556023  0.57845031  1
  Na  Na6  1  0.29593107  0.95556780  0.07996351  1
  Na  Na7  1  0.69053649  0.02670744  0.91125187  1
  Na  Na8  1  0.96165981  0.28739588  0.41370128  1
  Na  Na9  1  0.98148137  0.97384355  0.49434835  1
  Na  Na10  1  0.00834180  0.98713094  0.99430243  1
  Na  Na11  1  0.63472269  0.31028332  0.82772671  1
  Na  Na12  1  0.64201063  0.31572062  0.32885752  1
  Na  Na13  1  0.31466038  0.64035323  0.16119872  1
  Na  Na14  1  0.32859363  0.66686394  0.66155691  1
  Y  Y15  1  0.99838059  0.99948791  0.65063514  1
  Y  Y16  1  0.00359649  0.00546496  0.14975067  1
  Y  Y17  1  0.67196129  0.34658606  0.98301225  1
  Y  Y18  1  0.67018366  0.33725782  0.48305976  1
  Y  Y19  1  0.33746338  0.67081633  0.31714691  1
  Y  Y20  1  0.33562808  0.67679918  0.81716352  1
  Mg  Mg21  1  0.00431172  0.00575543  0.34747334  1
  Mg  Mg22  1  0.02573648  0.01165202  0.84925611  1
  Mg  Mg23  1  0.66208830  0.32841236  0.68221842  1
  Mg  Mg24  1  0.67134105  0.33683415  0.18294619  1
  Mg  Mg25  1  0.31233138  0.66240411  0.01613250  1
  Mg  Mg26  1  0.33941329  0.67004188  0.51603719  1
  P  P27  1  0.30071729  0.00916703  0.25049729  1
  P  P28  1  0.99160747  0.29519695  0.25251811  1
  P  P29  1  0.30369534  0.29648128  0.74996650  1
  P  P30  1  0.70808721  0.00772294  0.75248289  1
  P  P31  1  0.97042455  0.34355071  0.58484133  1
  P  P32  1  0.65871445  0.62717818  0.58562292  1
  P  P33  1  0.97030724  0.62902652  0.08690523  1
  P  P34  1  0.32682561  0.96340137  0.92077809  1
  P  P35  1  0.63995541  0.96290009  0.41836281  1
  S  S36  1  0.70911782  0.70235164  0.25129739  1
  S  S37  1  0.99179882  0.69908789  0.75171406  1
  S  S38  1  0.37467760  0.03479835  0.58430355  1
  S  S39  1  0.65932734  0.03265365  0.08348035  1
  S  S40  1  0.37760245  0.34312124  0.08453901  1
  S  S41  1  0.63237508  0.67584048  0.91699603  1
  S  S42  1  0.03841997  0.36302507  0.91691956  1
  S  S43  1  0.32546807  0.36496660  0.41878722  1
  S  S44  1  0.04331605  0.67533160  0.41745865  1
  O  O45  1  0.20483325  0.02179814  0.30227049  1
  O  O46  1  0.81567216  0.78589014  0.30196396  1
  O  O47  1  0.96830940  0.18757079  0.30695739  1
  O  O48  1  0.20912281  0.18422751  0.80117123  1
  O  O49  1  0.97350110  0.78625815  0.80204695  1
  O  O50  1  0.81690034  0.02670394  0.80604046  1
  O  O51  1  0.78607332  0.97593310  0.69755746  1
  O  O52  1  0.20146120  0.22387985  0.69313996  1
  O  O53  1  0.02140854  0.79952737  0.69877186  1
  O  O54  1  0.78281871  0.80743731  0.19892032  1
  O  O55  1  0.01370052  0.20962636  0.19892229  1
  O  O56  1  0.19444857  0.97348607  0.19441267  1
  O  O57  1  0.88109995  0.35662245  0.63903610  1
  O  O58  1  0.48150614  0.11804572  0.63496619  1
  O  O59  1  0.63657955  0.52031835  0.64016065  1
  O  O60  1  0.88259010  0.52889412  0.14206310  1
  O  O61  1  0.63841212  0.11792132  0.13472976  1
  O  O62  1  0.47871848  0.35929713  0.13578972  1
  O  O63  1  0.45236683  0.31207676  0.03253157  1
  O  O64  1  0.86229910  0.54284521  0.03331850  1
  O  O65  1  0.68161863  0.13399063  0.03057340  1
  O  O66  1  0.44890262  0.13989084  0.53194722  1
  O  O67  1  0.67804389  0.54013582  0.53196915  1
  O  O68  1  0.85866166  0.30904122  0.53032810  1
  O  O69  1  0.53977214  0.69114118  0.96665132  1
  O  O70  1  0.14567115  0.45446012  0.96690248  1
  O  O71  1  0.31139266  0.85962626  0.97565858  1
  O  O72  1  0.54615829  0.85890092  0.47222242  1
  O  O73  1  0.30551915  0.44837655  0.47057044  1
  O  O74  1  0.14750395  0.68960456  0.46743304  1
  O  O75  1  0.11466761  0.64564863  0.36375970  1
  O  O76  1  0.53740223  0.88290034  0.36239423  1
  O  O77  1  0.34772066  0.46856605  0.36684344  1
  O  O78  1  0.11060868  0.45991309  0.86295207  1
  O  O79  1  0.35890622  0.87940946  0.86780121  1
  O  O80  1  0.53501226  0.65025090  0.86273017  1
  O  O81  1  0.02391776  0.82561997  0.41126813  1
  O  O82  1  0.81943233  0.98519050  0.41349133  1
  O  O83  1  0.16881707  0.19749346  0.41294686  1
  O  O84  1  0.01562103  0.19093331  0.91326117  1
  O  O85  1  0.16975863  0.98048727  0.91252442  1
  O  O86  1  0.79840229  0.83373102  0.91227159  1
  O  O87  1  0.98969048  0.18052039  0.58797389  1
  O  O88  1  0.20557491  0.01844133  0.58971769  1
  O  O89  1  0.81426468  0.80995405  0.58776877  1
  O  O90  1  0.99748889  0.81348668  0.08773810  1
  O  O91  1  0.80959621  0.01312677  0.08825872  1
  O  O92  1  0.20673519  0.18603865  0.08835100  1
  O  O93  1  0.69790686  0.17089167  0.74480494  1
  O  O94  1  0.48509339  0.32688965  0.74490837  1
  O  O95  1  0.83637106  0.53032880  0.74632774  1
  O  O96  1  0.69406091  0.53394715  0.24456423  1
  O  O97  1  0.83028724  0.31182489  0.24585114  1
  O  O98  1  0.48123236  0.16263282  0.24375795  1
  O  O99  1  0.65506826  0.52650506  0.92133504  1
  O  O100  1  0.86537933  0.34133460  0.92226137  1
  O  O101  1  0.49484635  0.13951132  0.92356964  1
  O  O102  1  0.66468015  0.14674029  0.42060680  1
  O  O103  1  0.47523882  0.34430181  0.42246895  1
  O  O104  1  0.87317377  0.51761109  0.42171670  1
  O  O105  1  0.35891236  0.49396150  0.07685145  1
  O  O106  1  0.14974050  0.65023034  0.08089462  1
  O  O107  1  0.50353502  0.86399582  0.07825588  1
  O  O108  1  0.36107489  0.86686318  0.57759942  1
  O  O109  1  0.49813314  0.64573396  0.57946193  1
  O  O110  1  0.14970980  0.49765785  0.57710232  1
  O  O111  1  0.32117327  0.84677607  0.25538596  1
  O  O112  1  0.53929392  0.68585301  0.25648124  1
  O  O113  1  0.14642746  0.47828839  0.25586160  1
  O  O114  1  0.31605729  0.47537416  0.75536146  1
  O  O115  1  0.13726836  0.66856575  0.75673525  1
  O  O116  1  0.53104403  0.84388650  0.75561474  1
