# generated using pymatgen
data_Na18Ta8Zn16Si9(S3O16)9
_symmetry_space_group_name_H-M   'P 1'
_cell_length_a   17.70533123
_cell_length_b   8.89500389
_cell_length_c   22.58884168
_cell_angle_alpha   89.95233567
_cell_angle_beta   90.46062333
_cell_angle_gamma   120.07142126
_symmetry_Int_Tables_number   1
_chemical_formula_structural   Na18Ta8Zn16Si9(S3O16)9
_chemical_formula_sum   'Na18 Ta8 Zn16 Si9 S27 O144'
_cell_volume   3078.53990521
_cell_formula_units_Z   1
loop_
 _symmetry_equiv_pos_site_id
 _symmetry_equiv_pos_as_xyz
  1  'x, y, z'
loop_
 _atom_site_type_symbol
 _atom_site_label
 _atom_site_symmetry_multiplicity
 _atom_site_fract_x
 _atom_site_fract_y
 _atom_site_fract_z
 _atom_site_occupancy
  Na  Na0  1  0.35453685  0.03733592  0.90841811  1
  Na  Na1  1  0.84816051  0.03723912  0.90958420  1
  Na  Na2  1  0.66439941  0.28542773  0.90827166  1
  Na  Na3  1  0.16472588  0.04446663  0.41211314  1
  Na  Na4  1  0.34583566  0.65438055  0.42087088  1
  Na  Na5  1  0.85433225  0.67248792  0.41153003  1
  Na  Na6  1  0.00570770  0.02978398  0.49626456  1
  Na  Na7  1  0.50806242  0.01111667  0.49949661  1
  Na  Na8  1  0.00654812  0.00329622  0.99386100  1
  Na  Na9  1  0.50419915  0.98190094  0.99131241  1
  Na  Na10  1  0.32679000  0.33031044  0.82234456  1
  Na  Na11  1  0.82685594  0.31942245  0.82408590  1
  Na  Na12  1  0.32571580  0.32124863  0.32973421  1
  Na  Na13  1  0.82679569  0.32397224  0.32353592  1
  Na  Na14  1  0.16459141  0.67012996  0.16066340  1
  Na  Na15  1  0.67183751  0.67553552  0.15986091  1
  Na  Na16  1  0.16966329  0.66831135  0.66100832  1
  Na  Na17  1  0.66864436  0.66321674  0.66375178  1
  Ta  Ta18  1  0.99903199  0.00748306  0.65028024  1
  Ta  Ta19  1  0.49881957  0.00951801  0.65156206  1
  Ta  Ta20  1  0.99929982  0.98662466  0.14982138  1
  Ta  Ta21  1  0.50383410  0.99804111  0.14663950  1
  Ta  Ta22  1  0.16433818  0.66097038  0.31263106  1
  Ta  Ta23  1  0.66957017  0.67469597  0.30911935  1
  Ta  Ta24  1  0.16808268  0.66344300  0.80878544  1
  Ta  Ta25  1  0.67092504  0.67946004  0.80948414  1
  Zn  Zn26  1  0.00945039  0.01169728  0.34559647  1
  Zn  Zn27  1  0.50859653  0.01071152  0.34968832  1
  Zn  Zn28  1  0.00419926  0.01625056  0.84248107  1
  Zn  Zn29  1  0.50867008  0.00570973  0.84594846  1
  Zn  Zn30  1  0.32625126  0.31583337  0.68817872  1
  Zn  Zn31  1  0.82414968  0.31668670  0.68877074  1
  Zn  Zn32  1  0.32386441  0.31771957  0.18270042  1
  Zn  Zn33  1  0.82768481  0.33519880  0.18855804  1
  Zn  Zn34  1  0.33077133  0.33926313  0.98290071  1
  Zn  Zn35  1  0.83062347  0.31922250  0.97991164  1
  Zn  Zn36  1  0.32726669  0.33672015  0.48548884  1
  Zn  Zn37  1  0.82995343  0.32183139  0.48990447  1
  Zn  Zn38  1  0.16457291  0.66521368  0.01688719  1
  Zn  Zn39  1  0.66629208  0.67898586  0.01336490  1
  Zn  Zn40  1  0.16543944  0.65081102  0.51937978  1
  Zn  Zn41  1  0.66431049  0.66503260  0.51936615  1
  Si  Si42  1  0.15402652  0.00804544  0.25374743  1
  Si  Si43  1  0.64944341  0.00762966  0.25372864  1
  Si  Si44  1  0.85906218  0.70601150  0.25646388  1
  Si  Si45  1  0.15072250  0.29046757  0.75357093  1
  Si  Si46  1  0.65145254  0.30114726  0.75467819  1
  Si  Si47  1  0.35827420  0.01059045  0.75669700  1
  Si  Si48  1  0.85634982  0.01063448  0.75473436  1
  Si  Si49  1  0.66216377  0.95985903  0.92000076  1
  Si  Si50  1  0.16304889  0.36399494  0.41951813  1
  S  S51  1  0.35453920  0.71014648  0.25145313  1
  S  S52  1  0.00054492  0.29056848  0.24944801  1
  S  S53  1  0.49849993  0.28865130  0.25120149  1
  S  S54  1  0.99978029  0.71119820  0.75120689  1
  S  S55  1  0.49937249  0.70890257  0.74967244  1
  S  S56  1  0.47850711  0.33389135  0.58263825  1
  S  S57  1  0.97864792  0.33398753  0.58499688  1
  S  S58  1  0.18308965  0.02906999  0.58148886  1
  S  S59  1  0.68332487  0.03334216  0.58247386  1
  S  S60  1  0.33582744  0.63196845  0.58379450  1
  S  S61  1  0.83420470  0.62798091  0.58145930  1
  S  S62  1  0.47697287  0.61880102  0.08670351  1
  S  S63  1  0.97868419  0.62122271  0.08305047  1
  S  S64  1  0.33250998  0.03612843  0.08233848  1
  S  S65  1  0.83522008  0.04036627  0.08447585  1
  S  S66  1  0.18517012  0.33563620  0.08322231  1
  S  S67  1  0.68512886  0.33973443  0.08279401  1
  S  S68  1  0.30933149  0.65995553  0.91878698  1
  S  S69  1  0.81443087  0.66823326  0.91785343  1
  S  S70  1  0.02270712  0.37841513  0.91875744  1
  S  S71  1  0.51909212  0.38101098  0.91952361  1
  S  S72  1  0.16487001  0.95553053  0.91862314  1
  S  S73  1  0.31535019  0.95824396  0.41586762  1
  S  S74  1  0.80967852  0.96001075  0.41889096  1
  S  S75  1  0.66535207  0.37650676  0.41850515  1
  S  S76  1  0.01976046  0.65749876  0.41906565  1
  S  S77  1  0.52161991  0.66595407  0.41732310  1
  O  O78  1  0.11504517  0.02822690  0.31444874  1
  O  O79  1  0.60469724  0.03246942  0.30980216  1
  O  O80  1  0.40165264  0.78879132  0.30662889  1
  O  O81  1  0.90730906  0.79717197  0.31689449  1
  O  O82  1  0.48331040  0.18516628  0.30441638  1
  O  O83  1  0.98897040  0.19425499  0.30371353  1
  O  O84  1  0.11209546  0.17915487  0.81147299  1
  O  O85  1  0.61392224  0.19430300  0.81397397  1
  O  O86  1  0.48671274  0.78218147  0.80336969  1
  O  O87  1  0.98777471  0.78593007  0.80492728  1
  O  O88  1  0.40692364  0.01632582  0.81691205  1
  O  O89  1  0.90121999  0.01642169  0.81691353  1
  O  O90  1  0.40303354  0.96804605  0.69701541  1
  O  O91  1  0.90482402  0.97008369  0.69663863  1
  O  O92  1  0.08425666  0.19176108  0.69414758  1
  O  O93  1  0.58331802  0.19150610  0.69586444  1
  O  O94  1  0.01743700  0.82810331  0.69738584  1
  O  O95  1  0.51559683  0.82658868  0.69611031  1
  O  O96  1  0.39852314  0.82904037  0.19860278  1
  O  O97  1  0.90473324  0.83885072  0.19713900  1
  O  O98  1  0.01773684  0.20916466  0.19644277  1
  O  O99  1  0.51244306  0.20045271  0.19760024  1
  O  O100  1  0.08560220  0.97814910  0.19559405  1
  O  O101  1  0.58262772  0.97495553  0.19409967  1
  O  O102  1  0.43846906  0.35421324  0.63567774  1
  O  O103  1  0.93425308  0.34813972  0.63646676  1
  O  O104  1  0.23770104  0.11592274  0.63311469  1
  O  O105  1  0.73688333  0.11639651  0.63469331  1
  O  O106  1  0.32776451  0.52274104  0.63388971  1
  O  O107  1  0.82574512  0.52117717  0.63245695  1
  O  O108  1  0.43282711  0.51981270  0.13955026  1
  O  O109  1  0.93928810  0.52301930  0.13669953  1
  O  O110  1  0.32314843  0.12166929  0.13468707  1
  O  O111  1  0.82648033  0.13041358  0.13564843  1
  O  O112  1  0.23814296  0.36254295  0.13676341  1
  O  O113  1  0.73657692  0.35778897  0.13558052  1
  O  O114  1  0.22145656  0.30072264  0.02954476  1
  O  O115  1  0.71604636  0.30075833  0.02794490  1
  O  O116  1  0.42674964  0.55258863  0.03142141  1
  O  O117  1  0.92622463  0.54915988  0.02875421  1
  O  O118  1  0.34986433  0.13772348  0.02716387  1
  O  O119  1  0.84964269  0.13591531  0.02795424  1
  O  O120  1  0.21668853  0.12882318  0.52538768  1
  O  O121  1  0.71784991  0.13678971  0.52727457  1
  O  O122  1  0.34936138  0.56581714  0.52617911  1
  O  O123  1  0.84780993  0.55824052  0.52434964  1
  O  O124  1  0.42651928  0.30299299  0.52765571  1
  O  O125  1  0.92955587  0.30268517  0.52847034  1
  O  O126  1  0.26799244  0.68625941  0.97103076  1
  O  O127  1  0.77320952  0.69152602  0.97078784  1
  O  O128  1  0.07443730  0.46030385  0.97238373  1
  O  O129  1  0.57302185  0.45840285  0.97315237  1
  O  O130  1  0.15742004  0.85645561  0.97267010  1
  O  O131  1  0.65249392  0.85293011  0.97886111  1
  O  O132  1  0.27565760  0.85368077  0.46862011  1
  O  O133  1  0.76688616  0.84808272  0.47001573  1
  O  O134  1  0.15649592  0.46564424  0.47495642  1
  O  O135  1  0.65752503  0.46171868  0.47166925  1
  O  O136  1  0.07590182  0.68756905  0.47054804  1
  O  O137  1  0.57488742  0.69294283  0.47043635  1
  O  O138  1  0.06774738  0.64576972  0.36292337  1
  O  O139  1  0.56867735  0.65225589  0.36308683  1
  O  O140  1  0.25555971  0.86522289  0.36121267  1
  O  O141  1  0.75300926  0.86281604  0.36285568  1
  O  O142  1  0.17740915  0.49903817  0.35952833  1
  O  O143  1  0.67419901  0.48813067  0.36415859  1
  O  O144  1  0.06965774  0.48641197  0.86466695  1
  O  O145  1  0.56425327  0.48546199  0.86532573  1
  O  O146  1  0.17558500  0.86152905  0.86517849  1
  O  O147  1  0.67573875  0.85246794  0.86168869  1
  O  O148  1  0.25306227  0.64358578  0.86371150  1
  O  O149  1  0.75594231  0.64389111  0.86321806  1
  O  O150  1  0.00886333  0.81084532  0.41334471  1
  O  O151  1  0.50644783  0.81645654  0.41218113  1
  O  O152  1  0.40073098  0.96795059  0.40686008  1
  O  O153  1  0.89539560  0.97461352  0.41245143  1
  O  O154  1  0.07894368  0.17145642  0.41301083  1
  O  O155  1  0.58672101  0.20323657  0.41341695  1
  O  O156  1  0.01038617  0.20110341  0.91506808  1
  O  O157  1  0.50683501  0.20325033  0.91561957  1
  O  O158  1  0.08725442  0.97278626  0.91255235  1
  O  O159  1  0.57882009  0.98657447  0.91258596  1
  O  O160  1  0.39536777  0.81573091  0.91287088  1
  O  O161  1  0.90101411  0.82460638  0.91169066  1
  O  O162  1  0.48722790  0.16657858  0.58925166  1
  O  O163  1  0.98776186  0.16703413  0.59070256  1
  O  O164  1  0.09242128  0.01029945  0.58959230  1
  O  O165  1  0.59262599  0.01371685  0.58953583  1
  O  O166  1  0.41855911  0.81173458  0.59030623  1
  O  O167  1  0.91643486  0.80854075  0.58854795  1
  O  O168  1  0.48471694  0.80507020  0.09359671  1
  O  O169  1  0.98754173  0.80734421  0.09003628  1
  O  O170  1  0.41396346  0.01692132  0.09258241  1
  O  O171  1  0.91906957  0.02726846  0.09228804  1
  O  O172  1  0.09470928  0.17318340  0.09095421  1
  O  O173  1  0.59116606  0.17139287  0.09246319  1
  O  O174  1  0.34627848  0.17248928  0.74466306  1
  O  O175  1  0.84770012  0.17617416  0.74336987  1
  O  O176  1  0.24865192  0.34382043  0.74124186  1
  O  O177  1  0.74816817  0.34469169  0.74203468  1
  O  O178  1  0.42742591  0.53635488  0.73834265  1
  O  O179  1  0.92863159  0.53849993  0.73960563  1
  O  O180  1  0.34517334  0.54015335  0.24202805  1
  O  O181  1  0.84620959  0.51925522  0.24480197  1
  O  O182  1  0.42798468  0.32372327  0.24026335  1
  O  O183  1  0.92901870  0.32216947  0.23948680  1
  O  O184  1  0.24956079  0.17016389  0.24364310  1
  O  O185  1  0.74663793  0.15444884  0.24250055  1
  O  O186  1  0.31330093  0.49808360  0.91999003  1
  O  O187  1  0.81820022  0.50590486  0.91959653  1
  O  O188  1  0.43062629  0.36490298  0.92195858  1
  O  O189  1  0.93625833  0.36761496  0.91889936  1
  O  O190  1  0.24866051  0.12722326  0.92005812  1
  O  O191  1  0.75463255  0.15057304  0.91827433  1
  O  O192  1  0.32116868  0.12903937  0.41694105  1
  O  O193  1  0.81337941  0.12909422  0.41982589  1
  O  O194  1  0.25526256  0.35632187  0.41856181  1
  O  O195  1  0.74794829  0.36948130  0.41922016  1
  O  O196  1  0.43561676  0.50400420  0.41818136  1
  O  O197  1  0.93351607  0.49674323  0.41922514  1
  O  O198  1  0.17240254  0.48739057  0.07745304  1
  O  O199  1  0.66870504  0.48580834  0.07784346  1
  O  O200  1  0.06963699  0.65660212  0.07817380  1
  O  O201  1  0.56636523  0.65064466  0.08441103  1
  O  O202  1  0.25687993  0.85780920  0.07783651  1
  O  O203  1  0.76112511  0.85951870  0.08155785  1
  O  O204  1  0.17076983  0.85174859  0.57631215  1
  O  O205  1  0.67143279  0.85633419  0.57704581  1
  O  O206  1  0.26070049  0.66224070  0.58126331  1
  O  O207  1  0.75803693  0.65539810  0.57721708  1
  O  O208  1  0.06814715  0.48381762  0.58240128  1
  O  O209  1  0.56935565  0.48153818  0.57759109  1
  O  O210  1  0.15522966  0.81919981  0.25672826  1
  O  O211  1  0.64661590  0.81411521  0.25791048  1
  O  O212  1  0.26505916  0.69649613  0.25351950  1
  O  O213  1  0.75851492  0.68998970  0.26011772  1
  O  O214  1  0.08499849  0.47065359  0.25434042  1
  O  O215  1  0.58393596  0.46094734  0.25664604  1
  O  O216  1  0.14690040  0.47790893  0.75893479  1
  O  O217  1  0.64618869  0.48355521  0.75874031  1
  O  O218  1  0.08460985  0.70394327  0.75676914  1
  O  O219  1  0.58357317  0.70174313  0.75363188  1
  O  O220  1  0.25827018  0.82599591  0.76060071  1
  O  O221  1  0.75841178  0.82528094  0.75569114  1
