# generated using pymatgen
data_Na8Mg2Ta2Si5SO24
_symmetry_space_group_name_H-M   'P 1'
_cell_length_a   9.16255440
_cell_length_b   9.15782502
_cell_length_c   22.25288615
_cell_angle_alpha   90.00734569
_cell_angle_beta   90.06232896
_cell_angle_gamma   120.18882233
_symmetry_Int_Tables_number   1
_chemical_formula_structural   Na8Mg2Ta2Si5SO24
_chemical_formula_sum   'Na24 Mg6 Ta6 Si15 S3 O72'
_cell_volume   1613.97207221
_cell_formula_units_Z   3
loop_
 _symmetry_equiv_pos_site_id
 _symmetry_equiv_pos_as_xyz
  1  'x, y, z'
loop_
 _atom_site_type_symbol
 _atom_site_label
 _atom_site_symmetry_multiplicity
 _atom_site_fract_x
 _atom_site_fract_y
 _atom_site_fract_z
 _atom_site_occupancy
  Na  Na0  1  0.64259088  0.02518924  0.24439923  1
  Na  Na1  1  0.36921379  0.34950867  0.25092097  1
  Na  Na2  1  0.98280055  0.62132848  0.24347773  1
  Na  Na3  1  0.62480143  0.64123820  0.76222829  1
  Na  Na4  1  0.01282051  0.37387294  0.76181278  1
  Na  Na5  1  0.36017309  0.98612412  0.75566882  1
  Na  Na6  1  0.29491982  0.35053254  0.57956740  1
  Na  Na7  1  0.04808741  0.69949919  0.58586569  1
  Na  Na8  1  0.64782261  0.94661718  0.57896647  1
  Na  Na9  1  0.31131360  0.95606286  0.08446323  1
  Na  Na10  1  0.66017136  0.70531298  0.07038203  1
  Na  Na11  1  0.03182331  0.34942089  0.07533871  1
  Na  Na12  1  0.97637700  0.67896041  0.90208536  1
  Na  Na13  1  0.71683480  0.01922109  0.90935572  1
  Na  Na14  1  0.32326024  0.31296218  0.90438711  1
  Na  Na15  1  0.97349745  0.28064560  0.41129968  1
  Na  Na16  1  0.32392374  0.03519812  0.40555540  1
  Na  Na17  1  0.70008919  0.68280487  0.41190036  1
  Na  Na18  1  0.99948955  0.01216875  0.49599678  1
  Na  Na19  1  0.98632872  0.99809067  0.99092397  1
  Na  Na20  1  0.67079306  0.34200266  0.83130550  1
  Na  Na21  1  0.66363901  0.32923154  0.32294592  1
  Na  Na22  1  0.33095524  0.67829442  0.15945483  1
  Na  Na23  1  0.33316684  0.66500169  0.67047071  1
  Mg  Mg24  1  0.99926193  0.00647719  0.34973586  1
  Mg  Mg25  1  0.99250360  0.00121707  0.84812780  1
  Mg  Mg26  1  0.67444973  0.33102884  0.18686188  1
  Mg  Mg27  1  0.33625211  0.66897442  0.01450933  1
  Mg  Mg28  1  0.34069259  0.66379003  0.52288298  1
  Mg  Mg29  1  0.33012900  0.65057820  0.81190398  1
  Ta  Ta30  1  0.99705590  0.99926190  0.64751757  1
  Ta  Ta31  1  0.99082124  0.99503737  0.15049938  1
  Ta  Ta32  1  0.66771975  0.33453449  0.68745837  1
  Ta  Ta33  1  0.68898854  0.34476512  0.98056735  1
  Ta  Ta34  1  0.65625053  0.32509431  0.48029752  1
  Ta  Ta35  1  0.34833445  0.67157911  0.31050984  1
  Si  Si36  1  0.29061410  0.99923949  0.25355641  1
  Si  Si37  1  0.70983195  0.70371191  0.25485422  1
  Si  Si38  1  0.00085696  0.29522536  0.25351944  1
  Si  Si39  1  0.29207784  0.28896243  0.75197007  1
  Si  Si40  1  0.00102047  0.70863724  0.75166240  1
  Si  Si41  1  0.70529475  0.00077889  0.75185434  1
  Si  Si42  1  0.95703532  0.33215791  0.58238719  1
  Si  Si43  1  0.36841102  0.03865947  0.58431173  1
  Si  Si44  1  0.67009726  0.62655375  0.58251637  1
  Si  Si45  1  0.96748154  0.63419259  0.08800443  1
  Si  Si46  1  0.66352744  0.03670915  0.08714605  1
  Si  Si47  1  0.62648985  0.66566696  0.91797339  1
  Si  Si48  1  0.04881539  0.37456140  0.91795557  1
  Si  Si49  1  0.62773108  0.95977249  0.42073687  1
  Si  Si50  1  0.33168934  0.37292031  0.42034255  1
  S  S51  1  0.37369937  0.32787812  0.08537373  1
  S  S52  1  0.33941420  0.96611636  0.91905757  1
  S  S53  1  0.04224753  0.66158343  0.41811714  1
  O  O54  1  0.20380201  0.02061998  0.31222459  1
  O  O55  1  0.82039113  0.78583794  0.31326901  1
  O  O56  1  0.97418971  0.18417502  0.31173107  1
  O  O57  1  0.21931367  0.16972308  0.81008199  1
  O  O58  1  0.95920290  0.78571823  0.80927723  1
  O  O59  1  0.82401144  0.04757417  0.80964068  1
  O  O60  1  0.80716828  0.98048632  0.69129952  1
  O  O61  1  0.17086632  0.18545823  0.69152947  1
  O  O62  1  0.01562166  0.82664375  0.69054678  1
  O  O63  1  0.80220124  0.83495472  0.19487604  1
  O  O64  1  0.03479290  0.19985971  0.19326004  1
  O  O65  1  0.16386378  0.96952355  0.19285739  1
  O  O66  1  0.85424455  0.34977384  0.63968339  1
  O  O67  1  0.49399639  0.14180017  0.64023224  1
  O  O68  1  0.65262921  0.50413369  0.63920416  1
  O  O69  1  0.87343653  0.52080346  0.14490191  1
  O  O70  1  0.63554979  0.12144988  0.14539700  1
  O  O71  1  0.47194662  0.34624205  0.13953357  1
  O  O72  1  0.45638940  0.30595443  0.03062436  1
  O  O73  1  0.83918524  0.53362911  0.02779288  1
  O  O74  1  0.68878602  0.16461249  0.02825307  1
  O  O75  1  0.46682650  0.16614360  0.52446691  1
  O  O76  1  0.69886162  0.52988884  0.52311054  1
  O  O77  1  0.83052340  0.30355255  0.52317245  1
  O  O78  1  0.54256586  0.68999900  0.97824732  1
  O  O79  1  0.14615992  0.46077892  0.97984847  1
  O  O80  1  0.32091589  0.86627607  0.97373400  1
  O  O81  1  0.53441154  0.85135026  0.47873990  1
  O  O82  1  0.30387092  0.45884448  0.47810480  1
  O  O83  1  0.14049645  0.68038275  0.47230808  1
  O  O84  1  0.12596279  0.64076316  0.36287904  1
  O  O85  1  0.49972534  0.86389920  0.35996308  1
  O  O86  1  0.36068547  0.50244843  0.36008993  1
  O  O87  1  0.11353324  0.49366951  0.85877199  1
  O  O88  1  0.36948588  0.89336465  0.86449385  1
  O  O89  1  0.50955741  0.62229602  0.85835047  1
  O  O90  1  0.01775509  0.80855037  0.41324286  1
  O  O91  1  0.81400130  0.98220151  0.41432179  1
  O  O92  1  0.17686446  0.18114490  0.41352635  1
  O  O93  1  0.02003434  0.18431445  0.91429639  1
  O  O94  1  0.18824915  0.98461941  0.91495580  1
  O  O95  1  0.82130143  0.82175246  0.91452685  1
  O  O96  1  0.96605900  0.15638567  0.58656448  1
  O  O97  1  0.18657531  0.03423347  0.58648165  1
  O  O98  1  0.84595467  0.81193385  0.58587633  1
  O  O99  1  0.97608529  0.82291214  0.08854529  1
  O  O100  1  0.84772730  0.03382205  0.08931327  1
  O  O101  1  0.20162298  0.16882899  0.08722726  1
  O  O102  1  0.68641550  0.17166730  0.74142811  1
  O  O103  1  0.48394260  0.31220878  0.74143870  1
  O  O104  1  0.82961797  0.51677013  0.74205336  1
  O  O105  1  0.66702137  0.51379887  0.24293762  1
  O  O106  1  0.84289364  0.32494835  0.24625675  1
  O  O107  1  0.47720506  0.15942539  0.24480618  1
  O  O108  1  0.63672408  0.48167607  0.92722768  1
  O  O109  1  0.84455701  0.34679818  0.92474215  1
  O  O110  1  0.49361969  0.14212407  0.92533917  1
  O  O111  1  0.64100044  0.15223448  0.42022722  1
  O  O112  1  0.51656515  0.37029677  0.42046906  1
  O  O113  1  0.87073451  0.50181396  0.41909405  1
  O  O114  1  0.34979396  0.47561766  0.08057268  1
  O  O115  1  0.15437090  0.66115614  0.07889991  1
  O  O116  1  0.50635814  0.84642333  0.07924059  1
  O  O117  1  0.34655457  0.85489000  0.57925708  1
  O  O118  1  0.50493167  0.64399941  0.58221605  1
  O  O119  1  0.13879875  0.49925369  0.57965245  1
  O  O120  1  0.29792462  0.81858095  0.25649761  1
  O  O121  1  0.52447714  0.70349093  0.25544744  1
  O  O122  1  0.18004875  0.48434624  0.25695286  1
  O  O123  1  0.30733089  0.47195015  0.74956881  1
  O  O124  1  0.16863422  0.69314736  0.75078632  1
  O  O125  1  0.51939006  0.83509670  0.75252862  1
