# generated using pymatgen
data_Na6Nb3Ga(SiO4)6
_symmetry_space_group_name_H-M   'P 1'
_cell_length_a   9.04067104
_cell_length_b   9.04218112
_cell_length_c   22.48382630
_cell_angle_alpha   90.03602021
_cell_angle_beta   90.01728359
_cell_angle_gamma   119.96855905
_symmetry_Int_Tables_number   1
_chemical_formula_structural   Na6Nb3Ga(SiO4)6
_chemical_formula_sum   'Na18 Nb9 Ga3 Si18 O72'
_cell_volume   1592.25284204
_cell_formula_units_Z   3
loop_
 _symmetry_equiv_pos_site_id
 _symmetry_equiv_pos_as_xyz
  1  'x, y, z'
loop_
 _atom_site_type_symbol
 _atom_site_label
 _atom_site_symmetry_multiplicity
 _atom_site_fract_x
 _atom_site_fract_y
 _atom_site_fract_z
 _atom_site_occupancy
  Na  Na0  1  0.00675183  0.00049900  0.49836146  1
  Na  Na1  1  0.99181110  0.99244121  0.99702514  1
  Na  Na2  1  0.66663124  0.33258626  0.83288690  1
  Na  Na3  1  0.66668674  0.33281246  0.32686272  1
  Na  Na4  1  0.34213477  0.66723857  0.16349715  1
  Na  Na5  1  0.32517404  0.65874419  0.66537826  1
  Na  Na6  1  0.63700900  0.01329879  0.24612733  1
  Na  Na7  1  0.37531430  0.36226763  0.24539824  1
  Na  Na8  1  0.98746577  0.62406276  0.24587288  1
  Na  Na9  1  0.63446523  0.62407012  0.74626236  1
  Na  Na10  1  0.98852906  0.36481368  0.74656623  1
  Na  Na11  1  0.37704315  0.01070333  0.74705288  1
  Na  Na12  1  0.66611243  0.96835473  0.58591019  1
  Na  Na13  1  0.30429889  0.97190137  0.08374445  1
  Na  Na14  1  0.03030719  0.33634672  0.08380699  1
  Na  Na15  1  0.96546712  0.28867567  0.41252284  1
  Na  Na16  1  0.32350334  0.03349865  0.41264106  1
  Na  Na17  1  0.71078522  0.67759575  0.41290213  1
  Nb  Nb18  1  0.00076758  0.00088188  0.85540596  1
  Nb  Nb19  1  0.00457463  0.00007961  0.64420442  1
  Nb  Nb20  1  0.99561447  0.99600665  0.14568953  1
  Nb  Nb21  1  0.66734917  0.33427937  0.97773065  1
  Nb  Nb22  1  0.66624390  0.33410834  0.48177304  1
  Nb  Nb23  1  0.33783525  0.66684094  0.02004819  1
  Nb  Nb24  1  0.32916083  0.66237526  0.52228012  1
  Nb  Nb25  1  0.33288124  0.66676183  0.31196229  1
  Nb  Nb26  1  0.33377768  0.66718706  0.81434162  1
  Ga  Ga27  1  0.99961701  0.00005097  0.35019197  1
  Ga  Ga28  1  0.66701408  0.33424807  0.68506347  1
  Ga  Ga29  1  0.66624548  0.33374398  0.18403446  1
  Si  Si30  1  0.29119398  0.00541507  0.25210926  1
  Si  Si31  1  0.71350500  0.70818039  0.25279929  1
  Si  Si32  1  0.99496661  0.28578207  0.25182390  1
  Si  Si33  1  0.29231716  0.28941348  0.74946302  1
  Si  Si34  1  0.99653068  0.70713215  0.74981920  1
  Si  Si35  1  0.71095408  0.00298723  0.74884384  1
  Si  Si36  1  0.95533372  0.33573489  0.58686659  1
  Si  Si37  1  0.37832268  0.04657876  0.58590820  1
  Si  Si38  1  0.66630825  0.61995587  0.58674097  1
  Si  Si39  1  0.95062189  0.61864255  0.08550621  1
  Si  Si40  1  0.66532110  0.04702744  0.08562766  1
  Si  Si41  1  0.38415919  0.33714310  0.08624092  1
  Si  Si42  1  0.62627518  0.66684807  0.91616581  1
  Si  Si43  1  0.04157437  0.37521852  0.91701667  1
  Si  Si44  1  0.33311090  0.95815455  0.91743646  1
  Si  Si45  1  0.62750301  0.95746125  0.41700230  1
  Si  Si46  1  0.33021341  0.37239067  0.41590631  1
  Si  Si47  1  0.04249171  0.67018104  0.41633993  1
  O  O48  1  0.20625831  0.03602049  0.31083734  1
  O  O49  1  0.82880063  0.79185130  0.31160690  1
  O  O50  1  0.96363112  0.17031097  0.31059495  1
  O  O51  1  0.19511942  0.16403080  0.80611939  1
  O  O52  1  0.96944835  0.80543047  0.80632607  1
  O  O53  1  0.83724864  0.03013843  0.80529273  1
  O  O54  1  0.79657994  0.96438077  0.69041415  1
  O  O55  1  0.16128696  0.19695423  0.69284977  1
  O  O56  1  0.03406903  0.83759252  0.69306430  1
  O  O57  1  0.80577211  0.83918667  0.19525807  1
  O  O58  1  0.03459939  0.20005644  0.19271038  1
  O  O59  1  0.16595746  0.96631922  0.19294122  1
  O  O60  1  0.87240897  0.36500005  0.64566601  1
  O  O61  1  0.50003966  0.12513861  0.64362204  1
  O  O62  1  0.63369919  0.50634325  0.64530537  1
  O  O63  1  0.87663588  0.50234020  0.14455618  1
  O  O64  1  0.62632182  0.12258250  0.14505724  1
  O  O65  1  0.49026830  0.36506554  0.14657218  1
  O  O66  1  0.47230548  0.29984294  0.02854107  1
  O  O67  1  0.83134726  0.52617860  0.02717483  1
  O  O68  1  0.70032398  0.17139835  0.02793159  1
  O  O69  1  0.47020281  0.16327205  0.52529764  1
  O  O70  1  0.69231454  0.52912767  0.52593162  1
  O  O71  1  0.83413350  0.30443396  0.52648045  1
  O  O72  1  0.52531437  0.69147184  0.97289966  1
  O  O73  1  0.16084959  0.46972572  0.97554923  1
  O  O74  1  0.30748759  0.83833350  0.97579442  1
  O  O75  1  0.53214080  0.83577746  0.47451579  1
  O  O76  1  0.30501099  0.47440552  0.47186768  1
  O  O77  1  0.17060210  0.69651041  0.47205779  1
  O  O78  1  0.13244125  0.63258885  0.35797470  1
  O  O79  1  0.49889198  0.86544574  0.35887775  1
  O  O80  1  0.36727510  0.49985257  0.35775158  1
  O  O81  1  0.13737375  0.49584172  0.85814129  1
  O  O82  1  0.35861550  0.86273865  0.85839876  1
  O  O83  1  0.50579487  0.64087872  0.85719342  1
  O  O84  1  0.02518170  0.83869805  0.41210600  1
  O  O85  1  0.81415703  0.97589119  0.41190016  1
  O  O86  1  0.16172152  0.18654845  0.41201417  1
  O  O87  1  0.02660998  0.18935750  0.91002721  1
  O  O88  1  0.16252319  0.97344301  0.91006474  1
  O  O89  1  0.81115206  0.83790369  0.91018922  1
  O  O90  1  0.96540565  0.15894879  0.58869175  1
  O  O91  1  0.18875189  0.02652435  0.58869947  1
  O  O92  1  0.83305163  0.81442714  0.58870159  1
  O  O93  1  0.98156877  0.81524711  0.08963636  1
  O  O94  1  0.84079270  0.03287378  0.09002648  1
  O  O95  1  0.18927259  0.16364247  0.08992298  1
  O  O96  1  0.69035179  0.17115975  0.74559645  1
  O  O97  1  0.47967037  0.30762340  0.74487498  1
  O  O98  1  0.82829379  0.51946074  0.74559050  1
  O  O99  1  0.68869940  0.51898912  0.24498413  1
  O  O100  1  0.83079998  0.31201979  0.24489051  1
  O  O101  1  0.48182225  0.16871371  0.24563473  1
  O  O102  1  0.63932506  0.49494335  0.92299706  1
  O  O103  1  0.85475177  0.35943658  0.92257621  1
  O  O104  1  0.50472264  0.14427979  0.92326341  1
  O  O105  1  0.63931235  0.14544955  0.42193606  1
  O  O106  1  0.50619152  0.36133883  0.42193292  1
  O  O107  1  0.85574966  0.49408725  0.42246192  1
  O  O108  1  0.34772459  0.49789899  0.07754006  1
  O  O109  1  0.14516922  0.64466317  0.07710561  1
  O  O110  1  0.49460580  0.85709837  0.07681460  1
  O  O111  1  0.36381926  0.85904272  0.57540813  1
  O  O112  1  0.50188503  0.65005334  0.57628441  1
  O  O113  1  0.14555371  0.50198100  0.57614173  1
  O  O114  1  0.30423746  0.82709155  0.25608970  1
  O  O115  1  0.52314827  0.69620800  0.25582784  1
  O  O116  1  0.17288537  0.47706995  0.25606545  1
  O  O117  1  0.30534617  0.47797855  0.75513942  1
  O  O118  1  0.17250005  0.69436459  0.75511558  1
  O  O119  1  0.52140048  0.82765365  0.75541344  1
