# generated using pymatgen
data_Cs4ZrO4
_symmetry_space_group_name_H-M   'P 1'
_cell_length_a   19.98219180
_cell_length_b   7.20267415
_cell_length_c   7.19600294
_cell_angle_alpha   66.91222507
_cell_angle_beta   90.00000000
_cell_angle_gamma   90.00000000
_symmetry_Int_Tables_number   1
_chemical_formula_structural   Cs4ZrO4
_chemical_formula_sum   'Cs16 Zr4 O16'
_cell_volume   952.73318339
_cell_formula_units_Z   4
loop_
 _symmetry_equiv_pos_site_id
 _symmetry_equiv_pos_as_xyz
  1  'x, y, z'
loop_
 _atom_site_type_symbol
 _atom_site_label
 _atom_site_symmetry_multiplicity
 _atom_site_fract_x
 _atom_site_fract_y
 _atom_site_fract_z
 _atom_site_occupancy
  Cs  Cs0  1  0.08269702  0.34180654  0.72441097  1
  Cs  Cs1  1  0.58269702  0.65819346  0.77558903  1
  Cs  Cs2  1  0.91730298  0.65819346  0.27558903  1
  Cs  Cs3  1  0.41730298  0.34180654  0.22441097  1
  Cs  Cs4  1  0.81075154  0.18348330  0.31847191  1
  Cs  Cs5  1  0.31075154  0.81651670  0.18152809  1
  Cs  Cs6  1  0.18924846  0.81651670  0.68152809  1
  Cs  Cs7  1  0.68924846  0.18348330  0.81847191  1
  Cs  Cs8  1  0.71621595  0.70043619  0.32104170  1
  Cs  Cs9  1  0.21621595  0.29956381  0.17895830  1
  Cs  Cs10  1  0.28378405  0.29956381  0.67895830  1
  Cs  Cs11  1  0.78378405  0.70043619  0.82104170  1
  Cs  Cs12  1  0.01428093  0.22011159  0.25093018  1
  Cs  Cs13  1  0.51428093  0.77988841  0.24906982  1
  Cs  Cs14  1  0.98571907  0.77988841  0.74906982  1
  Cs  Cs15  1  0.48571907  0.22011159  0.75093018  1
  Zr  Zr16  1  0.62256943  0.25479042  0.29900214  1
  Zr  Zr17  1  0.12256943  0.74520958  0.20099786  1
  Zr  Zr18  1  0.37743057  0.74520958  0.70099786  1
  Zr  Zr19  1  0.87743057  0.25479042  0.79900214  1
  O  O20  1  0.09490446  0.59257493  0.03581226  1
  O  O21  1  0.59490446  0.40742507  0.46418774  1
  O  O22  1  0.90509554  0.40742507  0.96418774  1
  O  O23  1  0.40509554  0.59257493  0.53581226  1
  O  O24  1  0.83316793  0.00142588  0.97964924  1
  O  O25  1  0.33316793  -0.00142588  0.52035076  1
  O  O26  1  0.16683207  -0.00142588  0.02035076  1
  O  O27  1  0.66683207  0.00142588  0.47964924  1
  O  O28  1  0.95153240  0.21033428  0.63799896  1
  O  O29  1  0.45153240  0.78966572  0.86200104  1
  O  O30  1  0.04846760  0.78966572  0.36200104  1
  O  O31  1  0.54846760  0.21033428  0.13799896  1
  O  O32  1  0.81033724  0.42598435  0.60370013  1
  O  O33  1  0.31033724  0.57401565  0.89629987  1
  O  O34  1  0.18966276  0.57401565  0.39629987  1
  O  O35  1  0.68966276  0.42598435  0.10370013  1
