# generated using pymatgen
data_NaScTa3SiP5O24
_symmetry_space_group_name_H-M   'P 1'
_cell_length_a   8.78955049
_cell_length_b   8.79100860
_cell_length_c   22.84252052
_cell_angle_alpha   89.76562302
_cell_angle_beta   90.12553776
_cell_angle_gamma   119.98796915
_symmetry_Int_Tables_number   1
_chemical_formula_structural   NaScTa3SiP5O24
_chemical_formula_sum   'Na3 Sc3 Ta9 Si3 P15 O72'
_cell_volume   1528.72378504
_cell_formula_units_Z   3
loop_
 _symmetry_equiv_pos_site_id
 _symmetry_equiv_pos_as_xyz
  1  'x, y, z'
loop_
 _atom_site_type_symbol
 _atom_site_label
 _atom_site_symmetry_multiplicity
 _atom_site_fract_x
 _atom_site_fract_y
 _atom_site_fract_z
 _atom_site_occupancy
  Na  Na0  1  0.00051710  0.99993880  0.99474051  1
  Na  Na1  1  0.66470079  0.33251886  0.83727987  1
  Na  Na2  1  0.66744818  0.33391114  0.33669801  1
  Sc  Sc3  1  0.00541821  0.00329619  0.85423320  1
  Sc  Sc4  1  0.66599426  0.33302423  0.97774920  1
  Sc  Sc5  1  0.66710417  0.33403592  0.47980435  1
  Ta  Ta6  1  0.99425576  0.99796074  0.35796099  1
  Ta  Ta7  1  0.00277209  0.00400264  0.64557658  1
  Ta  Ta8  1  0.99745324  0.00159770  0.14644756  1
  Ta  Ta9  1  0.66543794  0.33384088  0.68743845  1
  Ta  Ta10  1  0.66862035  0.33572033  0.18770678  1
  Ta  Ta11  1  0.33342573  0.66656875  0.02173732  1
  Ta  Ta12  1  0.33302738  0.66624360  0.52353380  1
  Ta  Ta13  1  0.33276735  0.66497143  0.30881892  1
  Ta  Ta14  1  0.33350561  0.66528688  0.80964889  1
  Si  Si15  1  0.71517357  0.71353417  0.25084626  1
  Si  Si16  1  0.99796328  0.28428623  0.25061211  1
  Si  Si17  1  0.28722263  0.28684076  0.75091600  1
  P  P18  1  0.28441569  0.00162666  0.25085907  1
  P  P19  1  0.99921460  0.71318867  0.75023993  1
  P  P20  1  0.71403782  0.00074056  0.75008196  1
  P  P21  1  0.95311317  0.33181905  0.58270064  1
  P  P22  1  0.37828052  0.04604877  0.58276430  1
  P  P23  1  0.66909397  0.62259142  0.58260437  1
  P  P24  1  0.95527102  0.62249617  0.08223972  1
  P  P25  1  0.66612936  0.04540584  0.08252730  1
  P  P26  1  0.37832449  0.33243945  0.08230437  1
  P  P27  1  0.62081147  0.66780765  0.91655442  1
  P  P28  1  0.04648792  0.37988049  0.91658975  1
  P  P29  1  0.33288038  0.95326253  0.91633885  1
  P  P30  1  0.61639010  0.95265706  0.41644600  1
  P  P31  1  0.33464764  0.38177614  0.41643200  1
  P  P32  1  0.04803832  0.66576456  0.41629462  1
  O  O33  1  0.20179314  0.03321617  0.30522218  1
  O  O34  1  0.83929983  0.80381453  0.30773947  1
  O  O35  1  0.96879813  0.16174949  0.30761321  1
  O  O36  1  0.21130266  0.16878815  0.80770394  1
  O  O37  1  0.95774264  0.78225173  0.80445167  1
  O  O38  1  0.82345632  0.03809552  0.80453942  1
  O  O39  1  0.79768713  0.97070766  0.69473857  1
  O  O40  1  0.16689105  0.19446865  0.69253620  1
  O  O41  1  0.02583316  0.82599517  0.69476008  1
  O  O42  1  0.80670910  0.83351873  0.19313285  1
  O  O43  1  0.03139436  0.19638001  0.19303969  1
  O  O44  1  0.17218294  0.97090703  0.19538489  1
  O  O45  1  0.87006555  0.36392341  0.63758266  1
  O  O46  1  0.49585670  0.13162025  0.63749402  1
  O  O47  1  0.63655893  0.50398723  0.63738730  1
  O  O48  1  0.86689651  0.50607481  0.13812389  1
  O  O49  1  0.63895199  0.13144621  0.13823331  1
  O  O50  1  0.49243480  0.35996454  0.13820355  1
  O  O51  1  0.45538676  0.29784672  0.02897027  1
  O  O52  1  0.84233396  0.54581218  0.02906918  1
  O  O53  1  0.70340841  0.15773460  0.02892978  1
  O  O54  1  0.45434833  0.15644363  0.52867714  1
  O  O55  1  0.70089822  0.54469233  0.52869684  1
  O  O56  1  0.84372749  0.29921259  0.52848373  1
  O  O57  1  0.52381533  0.68755437  0.97177971  1
  O  O58  1  0.16392535  0.47589410  0.97179723  1
  O  O59  1  0.31290112  0.83603285  0.97189379  1
  O  O60  1  0.52981552  0.83506212  0.47139209  1
  O  O61  1  0.30512997  0.46978361  0.47110743  1
  O  O62  1  0.16501398  0.69401594  0.47131431  1
  O  O63  1  0.14092095  0.64446749  0.36202790  1
  O  O64  1  0.50299577  0.86064980  0.36200463  1
  O  O65  1  0.35681336  0.49835248  0.36208840  1
  O  O66  1  0.14124907  0.49844622  0.86210416  1
  O  O67  1  0.35626170  0.86015783  0.86203380  1
  O  O68  1  0.50272432  0.64494468  0.86200040  1
  O  O69  1  0.03676647  0.83510183  0.40741562  1
  O  O70  1  0.79877685  0.96532289  0.40812252  1
  O  O71  1  0.16803399  0.19990438  0.40687953  1
  O  O72  1  0.03333372  0.20140032  0.91381748  1
  O  O73  1  0.16526544  0.96291840  0.91442984  1
  O  O74  1  0.79829322  0.83341398  0.91331430  1
  O  O75  1  0.97735156  0.17190230  0.59487721  1
  O  O76  1  0.19276197  0.01702211  0.59561280  1
  O  O77  1  0.82519154  0.80587641  0.59607450  1
  O  O78  1  0.98275644  0.80942901  0.09369854  1
  O  O79  1  0.82891285  0.02017690  0.09286967  1
  O  O80  1  0.19230630  0.17006218  0.09310741  1
  O  O81  1  0.68952048  0.16284388  0.73761313  1
  O  O82  1  0.48489043  0.31499105  0.73787599  1
  O  O83  1  0.84049032  0.52453741  0.73766495  1
  O  O84  1  0.68825719  0.51738484  0.24061662  1
  O  O85  1  0.82476330  0.30459366  0.24059508  1
  O  O86  1  0.46972958  0.16332021  0.24079186  1
  O  O87  1  0.63117400  0.50023372  0.92120050  1
  O  O88  1  0.86835218  0.36903044  0.92118451  1
  O  O89  1  0.49928268  0.13168790  0.92150376  1
  O  O90  1  0.64056987  0.13476470  0.42130604  1
  O  O91  1  0.49525649  0.36139048  0.42111516  1
  O  O92  1  0.86643835  0.50642798  0.42130219  1
  O  O93  1  0.35638996  0.49587818  0.07461255  1
  O  O94  1  0.13975075  0.64221532  0.07480381  1
  O  O95  1  0.50379205  0.85959824  0.07475620  1
  O  O96  1  0.35724220  0.86003786  0.57353124  1
  O  O97  1  0.50307822  0.64218572  0.57335548  1
  O  O98  1  0.13991282  0.49555375  0.57334446  1
  O  O99  1  0.30664218  0.84034358  0.26078315  1
  O  O100  1  0.52430629  0.69454610  0.26150152  1
  O  O101  1  0.16569393  0.47797362  0.26139467  1
  O  O102  1  0.31232497  0.48272523  0.75941606  1
  O  O103  1  0.16290309  0.69234040  0.75861259  1
  O  O104  1  0.52735371  0.84043391  0.75858127  1
