# generated using pymatgen
data_Na6Al2Ga2Si3(SO8)3
_symmetry_space_group_name_H-M   'P 1'
_cell_length_a   8.85403123
_cell_length_b   8.72270020
_cell_length_c   21.80761173
_cell_angle_alpha   90.76647311
_cell_angle_beta   89.72686374
_cell_angle_gamma   120.23299635
_symmetry_Int_Tables_number   1
_chemical_formula_structural   Na6Al2Ga2Si3(SO8)3
_chemical_formula_sum   'Na18 Al6 Ga6 Si9 S9 O72'
_cell_volume   1455.01108260
_cell_formula_units_Z   3
loop_
 _symmetry_equiv_pos_site_id
 _symmetry_equiv_pos_as_xyz
  1  'x, y, z'
loop_
 _atom_site_type_symbol
 _atom_site_label
 _atom_site_symmetry_multiplicity
 _atom_site_fract_x
 _atom_site_fract_y
 _atom_site_fract_z
 _atom_site_occupancy
  Na  Na0  1  0.63060512  0.00492341  0.25729702  1
  Na  Na1  1  0.35778753  0.35977595  0.25345815  1
  Na  Na2  1  0.64117957  0.64293846  0.74150480  1
  Na  Na3  1  0.99077810  0.36606148  0.74722849  1
  Na  Na4  1  0.02287371  0.68974654  0.58872633  1
  Na  Na5  1  0.67520617  0.96812252  0.58254725  1
  Na  Na6  1  0.30935391  0.96901518  0.09228026  1
  Na  Na7  1  0.02750987  0.32719774  0.08267965  1
  Na  Na8  1  0.97005095  0.66337733  0.90399170  1
  Na  Na9  1  0.71086856  0.04006617  0.91086219  1
  Na  Na10  1  0.95802559  0.29096538  0.41948893  1
  Na  Na11  1  0.34065572  0.03346354  0.41425360  1
  Na  Na12  1  0.98451649  0.99458840  0.50344562  1
  Na  Na13  1  0.99655195  0.00872690  0.99845917  1
  Na  Na14  1  0.65987459  0.32509249  0.82718610  1
  Na  Na15  1  0.67555752  0.33878519  0.33493460  1
  Na  Na16  1  0.33234314  0.67102481  0.16965951  1
  Na  Na17  1  0.33280341  0.66662875  0.66517279  1
  Al  Al18  1  0.99632291  0.02379468  0.84349547  1
  Al  Al19  1  0.99071849  0.00637398  0.15314894  1
  Al  Al20  1  0.68654845  0.32661693  0.98141403  1
  Al  Al21  1  0.34308686  0.66263570  0.01570171  1
  Al  Al22  1  0.35430798  0.66026425  0.52408240  1
  Al  Al23  1  0.31407356  0.66909452  0.80856869  1
  Ga  Ga24  1  0.98835581  0.00553488  0.34934353  1
  Ga  Ga25  1  0.97083347  0.98168277  0.64851612  1
  Ga  Ga26  1  0.69621416  0.35210435  0.68465043  1
  Ga  Ga27  1  0.66044973  0.30480466  0.18902702  1
  Ga  Ga28  1  0.67937336  0.32095061  0.48929954  1
  Ga  Ga29  1  0.31814433  0.68363442  0.31238368  1
  Si  Si30  1  0.27535217  0.99719890  0.24769442  1
  Si  Si31  1  0.00434781  0.30189698  0.24970330  1
  Si  Si32  1  0.00647859  0.72516317  0.75226891  1
  Si  Si33  1  0.69144677  0.99630361  0.75163411  1
  Si  Si34  1  0.97824582  0.33630508  0.58274928  1
  Si  Si35  1  0.65968799  0.61088641  0.58385744  1
  Si  Si36  1  0.66494231  0.02621738  0.08142664  1
  Si  Si37  1  0.05346074  0.37828856  0.91729769  1
  Si  Si38  1  0.62205395  0.95025769  0.41771505  1
  S  S39  1  0.71533516  0.70796451  0.24740779  1
  S  S40  1  0.28812386  0.28827100  0.75230575  1
  S  S41  1  0.37414069  0.04266640  0.58213799  1
  S  S42  1  0.95157940  0.62384637  0.08200206  1
  S  S43  1  0.38716795  0.34016362  0.08081676  1
  S  S44  1  0.61936249  0.65488965  0.91865807  1
  S  S45  1  0.33727367  0.96040692  0.91977850  1
  S  S46  1  0.33844793  0.38194244  0.41593972  1
  S  S47  1  0.03920910  0.66775640  0.41745065  1
  O  O48  1  0.19181786  0.03015486  0.31032856  1
  O  O49  1  0.81648288  0.78000424  0.30434002  1
  O  O50  1  0.95345131  0.17355749  0.30935149  1
  O  O51  1  0.20365232  0.18259751  0.80816175  1
  O  O52  1  0.97958798  0.82231916  0.81395915  1
  O  O53  1  0.82476554  0.04501439  0.81090331  1
  O  O54  1  0.77052866  0.94843044  0.69150482  1
  O  O55  1  0.17806816  0.21332945  0.69782653  1
  O  O56  1  0.03666777  0.83737684  0.69011337  1
  O  O57  1  0.80016104  0.82521204  0.19413978  1
  O  O58  1  0.03860574  0.21306437  0.18821819  1
  O  O59  1  0.16116098  0.97521564  0.18588680  1
  O  O60  1  0.89650333  0.38523532  0.64264851  1
  O  O61  1  0.49173143  0.12628644  0.63480175  1
  O  O62  1  0.62802389  0.49899410  0.64688006  1
  O  O63  1  0.86801212  0.51109670  0.13522502  1
  O  O64  1  0.61309025  0.10683474  0.14130216  1
  O  O65  1  0.48335420  0.36674583  0.13874436  1
  O  O66  1  0.48056585  0.31686787  0.02827175  1
  O  O67  1  0.84757988  0.54116776  0.02492833  1
  O  O68  1  0.70553441  0.16121849  0.02358679  1
  O  O69  1  0.44876391  0.14154919  0.52382434  1
  O  O70  1  0.69746750  0.51947143  0.52452382  1
  O  O71  1  0.84682221  0.27818622  0.52268707  1
  O  O72  1  0.53552369  0.69036968  0.97237348  1
  O  O73  1  0.16478975  0.47118021  0.98038225  1
  O  O74  1  0.30935359  0.84784692  0.97486561  1
  O  O75  1  0.51899135  0.83433343  0.47679633  1
  O  O76  1  0.30980666  0.46961714  0.46944626  1
  O  O77  1  0.14855692  0.69366191  0.47145130  1
  O  O78  1  0.11452046  0.63029450  0.36119698  1
  O  O79  1  0.50364324  0.87074836  0.35435184  1
  O  O80  1  0.35630228  0.47910228  0.35874548  1
  O  O81  1  0.14661120  0.51184949  0.86017315  1
  O  O82  1  0.37285370  0.88094709  0.86530483  1
  O  O83  1  0.51964803  0.63058402  0.86285581  1
  O  O84  1  0.03111369  0.83257872  0.41118266  1
  O  O85  1  0.82057325  0.97709141  0.41207913  1
  O  O86  1  0.17496636  0.20060566  0.41483036  1
  O  O87  1  0.02127242  0.17487056  0.90983801  1
  O  O88  1  0.18059176  0.97605040  0.91474519  1
  O  O89  1  0.79818610  0.81556202  0.91700605  1
  O  O90  1  0.99138889  0.15907845  0.59285593  1
  O  O91  1  0.20066103  0.02291791  0.58737476  1
  O  O92  1  0.84026624  0.80773564  0.58548796  1
  O  O93  1  0.97574773  0.80410161  0.08603567  1
  O  O94  1  0.84542203  0.01793150  0.09186088  1
  O  O95  1  0.20949732  0.17626639  0.08194672  1
  O  O96  1  0.67860408  0.17490288  0.74248422  1
  O  O97  1  0.46136021  0.30715248  0.74931550  1
  O  O98  1  0.82511537  0.52806413  0.75124700  1
  O  O99  1  0.69084130  0.52902974  0.23856289  1
  O  O100  1  0.83055921  0.32086488  0.24319697  1
  O  O101  1  0.47292974  0.18068747  0.24532850  1
  O  O102  1  0.63970666  0.49665307  0.92773789  1
  O  O103  1  0.85321910  0.35922057  0.92327554  1
  O  O104  1  0.49775705  0.14016255  0.92707362  1
  O  O105  1  0.64246544  0.15351408  0.42164389  1
  O  O106  1  0.49021129  0.35699562  0.42077693  1
  O  O107  1  0.86316071  0.50863766  0.42043354  1
  O  O108  1  0.35945139  0.49470718  0.07536725  1
  O  O109  1  0.13010494  0.64249611  0.07730956  1
  O  O110  1  0.48228240  0.83519269  0.07069818  1
  O  O111  1  0.35336700  0.86070063  0.57654222  1
  O  O112  1  0.49867941  0.65061126  0.57900339  1
  O  O113  1  0.15953292  0.52018892  0.56934137  1
  O  O114  1  0.31545786  0.83400350  0.24996176  1
  O  O115  1  0.54042697  0.69175113  0.25115943  1
  O  O116  1  0.18996768  0.48848115  0.25773525  1
  O  O117  1  0.30916569  0.47059935  0.76013652  1
  O  O118  1  0.16700282  0.68384382  0.75678446  1
  O  O119  1  0.50901640  0.81316622  0.76588791  1
