# generated using pymatgen
data_Na14Nb2In6Si9(SO16)3
_symmetry_space_group_name_H-M   'P 1'
_cell_length_a   18.47983273
_cell_length_b   9.24456193
_cell_length_c   22.78846423
_cell_angle_alpha   89.96313513
_cell_angle_beta   89.83608200
_cell_angle_gamma   119.97861346
_symmetry_Int_Tables_number   1
_chemical_formula_structural   Na14Nb2In6Si9(SO16)3
_chemical_formula_sum   'Na42 Nb6 In18 Si27 S9 O144'
_cell_volume   3372.25644083
_cell_formula_units_Z   3
loop_
 _symmetry_equiv_pos_site_id
 _symmetry_equiv_pos_as_xyz
  1  'x, y, z'
loop_
 _atom_site_type_symbol
 _atom_site_label
 _atom_site_symmetry_multiplicity
 _atom_site_fract_x
 _atom_site_fract_y
 _atom_site_fract_z
 _atom_site_occupancy
  Na  Na0  1  0.81465739  0.00512733  0.24497693  1
  Na  Na1  1  0.68863365  0.37053896  0.24480990  1
  Na  Na2  1  0.50143937  0.62255913  0.24654291  1
  Na  Na3  1  0.31384928  0.62269327  0.74485476  1
  Na  Na4  1  0.99521318  0.36819480  0.74788620  1
  Na  Na5  1  0.18696519  0.00654079  0.74407123  1
  Na  Na6  1  0.15173575  0.33707014  0.58453526  1
  Na  Na7  1  0.65636692  0.34272091  0.58774467  1
  Na  Na8  1  0.01742666  0.69438172  0.58532877  1
  Na  Na9  1  0.51538295  0.68653710  0.58373329  1
  Na  Na10  1  0.32611749  0.97079933  0.58676147  1
  Na  Na11  1  0.83152236  0.97102831  0.58838126  1
  Na  Na12  1  0.15479189  0.96817182  0.08483841  1
  Na  Na13  1  0.65580116  0.96400212  0.08058462  1
  Na  Na14  1  0.32997572  0.68885551  0.08445129  1
  Na  Na15  1  0.82785709  0.68662952  0.08402916  1
  Na  Na16  1  0.01529204  0.34439280  0.08113155  1
  Na  Na17  1  0.51787788  0.34712165  0.08006550  1
  Na  Na18  1  0.48788083  0.66945538  0.91653780  1
  Na  Na19  1  0.98118574  0.65384022  0.91162359  1
  Na  Na20  1  0.35793463  0.04921812  0.91368403  1
  Na  Na21  1  0.85414402  0.04980794  0.91406707  1
  Na  Na22  1  0.16068673  0.29836355  0.91671348  1
  Na  Na23  1  0.66403546  0.29242126  0.92108656  1
  Na  Na24  1  0.48134748  0.31078605  0.41571235  1
  Na  Na25  1  0.98585106  0.30233331  0.42059820  1
  Na  Na26  1  0.16325120  0.03637817  0.42475295  1
  Na  Na27  1  0.66263417  0.02314322  0.42028190  1
  Na  Na28  1  0.35214738  0.65416736  0.42208401  1
  Na  Na29  1  0.85687918  0.66629952  0.41644007  1
  Na  Na30  1  0.00439110  0.00180347  0.50363141  1
  Na  Na31  1  0.50188338  0.99259720  0.50311119  1
  Na  Na32  1  0.00113497  0.01154368  0.99830825  1
  Na  Na33  1  0.50421796  0.00714692  0.99573627  1
  Na  Na34  1  0.34225484  0.33471073  0.82281082  1
  Na  Na35  1  0.83581568  0.32762704  0.82777713  1
  Na  Na36  1  0.33480889  0.33271765  0.33297780  1
  Na  Na37  1  0.84247895  0.35001652  0.32410961  1
  Na  Na38  1  0.16525305  0.66544328  0.16129092  1
  Na  Na39  1  0.66693395  0.66619615  0.16487019  1
  Na  Na40  1  0.16500501  0.66623816  0.66606190  1
  Na  Na41  1  0.66845327  0.66889671  0.66447614  1
  Nb  Nb42  1  0.99800510  0.99667737  0.65014109  1
  Nb  Nb43  1  0.49560239  0.98990490  0.64715485  1
  Nb  Nb44  1  0.99531644  0.00180744  0.14622425  1
  Nb  Nb45  1  0.50707250  0.01467409  0.14510286  1
  Nb  Nb46  1  0.15659763  0.64394679  0.31350385  1
  Nb  Nb47  1  0.66107773  0.68094322  0.81030719  1
  In  In48  1  0.00203615  0.99947300  0.34767457  1
  In  In49  1  0.50152903  0.99831728  0.34531076  1
  In  In50  1  0.99895109  0.00870347  0.84176120  1
  In  In51  1  0.50263247  0.00639563  0.84706563  1
  In  In52  1  0.33623472  0.33210453  0.68414195  1
  In  In53  1  0.83450304  0.33732310  0.68343903  1
  In  In54  1  0.33420738  0.32089173  0.18012255  1
  In  In55  1  0.83724775  0.34059608  0.18435008  1
  In  In56  1  0.33993577  0.33631992  0.99054816  1
  In  In57  1  0.83603867  0.32801537  0.98577077  1
  In  In58  1  0.33554558  0.34324882  0.48850313  1
  In  In59  1  0.83868852  0.34139155  0.49421029  1
  In  In60  1  0.16229943  0.65384633  0.01948907  1
  In  In61  1  0.66174363  0.66403487  0.01774136  1
  In  In62  1  0.16159859  0.65946033  0.51974889  1
  In  In63  1  0.66266804  0.67150458  0.52052054  1
  In  In64  1  0.66145773  0.66236852  0.30824766  1
  In  In65  1  0.16030465  0.65897797  0.80757800  1
  Si  Si66  1  0.64892791  0.00426415  0.25021127  1
  Si  Si67  1  0.85372625  0.70558507  0.25319692  1
  Si  Si68  1  0.99907796  0.28932366  0.25128756  1
  Si  Si69  1  0.49397748  0.28722301  0.25238587  1
  Si  Si70  1  0.14928495  0.29314622  0.75031245  1
  Si  Si71  1  0.99583512  0.70358475  0.75283631  1
  Si  Si72  1  0.49771904  0.70753957  0.75170773  1
  Si  Si73  1  0.35325214  0.00120296  0.75344113  1
  Si  Si74  1  0.84918693  0.99822647  0.75096831  1
  Si  Si75  1  0.48039204  0.32900000  0.58212020  1
  Si  Si76  1  0.98195115  0.32853287  0.58451196  1
  Si  Si77  1  0.18487670  0.03872708  0.58297361  1
  Si  Si78  1  0.68617229  0.04319473  0.58320281  1
  Si  Si79  1  0.33219871  0.62962827  0.58422654  1
  Si  Si80  1  0.83321973  0.63239443  0.58234340  1
  Si  Si81  1  0.48117690  0.63381493  0.08590973  1
  Si  Si82  1  0.98026959  0.63095427  0.08250580  1
  Si  Si83  1  0.33261811  0.03021897  0.08220839  1
  Si  Si84  1  0.83125488  0.03506962  0.08446482  1
  Si  Si85  1  0.18791210  0.33049324  0.08457285  1
  Si  Si86  1  0.68935686  0.33868936  0.08259797  1
  Si  Si87  1  0.01852637  0.36747385  0.91624868  1
  Si  Si88  1  0.51951111  0.37226240  0.91593609  1
  Si  Si89  1  0.66626287  0.96566970  0.91731255  1
  Si  Si90  1  0.16644039  0.36746657  0.41707469  1
  Si  Si91  1  0.01676765  0.66573309  0.41767378  1
  Si  Si92  1  0.51768861  0.66753419  0.41524191  1
  S  S93  1  0.14947669  0.99737867  0.25023700  1
  S  S94  1  0.34943044  0.70425997  0.25017542  1
  S  S95  1  0.64752182  0.29996408  0.74993714  1
  S  S96  1  0.31344153  0.66420972  0.91687719  1
  S  S97  1  0.81226609  0.66747092  0.91544235  1
  S  S98  1  0.16791209  0.96434941  0.91698356  1
  S  S99  1  0.31209247  0.95518185  0.41380009  1
  S  S100  1  0.81331066  0.96242046  0.41658067  1
  S  S101  1  0.66761045  0.37130199  0.41668200  1
  O  O102  1  0.11241321  0.01959119  0.30503874  1
  O  O103  1  0.61082939  0.03717772  0.30985152  1
  O  O104  1  0.39938094  0.77740041  0.30465015  1
  O  O105  1  0.90570638  0.78624448  0.31269469  1
  O  O106  1  0.48155671  0.18244501  0.31267090  1
  O  O107  1  0.98826633  0.18775831  0.31112674  1
  O  O108  1  0.11396977  0.18613563  0.81105268  1
  O  O109  1  0.61198511  0.20305637  0.80477796  1
  O  O110  1  0.48624383  0.78791616  0.81128647  1
  O  O111  1  0.98674368  0.78450114  0.81414926  1
  O  O112  1  0.40515732  0.02465702  0.81311522  1
  O  O113  1  0.90167334  0.03260594  0.81150187  1
  O  O114  1  0.40729386  0.97933600  0.69658321  1
  O  O115  1  0.89916801  0.97254421  0.69397172  1
  O  O116  1  0.08327921  0.18750300  0.69517700  1
  O  O117  1  0.59370838  0.21460841  0.69790619  1
  O  O118  1  0.00713437  0.82984052  0.69599871  1
  O  O119  1  0.51387389  0.83270785  0.69405451  1
  O  O120  1  0.39134854  0.80982440  0.19778922  1
  O  O121  1  0.90743797  0.83619224  0.19655036  1
  O  O122  1  0.01522203  0.19748496  0.19390143  1
  O  O123  1  0.50448721  0.18074678  0.19582623  1
  O  O124  1  0.09605139  0.97143633  0.19817883  1
  O  O125  1  0.58297164  0.98004602  0.19481266  1
  O  O126  1  0.44022555  0.37806195  0.63549878  1
  O  O127  1  0.94148225  0.36955232  0.64019793  1
  O  O128  1  0.24366257  0.11718928  0.63997352  1
  O  O129  1  0.74846041  0.12927295  0.63702773  1
  O  O130  1  0.31427779  0.51509561  0.64142276  1
  O  O131  1  0.80928674  0.50169925  0.63565611  1
  O  O132  1  0.44171392  0.51838481  0.14367738  1
  O  O133  1  0.94160323  0.50408305  0.13676070  1
  O  O134  1  0.30738711  0.10466512  0.13731943  1
  O  O135  1  0.81303441  0.11117598  0.14242007  1
  O  O136  1  0.24934764  0.37077570  0.13990762  1
  O  O137  1  0.74272723  0.36879352  0.14148884  1
  O  O138  1  0.22140066  0.28556998  0.02359760  1
  O  O139  1  0.72157228  0.28777553  0.02346532  1
  O  O140  1  0.42388297  0.56955146  0.02622686  1
  O  O141  1  0.92279497  0.57021779  0.02291228  1
  O  O142  1  0.36024927  0.14673446  0.02269242  1
  O  O143  1  0.85953039  0.15015566  0.02556947  1
  O  O144  1  0.22043926  0.15336522  0.52236953  1
  O  O145  1  0.71813323  0.15135931  0.52091009  1
  O  O146  1  0.36032657  0.57258930  0.52431365  1
  O  O147  1  0.85759680  0.57210042  0.52038159  1
  O  O148  1  0.42412342  0.27641536  0.52131437  1
  O  O149  1  0.92604368  0.28021829  0.52346574  1
  O  O150  1  0.27518364  0.69215191  0.97067234  1
  O  O151  1  0.77661237  0.69372475  0.97090625  1
  O  O152  1  0.07720274  0.44414036  0.97500351  1
  O  O153  1  0.57474858  0.44491636  0.97550919  1
  O  O154  1  0.15802507  0.86330517  0.97093109  1
  O  O155  1  0.64940964  0.85077203  0.97522054  1
  O  O156  1  0.27658348  0.85762830  0.46888352  1
  O  O157  1  0.77451570  0.85696120  0.46938433  1
  O  O158  1  0.15045939  0.45367761  0.47325442  1
  O  O159  1  0.65687093  0.45232369  0.46954058  1
  O  O160  1  0.07772613  0.70582536  0.47317713  1
  O  O161  1  0.57813072  0.71184511  0.47268091  1
  O  O162  1  0.07313335  0.64451732  0.36029427  1
  O  O163  1  0.55993017  0.63250590  0.35716114  1
  O  O164  1  0.25787250  0.86476542  0.36250616  1
  O  O165  1  0.76221967  0.88100056  0.36300264  1
  O  O166  1  0.17711727  0.50178234  0.36011162  1
  O  O167  1  0.68008415  0.47501334  0.36295282  1
  O  O168  1  0.06180081  0.48976678  0.85931510  1
  O  O169  1  0.57561795  0.50416772  0.86100190  1
  O  O170  1  0.18134659  0.88568139  0.86429758  1
  O  O171  1  0.67732847  0.85679987  0.86076664  1
  O  O172  1  0.26247077  0.64422984  0.86419040  1
  O  O173  1  0.75833423  0.64916924  0.86469458  1
  O  O174  1  0.00930367  0.83344416  0.41039987  1
  O  O175  1  0.50481828  0.83523255  0.41111293  1
  O  O176  1  0.39715429  0.97312347  0.40893825  1
  O  O177  1  0.89831127  0.98220198  0.41326883  1
  O  O178  1  0.08217669  0.18538706  0.40993602  1
  O  O179  1  0.58921360  0.20389326  0.41355976  1
  O  O180  1  0.00840819  0.17740130  0.91355890  1
  O  O181  1  0.50915408  0.18538671  0.91079515  1
  O  O182  1  0.09035824  0.97585652  0.91408858  1
  O  O183  1  0.58149769  0.97890988  0.91075369  1
  O  O184  1  0.39861913  0.81391665  0.91412322  1
  O  O185  1  0.89799479  0.81715467  0.91150933  1
  O  O186  1  0.49096467  0.16119291  0.59477901  1
  O  O187  1  0.98997805  0.15783604  0.59209404  1
  O  O188  1  0.09022988  0.01900429  0.59180144  1
  O  O189  1  0.59185485  0.02664615  0.59338621  1
  O  O190  1  0.41978567  0.82030220  0.59314327  1
  O  O191  1  0.91853738  0.81818956  0.59224803  1
  O  O192  1  0.48839961  0.82063500  0.09538293  1
  O  O193  1  0.99140645  0.82111971  0.09568522  1
  O  O194  1  0.41744194  0.01323456  0.09490612  1
  O  O195  1  0.91925382  0.01931229  0.09331681  1
  O  O196  1  0.09340302  0.15845877  0.09482155  1
  O  O197  1  0.59223822  0.16532426  0.09138577  1
  O  O198  1  0.33760272  0.15676984  0.74698997  1
  O  O199  1  0.84102635  0.16326574  0.74398741  1
  O  O200  1  0.24117018  0.31332511  0.74502041  1
  O  O201  1  0.73124218  0.31802598  0.74407964  1
  O  O202  1  0.41520428  0.52901464  0.74518009  1
  O  O203  1  0.91714961  0.51518649  0.74771016  1
  O  O204  1  0.34105431  0.53738316  0.24544745  1
  O  O205  1  0.83756618  0.51823588  0.24697088  1
  O  O206  1  0.41594240  0.32318521  0.24749353  1
  O  O207  1  0.91675648  0.30449759  0.24552142  1
  O  O208  1  0.23278112  0.14768565  0.24504430  1
  O  O209  1  0.74036958  0.16824653  0.24533984  1
  O  O210  1  0.31917196  0.50944955  0.92152734  1
  O  O211  1  0.81808109  0.51284265  0.91819052  1
  O  O212  1  0.42755285  0.36449966  0.91680590  1
  O  O213  1  0.92675512  0.35752869  0.92003385  1
  O  O214  1  0.24309020  0.13474168  0.92091410  1
  O  O215  1  0.75147280  0.14740940  0.91596096  1
  O  O216  1  0.31878556  0.12119008  0.41591326  1
  O  O217  1  0.81923348  0.12845065  0.42078518  1
  O  O218  1  0.25199305  0.35773068  0.41462538  1
  O  O219  1  0.74193018  0.35009241  0.42005281  1
  O  O220  1  0.42571725  0.49492635  0.41973406  1
  O  O221  1  0.92688583  0.49059026  0.41677631  1
  O  O222  1  0.17413424  0.49241458  0.08133760  1
  O  O223  1  0.67349346  0.49630714  0.07825042  1
  O  O224  1  0.07654775  0.66592644  0.07802559  1
  O  O225  1  0.57469733  0.65881980  0.08181326  1
  O  O226  1  0.25274576  0.84193704  0.07482018  1
  O  O227  1  0.75420343  0.84436464  0.07787112  1
  O  O228  1  0.17396359  0.85201240  0.57772860  1
  O  O229  1  0.67256440  0.85385731  0.58065722  1
  O  O230  1  0.25507625  0.66552883  0.57744477  1
  O  O231  1  0.75233167  0.65975259  0.57535609  1
  O  O232  1  0.07560224  0.49142986  0.58142239  1
  O  O233  1  0.57607357  0.48727214  0.57749885  1
  O  O234  1  0.15770678  0.84322300  0.25652256  1
  O  O235  1  0.65085446  0.82922407  0.24825178  1
  O  O236  1  0.26612295  0.69433249  0.25624039  1
  O  O237  1  0.76338342  0.70359525  0.25260729  1
  O  O238  1  0.08760140  0.48186628  0.25709067  1
  O  O239  1  0.58424320  0.46370892  0.24890902  1
  O  O240  1  0.15203100  0.47299512  0.74853496  1
  O  O241  1  0.65342604  0.46671208  0.75511559  1
  O  O242  1  0.08602554  0.70622483  0.74847532  1
  O  O243  1  0.58558170  0.69401027  0.75648183  1
  O  O244  1  0.26364479  0.82244593  0.75280994  1
  O  O245  1  0.75752263  0.81843295  0.75862276  1
