# generated using pymatgen
data_Na6TiZn3Si2(SO6)4
_symmetry_space_group_name_H-M   'P 1'
_cell_length_a   9.00925650
_cell_length_b   9.00359437
_cell_length_c   22.08263595
_cell_angle_alpha   89.40748660
_cell_angle_beta   89.86933039
_cell_angle_gamma   119.66830192
_symmetry_Int_Tables_number   1
_chemical_formula_structural   Na6TiZn3Si2(SO6)4
_chemical_formula_sum   'Na18 Ti3 Zn9 Si6 S12 O72'
_cell_volume   1556.28579646
_cell_formula_units_Z   3
loop_
 _symmetry_equiv_pos_site_id
 _symmetry_equiv_pos_as_xyz
  1  'x, y, z'
loop_
 _atom_site_type_symbol
 _atom_site_label
 _atom_site_symmetry_multiplicity
 _atom_site_fract_x
 _atom_site_fract_y
 _atom_site_fract_z
 _atom_site_occupancy
  Na  Na0  1  0.63208470  0.99693748  0.25628897  1
  Na  Na1  1  0.36924872  0.36683087  0.24458955  1
  Na  Na2  1  0.63951398  0.64327655  0.74101313  1
  Na  Na3  1  0.30796545  0.34115924  0.58913698  1
  Na  Na4  1  0.02982778  0.70298901  0.58397011  1
  Na  Na5  1  0.66614588  0.94841470  0.58412527  1
  Na  Na6  1  0.29487261  0.96610549  0.07783117  1
  Na  Na7  1  0.04905155  0.33867436  0.07692078  1
  Na  Na8  1  0.97970106  0.67405448  0.91531420  1
  Na  Na9  1  0.70863476  0.03416145  0.90661596  1
  Na  Na10  1  0.30906340  0.28940590  0.91630592  1
  Na  Na11  1  0.69773597  0.68315976  0.41953239  1
  Na  Na12  1  0.99034638  0.00148472  0.49622441  1
  Na  Na13  1  0.00638094  0.00754276  0.99749991  1
  Na  Na14  1  0.67232587  0.31238668  0.82488788  1
  Na  Na15  1  0.67679961  0.32506696  0.33358651  1
  Na  Na16  1  0.33639660  0.65762112  0.16292740  1
  Na  Na17  1  0.34423464  0.67288973  0.66881337  1
  Ti  Ti18  1  0.65161885  0.31979419  0.97908758  1
  Ti  Ti19  1  0.66901098  0.33183332  0.48006287  1
  Ti  Ti20  1  0.32705528  0.68417478  0.81620398  1
  Zn  Zn21  1  0.99308573  0.00546239  0.35085538  1
  Zn  Zn22  1  0.00152845  0.02149265  0.84712319  1
  Zn  Zn23  1  0.96849496  0.97675145  0.65543900  1
  Zn  Zn24  1  0.01255078  0.00682824  0.14784417  1
  Zn  Zn25  1  0.66078150  0.32239868  0.68533681  1
  Zn  Zn26  1  0.66377020  0.34692309  0.17789353  1
  Zn  Zn27  1  0.32533602  0.65159992  0.01349534  1
  Zn  Zn28  1  0.35792462  0.67128298  0.51226992  1
  Zn  Zn29  1  0.33873885  0.69039869  0.32692549  1
  Si  Si30  1  0.69517672  0.00020389  0.75094828  1
  Si  Si31  1  0.66593031  0.62187860  0.58528962  1
  Si  Si32  1  0.37148525  0.33985715  0.08623486  1
  Si  Si33  1  0.03626225  0.37308819  0.91938740  1
  Si  Si34  1  0.32760254  0.95696965  0.92133624  1
  Si  Si35  1  0.63842338  0.97209900  0.41620692  1
  S  S36  1  0.29070510  0.99444980  0.25046980  1
  S  S37  1  0.70924200  0.70526190  0.25022341  1
  S  S38  1  0.00069794  0.30077020  0.24837209  1
  S  S39  1  0.29629615  0.30116145  0.74998892  1
  S  S40  1  0.00574677  0.70743227  0.75128759  1
  S  S41  1  0.96107540  0.33785267  0.58156923  1
  S  S42  1  0.37347043  0.04166145  0.58244214  1
  S  S43  1  0.95452767  0.62585428  0.08337958  1
  S  S44  1  0.66775825  0.04170210  0.08506350  1
  S  S45  1  0.62360936  0.66134994  0.91723255  1
  S  S46  1  0.33422022  0.36617185  0.41639652  1
  S  S47  1  0.03614372  0.66215566  0.41880251  1
  O  O48  1  0.20085819  0.01698927  0.30250161  1
  O  O49  1  0.80144692  0.78202516  0.30711755  1
  O  O50  1  0.97216035  0.18753615  0.30152492  1
  O  O51  1  0.21808642  0.19900024  0.80563678  1
  O  O52  1  0.98799117  0.79293088  0.80513187  1
  O  O53  1  0.80143725  0.01326780  0.81150860  1
  O  O54  1  0.76207929  0.94712175  0.68957077  1
  O  O55  1  0.19786776  0.21821238  0.69447491  1
  O  O56  1  0.03470952  0.80793602  0.69398898  1
  O  O57  1  0.79672018  0.81692719  0.19693139  1
  O  O58  1  0.02785039  0.22457997  0.19204778  1
  O  O59  1  0.20093287  0.98137927  0.19250248  1
  O  O60  1  0.88424122  0.36185061  0.63644862  1
  O  O61  1  0.47902836  0.11143163  0.63637866  1
  O  O62  1  0.64079944  0.50531420  0.64479377  1
  O  O63  1  0.87696528  0.51673338  0.13769276  1
  O  O64  1  0.64819461  0.12315294  0.14036602  1
  O  O65  1  0.46958453  0.35130170  0.14843777  1
  O  O66  1  0.48479393  0.31548296  0.02784617  1
  O  O67  1  0.85605635  0.53890748  0.02767969  1
  O  O68  1  0.69066265  0.15490508  0.02961465  1
  O  O69  1  0.46694662  0.15127285  0.52796629  1
  O  O70  1  0.68270630  0.51334755  0.52523467  1
  O  O71  1  0.84618462  0.30984957  0.52786401  1
  O  O72  1  0.55052603  0.69503942  0.97076471  1
  O  O73  1  0.14759933  0.44249426  0.97969165  1
  O  O74  1  0.30587321  0.84843946  0.98186956  1
  O  O75  1  0.55532387  0.85336180  0.47617099  1
  O  O76  1  0.30630310  0.44049792  0.47196549  1
  O  O77  1  0.13181942  0.67680107  0.47468315  1
  O  O78  1  0.11195394  0.63140177  0.36449618  1
  O  O79  1  0.52788091  0.89988705  0.35449008  1
  O  O80  1  0.36327771  0.47657010  0.36175387  1
  O  O81  1  0.14399413  0.51077778  0.86286848  1
  O  O82  1  0.36943070  0.86548994  0.86303076  1
  O  O83  1  0.51676784  0.63206865  0.86227094  1
  O  O84  1  0.01275359  0.81314960  0.41288673  1
  O  O85  1  0.82607989  0.98545125  0.41153475  1
  O  O86  1  0.19187341  0.19187135  0.41029845  1
  O  O87  1  0.00469444  0.18010834  0.91262323  1
  O  O88  1  0.16456016  0.98241344  0.91041293  1
  O  O89  1  0.80096158  0.80403322  0.91034310  1
  O  O90  1  0.98295837  0.18442443  0.58377162  1
  O  O91  1  0.20741090  0.03989823  0.58538605  1
  O  O92  1  0.84260592  0.81003972  0.58233260  1
  O  O93  1  0.96549747  0.79584322  0.08627924  1
  O  O94  1  0.82682342  0.03141796  0.08590246  1
  O  O95  1  0.18508368  0.15843224  0.08278951  1
  O  O96  1  0.67223548  0.16614571  0.74371246  1
  O  O97  1  0.47377294  0.33027991  0.74811407  1
  O  O98  1  0.85071829  0.53759412  0.74781544  1
  O  O99  1  0.68862168  0.53020233  0.24721846  1
  O  O100  1  0.84156692  0.31355771  0.24367212  1
  O  O101  1  0.46776379  0.14937765  0.24940968  1
  O  O102  1  0.63480627  0.49892097  0.92295319  1
  O  O103  1  0.84624191  0.36500615  0.92486352  1
  O  O104  1  0.50768903  0.15030104  0.92475557  1
  O  O105  1  0.65632423  0.16603891  0.42780023  1
  O  O106  1  0.50117023  0.36187918  0.42197245  1
  O  O107  1  0.85591875  0.50681227  0.42294155  1
  O  O108  1  0.34723267  0.50563759  0.08035154  1
  O  O109  1  0.13079205  0.65141382  0.08121288  1
  O  O110  1  0.51316115  0.87488977  0.07953597  1
  O  O111  1  0.34014781  0.86321609  0.57600280  1
  O  O112  1  0.49191585  0.63867499  0.58098493  1
  O  O113  1  0.13091948  0.49423889  0.57303552  1
  O  O114  1  0.31001721  0.83888392  0.25418764  1
  O  O115  1  0.53196905  0.68496284  0.25203052  1
  O  O116  1  0.15807960  0.46974878  0.25537507  1
  O  O117  1  0.31036800  0.47489155  0.75412205  1
  O  O118  1  0.16231466  0.68752459  0.75571448  1
  O  O119  1  0.50396312  0.81544435  0.76092129  1
