# generated using pymatgen
data_Na6MgGe7(PO4)12
_symmetry_space_group_name_H-M   'P 1'
_cell_length_a   16.88144185
_cell_length_b   8.43980429
_cell_length_c   21.75471314
_cell_angle_alpha   90.04116557
_cell_angle_beta   89.94922762
_cell_angle_gamma   119.97874651
_symmetry_Int_Tables_number   1
_chemical_formula_structural   Na6MgGe7(PO4)12
_chemical_formula_sum   'Na18 Mg3 Ge21 P36 O144'
_cell_volume   2684.84169626
_cell_formula_units_Z   3
loop_
 _symmetry_equiv_pos_site_id
 _symmetry_equiv_pos_as_xyz
  1  'x, y, z'
loop_
 _atom_site_type_symbol
 _atom_site_label
 _atom_site_symmetry_multiplicity
 _atom_site_fract_x
 _atom_site_fract_y
 _atom_site_fract_z
 _atom_site_occupancy
  Na  Na0  1  0.68540273  0.36581227  0.24774714  1
  Na  Na1  1  0.99718645  0.62810050  0.24760169  1
  Na  Na2  1  0.99588680  0.36477749  0.74574293  1
  Na  Na3  1  0.49601224  0.36493690  0.74576349  1
  Na  Na4  1  0.18563054  0.00474502  0.74590359  1
  Na  Na5  1  0.68575447  0.00484613  0.74598053  1
  Na  Na6  1  0.99984624  0.99973931  0.50000998  1
  Na  Na7  1  0.49991577  0.99973523  0.49994933  1
  Na  Na8  1  0.99902960  0.99874542  0.00085708  1
  Na  Na9  1  0.50071062  0.00106454  0.00086163  1
  Na  Na10  1  0.33288550  0.34136736  0.83319759  1
  Na  Na11  1  0.83278472  0.34113914  0.83380645  1
  Na  Na12  1  0.33327254  0.33421608  0.33463115  1
  Na  Na13  1  0.83296687  0.32311056  0.33370186  1
  Na  Na14  1  0.16913962  0.66549487  0.16575271  1
  Na  Na15  1  0.66809643  0.67693345  0.16502410  1
  Na  Na16  1  0.17052534  0.66539174  0.66184587  1
  Na  Na17  1  0.67062460  0.66540631  0.66190896  1
  Mg  Mg18  1  0.33286172  0.33830682  0.68387829  1
  Mg  Mg19  1  0.83290447  0.33836001  0.68390823  1
  Mg  Mg20  1  0.83300269  0.32583081  0.18558850  1
  Ge  Ge21  1  0.00183142  0.00335613  0.35555486  1
  Ge  Ge22  1  0.49781070  0.99669978  0.35489387  1
  Ge  Ge23  1  0.99970184  -0.00063903  0.85567601  1
  Ge  Ge24  1  0.50014753  -0.00049319  0.85571411  1
  Ge  Ge25  1  0.99906899  0.99838960  0.64267326  1
  Ge  Ge26  1  0.49903990  0.99842176  0.64267253  1
  Ge  Ge27  1  0.99834108  0.00088042  0.14509363  1
  Ge  Ge28  1  0.50078757  0.99916935  0.14578755  1
  Ge  Ge29  1  0.33329851  0.33548369  0.18639572  1
  Ge  Ge30  1  0.33351021  0.33316211  0.98046966  1
  Ge  Ge31  1  0.83341168  0.33283703  0.98245696  1
  Ge  Ge32  1  0.33345766  0.33402534  0.48180992  1
  Ge  Ge33  1  0.83350067  0.33445269  0.48157233  1
  Ge  Ge34  1  0.16655531  0.66717320  0.02081682  1
  Ge  Ge35  1  0.66742669  0.66649273  0.02040367  1
  Ge  Ge36  1  0.16695373  0.66683217  0.51934306  1
  Ge  Ge37  1  0.66677788  0.66699577  0.51933963  1
  Ge  Ge38  1  0.16997380  0.66556900  0.31436761  1
  Ge  Ge39  1  0.66573779  0.67244964  0.31547914  1
  Ge  Ge40  1  0.16854386  0.66556730  0.81564358  1
  Ge  Ge41  1  0.66886668  0.66597090  0.81576081  1
  P  P42  1  0.14526502  0.00463310  0.24995718  1
  P  P43  1  0.64109776  0.99304451  0.25165252  1
  P  P44  1  0.35705328  0.71389579  0.24957072  1
  P  P45  1  0.85604693  0.72036862  0.25169933  1
  P  P46  1  0.00185060  0.28524137  0.25166017  1
  P  P47  1  0.49741032  0.28540080  0.25032488  1
  P  P48  1  0.14325910  0.28813354  0.75165135  1
  P  P49  1  0.64315791  0.28847809  0.75161451  1
  P  P50  1  0.99888950  0.71493629  0.75187330  1
  P  P51  1  0.49871663  0.71442569  0.75188718  1
  P  P52  1  0.35667293  0.99221404  0.75137580  1
  P  P53  1  0.85666573  0.99222445  0.75122127  1
  P  P54  1  0.47977422  0.33530347  0.58335434  1
  P  P55  1  0.97983495  0.33533085  0.58324147  1
  P  P56  1  0.18799039  0.04066844  0.58345779  1
  P  P57  1  0.68800176  0.04074524  0.58333366  1
  P  P58  1  0.33219814  0.62316309  0.58271593  1
  P  P59  1  0.83220148  0.62344170  0.58238032  1
  P  P60  1  0.47676056  0.62029457  0.08319380  1
  P  P61  1  0.97984368  0.62562894  0.08359640  1
  P  P62  1  0.33363172  0.04687412  0.08352983  1
  P  P63  1  0.83259378  0.04124814  0.08256558  1
  P  P64  1  0.18988610  0.33361001  0.08314080  1
  P  P65  1  0.68727806  0.33351314  0.08367855  1
  P  P66  1  0.31072098  0.66635301  0.91796347  1
  P  P67  1  0.81127026  0.66530733  0.91748763  1
  P  P68  1  0.02201763  0.37811592  0.91737365  1
  P  P69  1  0.52210219  0.37839723  0.91721743  1
  P  P70  1  0.16715342  0.95628609  0.91717692  1
  P  P71  1  0.66705080  0.95587578  0.91750530  1
  P  P72  1  0.31037042  0.95537812  0.41664195  1
  P  P73  1  0.81103242  0.95645996  0.41726128  1
  P  P74  1  0.16757377  0.37866139  0.41722706  1
  P  P75  1  0.66671499  0.37814039  0.41630701  1
  P  P76  1  0.02244165  0.66597698  0.41635890  1
  P  P77  1  0.52180650  0.66517100  0.41723099  1
  O  O78  1  0.10493819  0.03954407  0.30842929  1
  O  O79  1  0.59802597  0.03529060  0.30835758  1
  O  O80  1  0.41532078  0.79178338  0.30803618  1
  O  O81  1  0.91942274  0.80303070  0.30848317  1
  O  O82  1  0.47949250  0.16723925  0.30821449  1
  O  O83  1  0.98514759  0.16732841  0.30946372  1
  O  O84  1  0.10029521  0.16537360  0.80944189  1
  O  O85  1  0.60047435  0.16572916  0.80942743  1
  O  O86  1  0.48389781  0.80021423  0.81026146  1
  O  O87  1  0.98415332  0.80036088  0.81019574  1
  O  O88  1  0.41796300  0.03478662  0.80930009  1
  O  O89  1  0.91791902  0.03520298  0.80907721  1
  O  O90  1  0.39738838  0.95630992  0.69313775  1
  O  O91  1  0.89735547  0.95626364  0.69308761  1
  O  O92  1  0.07990994  0.20879173  0.69438065  1
  O  O93  1  0.57992659  0.20888637  0.69440023  1
  O  O94  1  0.02336902  0.84071127  0.69450907  1
  O  O95  1  0.52333853  0.84087575  0.69452113  1
  O  O96  1  0.39668878  0.83342122  0.19155804  1
  O  O97  1  0.89656000  0.83637287  0.19278404  1
  O  O98  1  0.02195230  0.20632198  0.19288965  1
  O  O99  1  0.52119461  0.20727906  0.19270266  1
  O  O100  1  0.08221424  0.95664227  0.19265200  1
  O  O101  1  0.58154435  0.95541732  0.19279426  1
  O  O102  1  0.44543629  0.37104803  0.64283763  1
  O  O103  1  0.94546042  0.37125652  0.64291877  1
  O  O104  1  0.24041418  0.10837648  0.64288383  1
  O  O105  1  0.74051066  0.10866973  0.64294259  1
  O  O106  1  0.31311327  0.51461246  0.64028503  1
  O  O107  1  0.81299136  0.51437048  0.64036178  1
  O  O108  1  0.43666109  0.50052744  0.14117958  1
  O  O109  1  0.94495978  0.51870440  0.14233192  1
  O  O110  1  0.31403454  0.12814112  0.14137411  1
  O  O111  1  0.81301460  0.11255037  0.13977704  1
  O  O112  1  0.24974424  0.37341114  0.14113436  1
  O  O113  1  0.74080087  0.37170529  0.14245820  1
  O  O114  1  0.23005791  0.29390035  0.02500953  1
  O  O115  1  0.72842882  0.29449597  0.02509388  1
  O  O116  1  0.41679273  0.54008136  0.02513522  1
  O  O117  1  0.91939148  0.54305838  0.02501842  1
  O  O118  1  0.35300816  0.16568566  0.02507774  1
  O  O119  1  0.85271646  0.16033628  0.02328686  1
  O  O120  1  0.22944684  0.16352350  0.52549699  1
  O  O121  1  0.72930986  0.16359576  0.52556066  1
  O  O122  1  0.35274905  0.54397763  0.52368236  1
  O  O123  1  0.85264175  0.54399401  0.52373481  1
  O  O124  1  0.41836827  0.29548896  0.52547972  1
  O  O125  1  0.91845816  0.29557034  0.52556166  1
  O  O126  1  0.26925980  0.70550182  0.97488884  1
  O  O127  1  0.76968507  0.70524494  0.97370804  1
  O  O128  1  0.08431388  0.46224315  0.97349180  1
  O  O129  1  0.58330078  0.46348129  0.97343310  1
  O  O130  1  0.14859428  0.83388695  0.97346654  1
  O  O131  1  0.64700954  0.83136556  0.97347723  1
  O  O132  1  0.26984070  0.83400468  0.47347669  1
  O  O133  1  0.76950803  0.83422586  0.47376382  1
  O  O134  1  0.14750098  0.46062759  0.47386461  1
  O  O135  1  0.64759726  0.46242662  0.47275409  1
  O  O136  1  0.08362203  0.70482858  0.47287671  1
  O  O137  1  0.58292242  0.70527346  0.47378530  1
  O  O138  1  0.06219429  0.62955238  0.35614663  1
  O  O139  1  0.56150096  0.62552025  0.35856974  1
  O  O140  1  0.25112055  0.87513679  0.35794704  1
  O  O141  1  0.75172318  0.87706205  0.35853100  1
  O  O142  1  0.18689566  0.49629382  0.35844531  1
  O  O143  1  0.68512214  0.49440132  0.35613730  1
  O  O144  1  0.06139682  0.49446901  0.85723387  1
  O  O145  1  0.56108205  0.49410619  0.85706676  1
  O  O146  1  0.18595354  0.87796461  0.85698638  1
  O  O147  1  0.68550796  0.87729529  0.85703967  1
  O  O148  1  0.25152350  0.62645860  0.85924590  1
  O  O149  1  0.75192804  0.62591882  0.85869020  1
  O  O150  1  0.01363455  0.83981727  0.40953733  1
  O  O151  1  0.51291564  0.83825199  0.41008850  1
  O  O152  1  0.40594204  0.97253436  0.40955157  1
  O  O153  1  0.90625685  0.97351146  0.41033461  1
  O  O154  1  0.08099824  0.18769534  0.41068191  1
  O  O155  1  0.57969004  0.18722005  0.40937376  1
  O  O156  1  0.01336805  0.18741299  0.91036550  1
  O  O157  1  0.51291417  0.18718190  0.91054782  1
  O  O158  1  0.08077119  0.97408227  0.91074126  1
  O  O159  1  0.58028262  0.97321058  0.91083211  1
  O  O160  1  0.40589147  0.83917096  0.91106204  1
  O  O161  1  0.90623659  0.83886969  0.91047357  1
  O  O162  1  0.48906762  0.16050287  0.58772650  1
  O  O163  1  0.98911966  0.16068297  0.58776670  1
  O  O164  1  0.09151471  0.02292769  0.58802921  1
  O  O165  1  0.59152155  0.02298286  0.58806563  1
  O  O166  1  0.41983414  0.81683080  0.58739131  1
  O  O167  1  0.91961794  0.81635109  0.58729653  1
  O  O168  1  0.48540533  0.81076706  0.08992191  1
  O  O169  1  0.99037779  0.81974144  0.08801125  1
  O  O170  1  0.41941224  0.02744724  0.09055169  1
  O  O171  1  0.92015305  0.02280658  0.08702928  1
  O  O172  1  0.09477667  0.16230429  0.09017621  1
  O  O173  1  0.59031749  0.15786795  0.08799970  1
  O  O174  1  0.34430839  0.15893642  0.74749891  1
  O  O175  1  0.84425802  0.15918407  0.74732044  1
  O  O176  1  0.23631056  0.30651593  0.74758206  1
  O  O177  1  0.73650548  0.30667244  0.74745991  1
  O  O178  1  0.41813165  0.52422158  0.74799161  1
  O  O179  1  0.91794587  0.52380684  0.74794049  1
  O  O180  1  0.34691023  0.52167071  0.24252768  1
  O  O181  1  0.84454259  0.52951315  0.24732437  1
  O  O182  1  0.41226590  0.30588120  0.24275929  1
  O  O183  1  0.92011551  0.31249071  0.24776207  1
  O  O184  1  0.24060988  0.17563884  0.24254060  1
  O  O185  1  0.73424784  0.16269152  0.24756557  1
  O  O186  1  0.31997837  0.49388838  0.92412318  1
  O  O187  1  0.82052313  0.49320294  0.92397418  1
  O  O188  1  0.42658371  0.36038740  0.92337777  1
  O  O189  1  0.92691989  0.36085983  0.92340956  1
  O  O190  1  0.25368408  0.14703159  0.92333264  1
  O  O191  1  0.75325480  0.14646555  0.92353719  1
  O  O192  1  0.32037027  0.14672008  0.42351346  1
  O  O193  1  0.82032528  0.14738027  0.42400818  1
  O  O194  1  0.25340178  0.35915172  0.42365017  1
  O  O195  1  0.75302152  0.35983047  0.42288055  1
  O  O196  1  0.42650591  0.49255769  0.42348890  1
  O  O197  1  0.92702548  0.49362408  0.42298431  1
  O  O198  1  0.18102507  0.50666311  0.07609105  1
  O  O199  1  0.67576909  0.50344894  0.07395781  1
  O  O200  1  0.07618498  0.64546418  0.07413954  1
  O  O201  1  0.57203870  0.63965424  0.07602329  1
  O  O202  1  0.24767974  0.85576402  0.07637277  1
  O  O203  1  0.74694187  0.84833162  0.07354601  1
  O  O204  1  0.17671969  0.84844791  0.57370085  1
  O  O205  1  0.67675012  0.84872254  0.57392644  1
  O  O206  1  0.24759516  0.64708945  0.57332809  1
  O  O207  1  0.74759713  0.64673513  0.57326735  1
  O  O208  1  0.07565366  0.50551335  0.57385119  1
  O  O209  1  0.57565765  0.50518146  0.57377142  1
  O  O210  1  0.15317068  0.82782838  0.25659604  1
  O  O211  1  0.64780661  0.81752665  0.25785731  1
  O  O212  1  0.26123576  0.69540572  0.25646925  1
  O  O213  1  0.75855780  0.69779054  0.25770988  1
  O  O214  1  0.08964185  0.48049955  0.25710660  1
  O  O215  1  0.58590147  0.47603125  0.25703274  1
  O  O216  1  0.14857536  0.47845105  0.75830662  1
  O  O217  1  0.64854534  0.47848288  0.75829886  1
  O  O218  1  0.08842006  0.69984108  0.75769045  1
  O  O219  1  0.58843683  0.69992569  0.75771346  1
  O  O220  1  0.25933130  0.81884694  0.75775450  1
  O  O221  1  0.75932227  0.81911309  0.75761075  1
