# generated using pymatgen
data_Na2CaGeP2SO12
_symmetry_space_group_name_H-M   'P 1'
_cell_length_a   9.02443706
_cell_length_b   9.00852816
_cell_length_c   22.20432732
_cell_angle_alpha   91.92642873
_cell_angle_beta   90.00000000
_cell_angle_gamma   120.05843545
_symmetry_Int_Tables_number   1
_chemical_formula_structural   Na2CaGeP2SO12
_chemical_formula_sum   'Na12 Ca6 Ge6 P12 S6 O72'
_cell_volume   1561.19937379
_cell_formula_units_Z   6
loop_
 _symmetry_equiv_pos_site_id
 _symmetry_equiv_pos_as_xyz
  1  'x, y, z'
loop_
 _atom_site_type_symbol
 _atom_site_label
 _atom_site_symmetry_multiplicity
 _atom_site_fract_x
 _atom_site_fract_y
 _atom_site_fract_z
 _atom_site_occupancy
  Na  Na0  1  0.98721694  0.63889245  0.24417257  1
  Na  Na1  1  0.65167551  0.63889245  0.74417257  1
  Na  Na2  1  0.65388394  0.97222545  0.57750557  1
  Na  Na3  1  0.31834251  0.97222545  0.07750557  1
  Na  Na4  1  0.32054994  0.30555945  0.91083957  1
  Na  Na5  1  0.98500851  0.30555945  0.41083957  1
  Na  Na6  1  0.00913821  0.96926581  0.49973980  1
  Na  Na7  1  0.96012759  0.96926581  0.99973980  1
  Na  Na8  1  0.67580521  0.30259881  0.83307280  1
  Na  Na9  1  0.62679459  0.30259881  0.33307280  1
  Na  Na10  1  0.34247121  0.63593281  0.16640680  1
  Na  Na11  1  0.29346059  0.63593281  0.66640680  1
  Ca  Ca12  1  0.99621166  0.99530356  0.35547987  1
  Ca  Ca13  1  0.99909191  0.99530356  0.85547987  1
  Ca  Ca14  1  0.66287866  0.32863656  0.68881287  1
  Ca  Ca15  1  0.66575891  0.32863656  0.18881287  1
  Ca  Ca16  1  0.32954466  0.66197056  0.02214687  1
  Ca  Ca17  1  0.33242491  0.66197056  0.52214687  1
  Ge  Ge18  1  0.98750956  0.01320818  0.64934919  1
  Ge  Ge19  1  0.02569862  0.01320818  0.14934919  1
  Ge  Ge20  1  0.65417656  0.34654118  0.98268219  1
  Ge  Ge21  1  0.69236562  0.34654118  0.48268219  1
  Ge  Ge22  1  0.32084256  0.67987518  0.31601619  1
  Ge  Ge23  1  0.35903162  0.67987518  0.81601619  1
  P  P24  1  0.29189720  0.98375066  0.25146988  1
  P  P25  1  0.02824707  0.30724458  0.25408544  1
  P  P26  1  0.27899752  0.30724458  0.75408544  1
  P  P27  1  0.69185346  0.98375066  0.75146988  1
  P  P28  1  0.95856420  0.31708366  0.58480288  1
  P  P29  1  0.69491407  0.64057758  0.58741844  1
  P  P30  1  0.94566452  0.64057758  0.08741844  1
  P  P31  1  0.35852046  0.31708366  0.08480288  1
  P  P32  1  0.62523020  0.65041766  0.91813688  1
  P  P33  1  0.36158007  0.97391158  0.92075244  1
  P  P34  1  0.61233052  0.97391158  0.42075244  1
  P  P35  1  0.02518646  0.65041766  0.41813688  1
  S  S36  1  0.69048962  0.71849922  0.24850231  1
  S  S37  1  0.02800960  0.71849922  0.74850231  1
  S  S38  1  0.35715662  0.05183222  0.58183531  1
  S  S39  1  0.69467660  0.05183222  0.08183531  1
  S  S40  1  0.02382262  0.38516622  0.91516931  1
  S  S41  1  0.36134260  0.38516622  0.41516931  1
  O  O42  1  0.19774196  0.99537513  0.30466515  1
  O  O43  1  0.78555101  0.79678812  0.30408170  1
  O  O44  1  0.00625838  0.21748156  0.31178396  1
  O  O45  1  0.21122318  0.21748156  0.81178396  1
  O  O46  1  0.01123711  0.79678812  0.80408170  1
  O  O47  1  0.79763317  0.99537513  0.80466515  1
  O  O48  1  0.77406916  0.95393742  0.68983915  1
  O  O49  1  0.15272650  0.20591635  0.69655244  1
  O  O50  1  0.04255880  0.82097857  0.69404548  1
  O  O51  1  0.77841978  0.82097857  0.19404548  1
  O  O52  1  0.05318986  0.20591635  0.19655244  1
  O  O53  1  0.17986826  0.95393742  0.18983915  1
  O  O54  1  0.86440896  0.32870813  0.63799815  1
  O  O55  1  0.45221801  0.13012112  0.63741470  1
  O  O56  1  0.67292538  0.55081456  0.64511696  1
  O  O57  1  0.87789018  0.55081456  0.14511696  1
  O  O58  1  0.67790411  0.13012112  0.13741470  1
  O  O59  1  0.46430017  0.32870813  0.13799815  1
  O  O60  1  0.44073616  0.28727042  0.02317215  1
  O  O61  1  0.81939350  0.53924935  0.02988544  1
  O  O62  1  0.70922580  0.15431157  0.02737848  1
  O  O63  1  0.44508678  0.15431157  0.52737848  1
  O  O64  1  0.71985686  0.53924935  0.52988544  1
  O  O65  1  0.84653526  0.28727042  0.52317215  1
  O  O66  1  0.53107496  0.66204213  0.97133215  1
  O  O67  1  0.11888401  0.46345512  0.97074870  1
  O  O68  1  0.33959138  0.88414856  0.97845096  1
  O  O69  1  0.54455618  0.88414856  0.47845096  1
  O  O70  1  0.34457011  0.46345512  0.47074870  1
  O  O71  1  0.13096617  0.66204213  0.47133215  1
  O  O72  1  0.10740216  0.62060442  0.35650615  1
  O  O73  1  0.48605950  0.87258335  0.36321944  1
  O  O74  1  0.37589180  0.48764557  0.36071248  1
  O  O75  1  0.11175278  0.48764557  0.86071248  1
  O  O76  1  0.38652286  0.87258335  0.86321944  1
  O  O77  1  0.51320126  0.62060442  0.85650615  1
  O  O78  1  0.98567754  0.79370008  0.41457781  1
  O  O79  1  0.79466612  0.01312949  0.40992208  1
  O  O80  1  0.20882213  0.21181308  0.41011886  1
  O  O81  1  0.00299095  0.21181308  0.91011886  1
  O  O82  1  0.21846336  0.01312949  0.90992208  1
  O  O83  1  0.80802255  0.79370008  0.91457781  1
  O  O84  1  0.95472100  0.13570065  0.58684613  1
  O  O85  1  0.18458153  0.03988917  0.58433920  1
  O  O86  1  0.86927236  0.82382589  0.59042897  1
  O  O87  1  0.95455353  0.82382589  0.09042897  1
  O  O88  1  0.85530765  0.03988917  0.08433920  1
  O  O89  1  0.18097965  0.13570065  0.08684613  1
  O  O90  1  0.65234454  0.12703308  0.74791081  1
  O  O91  1  0.46133312  0.34646249  0.74325508  1
  O  O92  1  0.87548913  0.54514608  0.74345186  1
  O  O93  1  0.66965795  0.54514608  0.24345186  1
  O  O94  1  0.88513036  0.34646249  0.24325508  1
  O  O95  1  0.47468955  0.12703308  0.24791081  1
  O  O96  1  0.62138800  0.46903365  0.92017913  1
  O  O97  1  0.85124853  0.37322217  0.91767220  1
  O  O98  1  0.53593936  0.15715889  0.92376197  1
  O  O99  1  0.62122053  0.15715889  0.42376197  1
  O  O100  1  0.52197465  0.37322217  0.41767220  1
  O  O101  1  0.84764665  0.46903365  0.42017913  1
  O  O102  1  0.31901054  0.46036708  0.08124481  1
  O  O103  1  0.12799912  0.67979649  0.07658908  1
  O  O104  1  0.54215513  0.87848008  0.07678586  1
  O  O105  1  0.33632395  0.87848008  0.57678586  1
  O  O106  1  0.55179636  0.67979649  0.57658908  1
  O  O107  1  0.14135555  0.46036708  0.58124481  1
  O  O108  1  0.28805400  0.80236765  0.25351313  1
  O  O109  1  0.51791453  0.70655617  0.25100620  1
  O  O110  1  0.20260536  0.49049289  0.25709597  1
  O  O111  1  0.28788653  0.49049289  0.75709597  1
  O  O112  1  0.18864065  0.70655617  0.75100620  1
  O  O113  1  0.51431265  0.80236765  0.75351313  1
