# generated using pymatgen
data_Na7TaSi6(SnO8)3
_symmetry_space_group_name_H-M   'P 1'
_cell_length_a   9.09507967
_cell_length_b   9.09487070
_cell_length_c   22.61800137
_cell_angle_alpha   90.06154854
_cell_angle_beta   89.93064053
_cell_angle_gamma   120.05206561
_symmetry_Int_Tables_number   1
_chemical_formula_structural   Na7TaSi6(SnO8)3
_chemical_formula_sum   'Na21 Ta3 Si18 Sn9 O72'
_cell_volume   1619.41971476
_cell_formula_units_Z   3
loop_
 _symmetry_equiv_pos_site_id
 _symmetry_equiv_pos_as_xyz
  1  'x, y, z'
loop_
 _atom_site_type_symbol
 _atom_site_label
 _atom_site_symmetry_multiplicity
 _atom_site_fract_x
 _atom_site_fract_y
 _atom_site_fract_z
 _atom_site_occupancy
  Na  Na0  1  0.36950004  0.36497044  0.24943966  1
  Na  Na1  1  0.63699803  0.63375951  0.74940692  1
  Na  Na2  1  0.99690294  0.36336486  0.74927011  1
  Na  Na3  1  0.36584582  0.00338142  0.74945174  1
  Na  Na4  1  0.29982702  0.33343020  0.58257407  1
  Na  Na5  1  0.03344466  0.70007574  0.58247424  1
  Na  Na6  1  0.66658561  0.96640656  0.58246980  1
  Na  Na7  1  0.30525879  0.96909121  0.08292042  1
  Na  Na8  1  0.66384190  0.69614233  0.08300076  1
  Na  Na9  1  0.03193186  0.33660892  0.08266003  1
  Na  Na10  1  0.96434888  0.66624375  0.91821420  1
  Na  Na11  1  0.70337369  0.03435103  0.91818503  1
  Na  Na12  1  0.96643538  0.29803492  0.41521608  1
  Na  Na13  1  0.33193624  0.03426019  0.41564318  1
  Na  Na14  1  0.70183668  0.66784900  0.41523175  1
  Na  Na15  1  0.00005277  0.00009961  0.49901221  1
  Na  Na16  1  0.00722585  0.00681698  0.99784312  1
  Na  Na17  1  0.66030673  0.33282502  0.83569799  1
  Na  Na18  1  0.67308278  0.33315295  0.32937392  1
  Na  Na19  1  0.33273264  0.67203983  0.16715196  1
  Na  Na20  1  0.33325360  0.66664382  0.66466910  1
  Ta  Ta21  1  0.99937137  0.99922832  0.14851139  1
  Ta  Ta22  1  0.33307508  0.66998974  0.31066239  1
  Ta  Ta23  1  0.33383620  0.66637999  0.81527894  1
  Si  Si24  1  0.29221418  0.99913701  0.25020296  1
  Si  Si25  1  0.70908942  0.70767581  0.25070526  1
  Si  Si26  1  0.99606481  0.29123817  0.25087296  1
  Si  Si27  1  0.29221949  0.29187559  0.74952204  1
  Si  Si28  1  0.99972868  0.70821131  0.75022837  1
  Si  Si29  1  0.70832902  0.00045289  0.75012624  1
  Si  Si30  1  0.95929439  0.33341977  0.58315658  1
  Si  Si31  1  0.37420416  0.04057673  0.58323097  1
  Si  Si32  1  0.66643380  0.62591807  0.58323323  1
  Si  Si33  1  0.95774481  0.62453333  0.08260903  1
  Si  Si34  1  0.66678214  0.04305352  0.08264828  1
  Si  Si35  1  0.37609601  0.33321842  0.08391540  1
  Si  Si36  1  0.62457786  0.66351261  0.91710446  1
  Si  Si37  1  0.04207313  0.37275760  0.91760615  1
  Si  Si38  1  0.33338084  0.96120439  0.91734315  1
  Si  Si39  1  0.62451435  0.95695165  0.41641627  1
  Si  Si40  1  0.33255086  0.37560261  0.41591952  1
  Si  Si41  1  0.04309592  0.66736114  0.41630768  1
  Sn  Sn42  1  0.99910828  0.99938584  0.35033284  1
  Sn  Sn43  1  0.00396635  0.00360015  0.85292012  1
  Sn  Sn44  1  0.00037427  0.00042394  0.64822705  1
  Sn  Sn45  1  0.66676408  0.33351783  0.68464676  1
  Sn  Sn46  1  0.67012848  0.33307786  0.18686526  1
  Sn  Sn47  1  0.66298284  0.33287278  0.98022369  1
  Sn  Sn48  1  0.66662256  0.33339108  0.48029436  1
  Sn  Sn49  1  0.33333190  0.66591703  0.01835765  1
  Sn  Sn50  1  0.33324320  0.66673323  0.51770021  1
  O  O51  1  0.21325725  0.03869185  0.30909519  1
  O  O52  1  0.82046594  0.78731024  0.31032766  1
  O  O53  1  0.96958779  0.18079323  0.31049472  1
  O  O54  1  0.20933155  0.16604888  0.80558758  1
  O  O55  1  0.95927634  0.78811576  0.80819501  1
  O  O56  1  0.82793726  0.03955363  0.80811995  1
  O  O57  1  0.78344669  0.95539634  0.69131740  1
  O  O58  1  0.17315666  0.21891828  0.69031206  1
  O  O59  1  0.04467466  0.82809515  0.69139319  1
  O  O60  1  0.80262502  0.83095977  0.19267375  1
  O  O61  1  0.03218574  0.19853532  0.19329319  1
  O  O62  1  0.16847360  0.97101525  0.19233371  1
  O  O63  1  0.88124348  0.37379770  0.64231088  1
  O  O64  1  0.49269940  0.11884835  0.64228149  1
  O  O65  1  0.62637888  0.50746386  0.64225352  1
  O  O66  1  0.87460131  0.49930093  0.13899383  1
  O  O67  1  0.62294329  0.12497399  0.13903269  1
  O  O68  1  0.49398723  0.37409290  0.14274363  1
  O  O69  1  0.45313724  0.28523733  0.02678077  1
  O  O70  1  0.83939129  0.55159816  0.02313704  1
  O  O71  1  0.71286017  0.16129069  0.02306730  1
  O  O72  1  0.45390859  0.16148983  0.52468466  1
  O  O73  1  0.70774372  0.54619589  0.52465639  1
  O  O74  1  0.83827964  0.29241069  0.52467614  1
  O  O75  1  0.54648266  0.70690242  0.97511518  1
  O  O76  1  0.15486162  0.45551850  0.97660435  1
  O  O77  1  0.29460990  0.84037795  0.97535366  1
  O  O78  1  0.54882162  0.84145219  0.47636472  1
  O  O79  1  0.29275763  0.45195814  0.47573707  1
  O  O80  1  0.15863970  0.70760191  0.47625701  1
  O  O81  1  0.14064436  0.63480082  0.36096740  1
  O  O82  1  0.49463514  0.85890175  0.36110326  1
  O  O83  1  0.36507461  0.50123528  0.35913393  1
  O  O84  1  0.13742850  0.49892391  0.85946427  1
  O  O85  1  0.36184679  0.86301330  0.85920967  1
  O  O86  1  0.50282074  0.64088732  0.85875755  1
  O  O87  1  0.02383421  0.83656810  0.41093416  1
  O  O88  1  0.81326640  0.97683967  0.41132663  1
  O  O89  1  0.16362456  0.18608768  0.41129581  1
  O  O90  1  0.01428239  0.18222798  0.91130868  1
  O  O91  1  0.15761922  0.96642065  0.91067930  1
  O  O92  1  0.81118031  0.83678272  0.91023396  1
  O  O93  1  0.97591863  0.16193860  0.58835326  1
  O  O94  1  0.18585701  0.02358101  0.58841316  1
  O  O95  1  0.83804263  0.81427264  0.58847775  1
  O  O96  1  0.97755875  0.81553795  0.09111920  1
  O  O97  1  0.83775524  0.02305888  0.09153016  1
  O  O98  1  0.18402627  0.16248176  0.09151770  1
  O  O99  1  0.68680525  0.16851387  0.74490059  1
  O  O100  1  0.48218578  0.31409659  0.74460873  1
  O  O101  1  0.83158556  0.51843297  0.74490639  1
  O  O102  1  0.67803581  0.51597902  0.24419989  1
  O  O103  1  0.83097659  0.31228836  0.24463364  1
  O  O104  1  0.47497959  0.17264181  0.24353946  1
  O  O105  1  0.64776405  0.49787980  0.91933990  1
  O  O106  1  0.85663198  0.36310619  0.91957090  1
  O  O107  1  0.51158321  0.14097574  0.91955095  1
  O  O108  1  0.63834144  0.14417732  0.42038294  1
  O  O109  1  0.50580850  0.36128454  0.42044705  1
  O  O110  1  0.85572145  0.49394607  0.42040172  1
  O  O111  1  0.35374665  0.50133070  0.07833412  1
  O  O112  1  0.14897935  0.64841028  0.07819432  1
  O  O113  1  0.49923278  0.85174781  0.07779540  1
  O  O114  1  0.35640236  0.85212985  0.57862085  1
  O  O115  1  0.49569405  0.64353538  0.57860369  1
  O  O116  1  0.14783037  0.50432263  0.57858584  1
  O  O117  1  0.30650575  0.82725122  0.25710010  1
  O  O118  1  0.51824859  0.68831142  0.25716894  1
  O  O119  1  0.17628248  0.47537881  0.25701834  1
  O  O120  1  0.31104864  0.48213536  0.75785311  1
  O  O121  1  0.17108219  0.68883434  0.75792298  1
  O  O122  1  0.51739256  0.82895107  0.75755809  1
