# generated using pymatgen
data_Na2YMgP(SO6)2
_symmetry_space_group_name_H-M   'P 1'
_cell_length_a   9.09500173
_cell_length_b   9.03821492
_cell_length_c   23.31857015
_cell_angle_alpha   89.72328663
_cell_angle_beta   90.00000000
_cell_angle_gamma   120.20805749
_symmetry_Int_Tables_number   1
_chemical_formula_structural   Na2YMgP(SO6)2
_chemical_formula_sum   'Na12 Y6 Mg6 P6 S12 O72'
_cell_volume   1656.52076529
_cell_formula_units_Z   6
loop_
 _symmetry_equiv_pos_site_id
 _symmetry_equiv_pos_as_xyz
  1  'x, y, z'
loop_
 _atom_site_type_symbol
 _atom_site_label
 _atom_site_symmetry_multiplicity
 _atom_site_fract_x
 _atom_site_fract_y
 _atom_site_fract_z
 _atom_site_occupancy
  Na  Na0  1  0.00280632  0.64080753  0.24304906  1
  Na  Na1  1  0.63800121  0.64080753  0.74304906  1
  Na  Na2  1  0.65945543  0.95740417  0.57967553  1
  Na  Na3  1  0.29794974  0.95740417  0.07967553  1
  Na  Na4  1  0.69016424  0.02707369  0.91029365  1
  Na  Na5  1  0.33690845  0.02707369  0.41029365  1
  Na  Na6  1  0.97997378  0.98823204  0.49371567  1
  Na  Na7  1  0.00825825  0.98823204  0.99371567  1
  Na  Na8  1  0.65752933  0.31336782  0.82712689  1
  Na  Na9  1  0.65583949  0.31336782  0.32712689  1
  Na  Na10  1  0.33263902  0.65932694  0.16093625  1
  Na  Na11  1  0.32668691  0.65932694  0.66093625  1
  Y  Y12  1  0.00077887  0.99922761  0.64916716  1
  Y  Y13  1  0.99844874  0.99922761  0.14916716  1
  Y  Y14  1  0.67177043  0.34651954  0.98276571  1
  Y  Y15  1  0.67475010  0.34651954  0.48276571  1
  Y  Y16  1  0.34640021  0.67707571  0.31573804  1
  Y  Y17  1  0.33067450  0.67707571  0.81573804  1
  Mg  Mg18  1  0.99274577  0.00480726  0.34964465  1
  Mg  Mg19  1  0.01206149  0.00480726  0.84964465  1
  Mg  Mg20  1  0.66701986  0.32807366  0.68276317  1
  Mg  Mg21  1  0.66105480  0.32807366  0.18276317  1
  Mg  Mg22  1  0.31236628  0.66169681  0.01593947  1
  Mg  Mg23  1  0.34932953  0.66169681  0.51593947  1
  P  P24  1  0.30040823  0.01040568  0.25196594  1
  P  P25  1  0.70999745  0.01040568  0.75196594  1
  P  P26  1  0.65680728  0.62638245  0.58761115  1
  P  P27  1  0.96957617  0.62638245  0.08761115  1
  P  P28  1  0.32563062  0.96334602  0.92036327  1
  P  P29  1  0.63771440  0.96334602  0.42036327  1
  S  S30  1  0.70891116  0.69948255  0.25126507  1
  S  S31  1  0.99175143  0.29378444  0.25121156  1
  S  S32  1  0.30203301  0.29378444  0.75121156  1
  S  S33  1  0.99057138  0.69948255  0.75126507  1
  S  S34  1  0.96790097  0.34424503  0.58455100  1
  S  S35  1  0.37510523  0.03465039  0.58299038  1
  S  S36  1  0.65954616  0.03465039  0.08299038  1
  S  S37  1  0.37634506  0.34424503  0.08455100  1
  S  S38  1  0.62926376  0.67487246  0.91645097  1
  S  S39  1  0.04113312  0.36437653  0.91794661  1
  S  S40  1  0.32324241  0.36437653  0.41794661  1
  S  S41  1  0.04560770  0.67487246  0.41645097  1
  O  O42  1  0.21012887  0.02424905  0.30636230  1
  O  O43  1  0.81532953  0.78810348  0.30177183  1
  O  O44  1  0.97418501  0.18877115  0.30229674  1
  O  O45  1  0.21458615  0.18877115  0.80229674  1
  O  O46  1  0.97277394  0.78810348  0.80177183  1
  O  O47  1  0.81412018  0.02424905  0.80636230  1
  O  O48  1  0.79150761  0.97950441  0.69758602  1
  O  O49  1  0.20284596  0.21767762  0.69872313  1
  O  O50  1  0.02057143  0.80320705  0.69867886  1
  O  O51  1  0.78263562  0.80320705  0.19867886  1
  O  O52  1  0.01483165  0.21767762  0.19872313  1
  O  O53  1  0.18799680  0.97950441  0.19758602  1
  O  O54  1  0.88117371  0.36051055  0.63581871  1
  O  O55  1  0.48701744  0.12422468  0.63237069  1
  O  O56  1  0.64454002  0.52521325  0.64265493  1
  O  O57  1  0.88067423  0.52521325  0.14265493  1
  O  O58  1  0.63720824  0.12422468  0.13237069  1
  O  O59  1  0.47933784  0.36051055  0.13581871  1
  O  O60  1  0.45056698  0.30901352  0.03282519  1
  O  O61  1  0.86081929  0.54186501  0.03395793  1
  O  O62  1  0.68344897  0.13291115  0.02887595  1
  O  O63  1  0.44946318  0.13291115  0.52887595  1
  O  O64  1  0.68104672  0.54186501  0.53395793  1
  O  O65  1  0.85844754  0.30901352  0.53282519  1
  O  O66  1  0.53825231  0.69113280  0.96623293  1
  O  O67  1  0.14333690  0.45016233  0.96882661  1
  O  O68  1  0.30787329  0.85916484  0.97541902  1
  O  O69  1  0.55129056  0.85916484  0.47541902  1
  O  O70  1  0.30682443  0.45016233  0.46882661  1
  O  O71  1  0.15287949  0.69113280  0.46623293  1
  O  O72  1  0.11767577  0.64923983  0.36255571  1
  O  O73  1  0.51872038  0.87813779  0.36786097  1
  O  O74  1  0.34777303  0.46530491  0.36538032  1
  O  O75  1  0.11753089  0.46530491  0.86538032  1
  O  O76  1  0.35941641  0.87813779  0.86786097  1
  O  O77  1  0.53156306  0.64923983  0.86255571  1
  O  O78  1  0.03620122  0.83477819  0.41162627  1
  O  O79  1  0.81366523  0.98208017  0.41092059  1
  O  O80  1  0.17239706  0.18922190  0.41296671  1
  O  O81  1  0.01682484  0.18922190  0.91296671  1
  O  O82  1  0.16841494  0.98208017  0.91092059  1
  O  O83  1  0.79857698  0.83477819  0.91162627  1
  O  O84  1  0.98104793  0.18500204  0.58931076  1
  O  O85  1  0.20477261  0.01616443  0.58888138  1
  O  O86  1  0.81610746  0.81333415  0.58837285  1
  O  O87  1  0.99722669  0.81333415  0.08837285  1
  O  O88  1  0.81139181  0.01616443  0.08888138  1
  O  O89  1  0.20395411  0.18500204  0.08931076  1
  O  O90  1  0.68664963  0.16624801  0.74381730  1
  O  O91  1  0.47536752  0.31626181  0.74635012  1
  O  O92  1  0.83057431  0.53177776  0.74564547  1
  O  O93  1  0.70120445  0.53177776  0.24564547  1
  O  O94  1  0.84089529  0.31626181  0.24635012  1
  O  O95  1  0.47959938  0.16624801  0.24381730  1
  O  O96  1  0.65373947  0.52473177  0.92076126  1
  O  O97  1  0.86512923  0.34133987  0.92213866  1
  O  O98  1  0.49566977  0.14079823  0.92310338  1
  O  O99  1  0.64512946  0.14079823  0.42310338  1
  O  O100  1  0.47621163  0.34133987  0.42213866  1
  O  O101  1  0.87099330  0.52473177  0.42076126  1
  O  O102  1  0.35924679  0.49523810  0.07677867  1
  O  O103  1  0.15057247  0.64965513  0.08121120  1
  O  O104  1  0.50314729  0.86343616  0.07842763  1
  O  O105  1  0.36028787  0.86343616  0.57842763  1
  O  O106  1  0.49908166  0.64965513  0.58121120  1
  O  O107  1  0.13599031  0.49523810  0.57677867  1
  O  O108  1  0.30623404  0.83867136  0.25483459  1
  O  O109  1  0.53461317  0.67269824  0.25569305  1
  O  O110  1  0.14532824  0.46971093  0.25579108  1
  O  O111  1  0.32438169  0.46971093  0.75579108  1
  O  O112  1  0.13808407  0.67269824  0.75569305  1
  O  O113  1  0.53243632  0.83867136  0.75483459  1
