# generated using pymatgen
data_Na2MgV2(OF)4
_symmetry_space_group_name_H-M   'P 1'
_cell_length_a   3.82742571
_cell_length_b   6.69665431
_cell_length_c   6.91663582
_cell_angle_alpha   106.12137804
_cell_angle_beta   90.00618858
_cell_angle_gamma   89.89727576
_symmetry_Int_Tables_number   1
_chemical_formula_structural   Na2MgV2(OF)4
_chemical_formula_sum   'Na2 Mg1 V2 O4 F4'
_cell_volume   170.30821347
_cell_formula_units_Z   1
loop_
 _symmetry_equiv_pos_site_id
 _symmetry_equiv_pos_as_xyz
  1  'x, y, z'
loop_
 _atom_site_type_symbol
 _atom_site_label
 _atom_site_symmetry_multiplicity
 _atom_site_fract_x
 _atom_site_fract_y
 _atom_site_fract_z
 _atom_site_occupancy
  Na  Na0  1  0.26199200  0.40495600  0.79648100  1
  Na  Na1  1  0.75673100  0.58933000  0.20528700  1
  Mg  Mg2  1  0.75958700  0.06275000  0.46243300  1
  V  V3  1  0.75951700  0.89163600  0.81443500  1
  V  V4  1  0.25842600  0.09161200  0.16638700  1
  O  O5  1  0.75861700  0.80177700  0.55879500  1
  O  O6  1  0.25864900  0.18834200  0.43858700  1
  O  O7  1  0.25913900  0.93978100  0.88360200  1
  O  O8  1  0.75830500  0.05442000  0.14090600  1
  F  F9  1  0.25762300  0.36792100  0.12153700  1
  F  F10  1  0.76186600  0.62205300  0.86868900  1
  F  F11  1  0.75954400  0.18486200  0.76111000  1
  F  F12  1  0.25820500  0.81056400  0.22619400  1
