# generated using pymatgen
data_NaCaTiP(SO6)2
_symmetry_space_group_name_H-M   'P 1'
_cell_length_a   8.97017307
_cell_length_b   8.94499152
_cell_length_c   22.63922370
_cell_angle_alpha   89.42699433
_cell_angle_beta   90.00000000
_cell_angle_gamma   120.09316843
_symmetry_Int_Tables_number   1
_chemical_formula_structural   NaCaTiP(SO6)2
_chemical_formula_sum   'Na6 Ca6 Ti6 P6 S12 O72'
_cell_volume   1571.57608524
_cell_formula_units_Z   6
loop_
 _symmetry_equiv_pos_site_id
 _symmetry_equiv_pos_as_xyz
  1  'x, y, z'
loop_
 _atom_site_type_symbol
 _atom_site_label
 _atom_site_symmetry_multiplicity
 _atom_site_fract_x
 _atom_site_fract_y
 _atom_site_fract_z
 _atom_site_occupancy
  Na  Na0  1  0.98025128  0.98140491  0.49972507  1
  Na  Na1  1  0.00115363  0.98140491  -0.00027493  1
  Na  Na2  1  0.65063253  0.31610808  0.83368096  1
  Na  Na3  1  0.66547656  0.31610808  0.33368096  1
  Na  Na4  1  0.33436268  0.67990119  0.16866286  1
  Na  Na5  1  0.34553751  0.67990119  0.66866286  1
  Ca  Ca6  1  0.99820113  0.99769787  0.64433421  1
  Ca  Ca7  1  -0.00050326  0.99769787  0.14433421  1
  Ca  Ca8  1  0.66177371  0.33267441  0.97696727  1
  Ca  Ca9  1  0.67090171  0.33267441  0.47696727  1
  Ca  Ca10  1  0.33490268  0.67140301  0.31094036  1
  Ca  Ca11  1  0.33649933  0.67140301  0.81094036  1
  Ti  Ti12  1  0.01059357  0.00116943  0.35079402  1
  Ti  Ti13  1  0.99057586  0.00116943  0.85079402  1
  Ti  Ti14  1  0.67184990  0.33625000  0.68487385  1
  Ti  Ti15  1  0.66440110  0.33625000  0.18487385  1
  Ti  Ti16  1  0.31267440  0.67755100  0.01817399  1
  Ti  Ti17  1  0.36487560  0.67755100  0.51817399  1
  P  P18  1  0.30744936  0.02454878  0.24775369  1
  P  P19  1  0.71709942  0.02454878  0.74775369  1
  P  P20  1  0.65334594  0.61507364  0.58140766  1
  P  P21  1  0.96172869  0.61507364  0.08140766  1
  P  P22  1  0.30527886  0.95437733  0.91310338  1
  P  P23  1  0.64909747  0.95437733  0.41310338  1
  S  S24  1  0.71789338  0.69247812  0.25074428  1
  S  S25  1  0.97653850  0.28137653  0.24984495  1
  S  S26  1  0.30483803  0.28137653  0.74984495  1
  S  S27  1  0.97458473  0.69247812  0.75074428  1
  S  S28  1  0.97555109  0.36155838  0.58475986  1
  S  S29  1  0.38742261  0.02671433  0.58386631  1
  S  S30  1  0.63929272  0.02671433  0.08386631  1
  S  S31  1  0.38600829  0.36155838  0.08475986  1
  S  S32  1  0.63749339  0.69057559  0.91608705  1
  S  S33  1  0.04973766  0.36110897  0.91685992  1
  S  S34  1  0.31137031  0.36110897  0.41685992  1
  S  S35  1  0.05308120  0.69057559  0.41608705  1
  O  O36  1  0.20106885  0.03723674  0.30436402  1
  O  O37  1  0.82862320  0.78939438  0.30323392  1
  O  O38  1  0.96460361  0.17126010  0.30355512  1
  O  O39  1  0.20665649  0.17126010  0.80355512  1
  O  O40  1  0.96077118  0.78939438  0.80323392  1
  O  O41  1  0.83616789  0.03723674  0.80436402  1
  O  O42  1  0.80144231  0.00682226  0.69393278  1
  O  O43  1  0.21192736  0.20555534  0.69595254  1
  O  O44  1  0.00393184  0.79006660  0.69644016  1
  O  O45  1  0.78613475  0.79006660  0.19644016  1
  O  O46  1  -0.00637202  0.20555534  0.19595254  1
  O  O47  1  0.20537994  0.00682226  0.19393278  1
  O  O48  1  0.86789296  0.36403805  0.63792456  1
  O  O49  1  0.49491686  0.12024071  0.63758209  1
  O  O50  1  0.63340403  0.49616418  0.63765087  1
  O  O51  1  0.86276114  0.49616418  0.13765087  1
  O  O52  1  0.62532485  0.12024071  0.13758209  1
  O  O53  1  0.49614609  0.36403805  0.13792456  1
  O  O54  1  0.45983020  0.33912628  0.03118538  1
  O  O55  1  0.86639599  0.53608758  0.02607598  1
  O  O56  1  0.65900617  0.12225899  0.02994735  1
  O  O57  1  0.46325382  0.12225899  0.52994735  1
  O  O58  1  0.66969259  0.53608758  0.52607598  1
  O  O59  1  0.87929709  0.33912628  0.53118538  1
  O  O60  1  0.54720838  0.70685522  0.96934894  1
  O  O61  1  0.15722351  0.45826974  0.97029021  1
  O  O62  1  0.28911696  0.83288985  0.97178528  1
  O  O63  1  0.54377188  0.83288985  0.47178528  1
  O  O64  1  0.30104523  0.45826974  0.47029021  1
  O  O65  1  0.15964584  0.70685522  0.46934894  1
  O  O66  1  0.12430182  0.66661296  0.36203339  1
  O  O67  1  0.53805420  0.86789272  0.36135163  1
  O  O68  1  0.32784802  0.45501470  0.36285283  1
  O  O69  1  0.12716567  0.45501470  0.86285283  1
  O  O70  1  0.32983753  0.86789272  0.86135163  1
  O  O71  1  0.54231014  0.66661296  0.86203339  1
  O  O72  1  0.05345146  0.86160327  0.41113811  1
  O  O73  1  0.82173523  0.95079631  0.40947725  1
  O  O74  1  0.14173883  0.19071305  0.41593583  1
  O  O75  1  0.04897422  0.19071305  0.91593583  1
  O  O76  1  0.12906108  0.95079631  0.90947725  1
  O  O77  1  0.80815181  0.86160327  0.91113811  1
  O  O78  1  0.01227748  0.22106605  0.59114363  1
  O  O79  1  0.21086056  -0.00973785  0.59035902  1
  O  O80  1  0.79418871  0.80199863  0.58747212  1
  O  O81  1  0.00780992  0.80199863  0.08747212  1
  O  O82  1  0.77940159  -0.00973785  0.09035902  1
  O  O83  1  0.20878857  0.22106605  0.09114363  1
  O  O84  1  0.71565855  0.20131057  0.74414723  1
  O  O85  1  0.47411775  0.28265430  0.74836279  1
  O  O86  1  0.80216532  0.52572203  0.74768664  1
  O  O87  1  0.72355771  0.52572203  0.24768664  1
  O  O88  1  0.80853756  0.28265430  0.24836279  1
  O  O89  1  0.48565302  0.20131057  0.24414723  1
  O  O90  1  0.68078558  0.55412778  0.92167771  1
  O  O91  1  0.87240078  0.32415391  0.92223558  1
  O  O92  1  0.45112198  0.13831204  0.92144361  1
  O  O93  1  0.68719106  0.13831204  0.42144361  1
  O  O94  1  0.45175413  0.32415391  0.42223558  1
  O  O95  1  0.87334320  0.55412778  0.42167771  1
  O  O96  1  0.39278129  0.53181315  0.08515458  1
  O  O97  1  0.14292433  0.61672113  0.07630455  1
  O  O98  1  0.47010710  0.85617976  0.08128442  1
  O  O99  1  0.38607166  0.85617976  0.58128442  1
  O  O100  1  0.47379580  0.61672113  0.57630455  1
  O  O101  1  0.13903086  0.53181315  0.58515458  1
  O  O102  1  0.34721330  0.87926967  0.25421358  1
  O  O103  1  0.53900197  0.64770915  0.25829049  1
  O  O104  1  0.11906195  0.45782908  0.25558612  1
  O  O105  1  0.33876613  0.45782908  0.75558612  1
  O  O106  1  0.10870619  0.64770915  0.75829049  1
  O  O107  1  0.53205537  0.87926967  0.75421358  1
