# generated using pymatgen
data_NaMgTa3Si3(SO8)3
_symmetry_space_group_name_H-M   'P 1'
_cell_length_a   8.83520591
_cell_length_b   8.82468411
_cell_length_c   22.86193101
_cell_angle_alpha   90.16288598
_cell_angle_beta   89.78972977
_cell_angle_gamma   119.99705994
_symmetry_Int_Tables_number   1
_chemical_formula_structural   NaMgTa3Si3(SO8)3
_chemical_formula_sum   'Na3 Mg3 Ta9 Si9 S9 O72'
_cell_volume   1543.72178254
_cell_formula_units_Z   3
loop_
 _symmetry_equiv_pos_site_id
 _symmetry_equiv_pos_as_xyz
  1  'x, y, z'
loop_
 _atom_site_type_symbol
 _atom_site_label
 _atom_site_symmetry_multiplicity
 _atom_site_fract_x
 _atom_site_fract_y
 _atom_site_fract_z
 _atom_site_occupancy
  Na  Na0  1  0.99644052  0.00043769  0.99124473  1
  Na  Na1  1  0.68643142  0.33930236  0.84143061  1
  Na  Na2  1  0.65534760  0.33318063  0.33851938  1
  Mg  Mg3  1  0.98570880  0.99820316  0.85483544  1
  Mg  Mg4  1  0.68451521  0.34666843  0.97715557  1
  Mg  Mg5  1  0.65031140  0.32959249  0.47817017  1
  Ta  Ta6  1  0.00931028  0.00992727  0.35511766  1
  Ta  Ta7  1  0.99703517  0.98585611  0.64759329  1
  Ta  Ta8  1  0.00057001  0.99203494  0.14812617  1
  Ta  Ta9  1  0.66291028  0.31726980  0.68937827  1
  Ta  Ta10  1  0.67920092  0.34152194  0.19013877  1
  Ta  Ta11  1  0.31860569  0.65329596  0.02046980  1
  Ta  Ta12  1  0.32972997  0.66324533  0.52298054  1
  Ta  Ta13  1  0.33498890  0.65649852  0.30643753  1
  Ta  Ta14  1  0.32194158  0.66643992  0.80931420  1
  Si  Si15  1  0.28992176  0.00163534  0.25074979  1
  Si  Si16  1  0.71969645  0.71644576  0.25212377  1
  Si  Si17  1  0.99743875  0.28065044  0.24927783  1
  Si  Si18  1  0.99085916  0.71056979  0.75433261  1
  Si  Si19  1  0.71653089  0.99406248  0.75345066  1
  Si  Si20  1  0.37779484  0.05010263  0.57970363  1
  Si  Si21  1  0.95126419  0.62291126  0.07988231  1
  Si  Si22  1  0.03283119  0.35977356  0.91410304  1
  Si  Si23  1  0.34183932  0.37985508  0.41670183  1
  S  S24  1  0.28785040  0.28707426  0.75023774  1
  S  S25  1  0.95207460  0.33086994  0.58185986  1
  S  S26  1  0.66696942  0.62103834  0.58202267  1
  S  S27  1  0.66780553  0.04611471  0.08193849  1
  S  S28  1  0.38089447  0.33216400  0.08149794  1
  S  S29  1  0.61734696  0.66424813  0.91692762  1
  S  S30  1  0.33386936  0.95410583  0.91731171  1
  S  S31  1  0.61954042  0.95241419  0.41643694  1
  S  S32  1  0.04612540  0.66480724  0.41700315  1
  O  O33  1  0.19748345  0.03610680  0.30794350  1
  O  O34  1  0.83868779  0.80174335  0.30943514  1
  O  O35  1  0.96373590  0.15989325  0.30744718  1
  O  O36  1  0.22166366  0.18074102  0.80223028  1
  O  O37  1  0.96310448  0.79535705  0.81029487  1
  O  O38  1  0.83768837  0.05250522  0.80820943  1
  O  O39  1  0.80790948  0.97735261  0.69203847  1
  O  O40  1  0.18001607  0.20772089  0.69685997  1
  O  O41  1  0.02571550  0.83049362  0.69360590  1
  O  O42  1  0.80569434  0.83386267  0.19338605  1
  O  O43  1  0.03052551  0.19729447  0.19136708  1
  O  O44  1  0.16604414  0.96918006  0.19365281  1
  O  O45  1  0.87421234  0.36626970  0.63508214  1
  O  O46  1  0.49987394  0.14115101  0.63886974  1
  O  O47  1  0.63523275  0.51502839  0.63489294  1
  O  O48  1  0.86103689  0.50171444  0.14001365  1
  O  O49  1  0.63933077  0.12575812  0.13626486  1
  O  O50  1  0.48539421  0.35677104  0.13537477  1
  O  O51  1  0.45345879  0.29914593  0.02967095  1
  O  O52  1  0.83060454  0.54184616  0.02572675  1
  O  O53  1  0.69519303  0.15269417  0.03081758  1
  O  O54  1  0.46432632  0.16446153  0.52446093  1
  O  O55  1  0.70276681  0.55059354  0.52987612  1
  O  O56  1  0.84989572  0.30695168  0.52974917  1
  O  O57  1  0.52909374  0.68790627  0.97090953  1
  O  O58  1  0.16508930  0.48010438  0.97260528  1
  O  O59  1  0.31754237  0.84238218  0.97028365  1
  O  O60  1  0.53130618  0.84142934  0.46962211  1
  O  O61  1  0.31048907  0.47912378  0.47396130  1
  O  O62  1  0.15893944  0.69462296  0.47045310  1
  O  O63  1  0.13295234  0.64425633  0.36479957  1
  O  O64  1  0.50847031  0.86941946  0.36440544  1
  O  O65  1  0.35088656  0.50424703  0.36122927  1
  O  O66  1  0.15265701  0.49889470  0.86020163  1
  O  O67  1  0.36106637  0.86934858  0.86358429  1
  O  O68  1  0.51105103  0.65011121  0.86438550  1
  O  O69  1  0.03196932  0.82465438  0.41103572  1
  O  O70  1  0.78939228  0.95708795  0.41043313  1
  O  O71  1  0.15808542  0.19065489  0.40795806  1
  O  O72  1  0.04188328  0.18460572  0.91579256  1
  O  O73  1  0.17315370  0.95890836  0.91297260  1
  O  O74  1  0.78984011  0.81992392  0.91481055  1
  O  O75  1  0.98074023  0.18356046  0.59319997  1
  O  O76  1  0.18459461  0.02386371  0.59679658  1
  O  O77  1  0.81937009  0.80173205  0.59180823  1
  O  O78  1  0.98613659  0.82395254  0.09178858  1
  O  O79  1  0.82671729  0.02793721  0.09109432  1
  O  O80  1  0.19887586  0.18230852  0.09062006  1
  O  O81  1  0.68237275  0.16296669  0.73830181  1
  O  O82  1  0.46960957  0.31591929  0.73869022  1
  O  O83  1  0.82676398  0.51817950  0.73495587  1
  O  O84  1  0.68915785  0.51992401  0.24075888  1
  O  O85  1  0.82437776  0.30097205  0.24183363  1
  O  O86  1  0.47877563  0.17183151  0.23794436  1
  O  O87  1  0.61946017  0.49986616  0.92158671  1
  O  O88  1  0.85271300  0.35897232  0.91747419  1
  O  O89  1  0.49072461  0.12511266  0.92384460  1
  O  O90  1  0.64670964  0.12814465  0.42280015  1
  O  O91  1  0.51335597  0.36554974  0.41699737  1
  O  O92  1  0.87637152  0.50868042  0.42508780  1
  O  O93  1  0.36641816  0.49501827  0.07545451  1
  O  O94  1  0.15190125  0.65046896  0.07295057  1
  O  O95  1  0.51403314  0.86738209  0.07559604  1
  O  O96  1  0.35126346  0.84970007  0.57061054  1
  O  O97  1  0.51008220  0.64505115  0.57377900  1
  O  O98  1  0.13127885  0.49395478  0.57518698  1
  O  O99  1  0.30753839  0.83316015  0.26566844  1
  O  O100  1  0.52806524  0.69696425  0.26036397  1
  O  O101  1  0.16253198  0.47477214  0.26074109  1
  O  O102  1  0.31093586  0.46479843  0.75644768  1
  O  O103  1  0.16508085  0.68654592  0.75950353  1
  O  O104  1  0.52021400  0.82474061  0.76159304  1
