# generated using pymatgen
data_MgCo2Te2(MoO6)2
_symmetry_space_group_name_H-M   'P 1'
_cell_length_a   5.10551531
_cell_length_b   5.31780507
_cell_length_c   10.19392311
_cell_angle_alpha   92.05797691
_cell_angle_beta   91.60748973
_cell_angle_gamma   88.82779164
_symmetry_Int_Tables_number   1
_chemical_formula_structural   MgCo2Te2(MoO6)2
_chemical_formula_sum   'Mg1 Co2 Te2 Mo2 O12'
_cell_volume   276.42661669
_cell_formula_units_Z   1
loop_
 _symmetry_equiv_pos_site_id
 _symmetry_equiv_pos_as_xyz
  1  'x, y, z'
loop_
 _atom_site_type_symbol
 _atom_site_label
 _atom_site_symmetry_multiplicity
 _atom_site_fract_x
 _atom_site_fract_y
 _atom_site_fract_z
 _atom_site_occupancy
  Mg  Mg0  1  0.48616400  0.51677500  0.00536400  1
  Co  Co1  1  0.00098700  0.00427200  0.47946400  1
  Co  Co2  1  0.50807300  0.49691400  0.52461100  1
  Te  Te3  1  0.98129900  0.49889800  0.28560300  1
  Te  Te4  1  0.49814200  0.00062200  0.71829300  1
  Mo  Mo5  1  0.97894500  0.47262600  0.77533300  1
  Mo  Mo6  1  0.46937900  0.02250700  0.24058900  1
  O  O7  1  0.20876900  0.81641200  0.31257100  1
  O  O8  1  0.29612100  0.82337400  0.58523000  1
  O  O9  1  0.75431500  0.18916000  0.33397300  1
  O  O10  1  0.73482800  0.19223300  0.61440000  1
  O  O11  1  0.61696200  0.77449000  0.13119300  1
  O  O12  1  0.77748000  0.68224700  0.41381300  1
  O  O13  1  0.21115300  0.64931800  0.88515400  1
  O  O14  1  0.75452200  0.34623000  0.89291000  1
  O  O15  1  0.23158900  0.31363000  0.39776100  1
  O  O16  1  0.75232100  0.69456600  0.68017700  1
  O  O17  1  0.36345000  0.26584400  0.12608100  1
  O  O18  1  0.25049500  0.30238000  0.67605500  1
