# generated using pymatgen
data_Na6TiZn7(SO4)12
_symmetry_space_group_name_H-M   'P 1'
_cell_length_a   17.47510422
_cell_length_b   8.73514240
_cell_length_c   22.48594924
_cell_angle_alpha   89.96753281
_cell_angle_beta   90.03066225
_cell_angle_gamma   120.04599756
_symmetry_Int_Tables_number   1
_chemical_formula_structural   Na6TiZn7(SO4)12
_chemical_formula_sum   'Na18 Ti3 Zn21 S36 O144'
_cell_volume   2971.18744017
_cell_formula_units_Z   3
loop_
 _symmetry_equiv_pos_site_id
 _symmetry_equiv_pos_as_xyz
  1  'x, y, z'
loop_
 _atom_site_type_symbol
 _atom_site_label
 _atom_site_symmetry_multiplicity
 _atom_site_fract_x
 _atom_site_fract_y
 _atom_site_fract_z
 _atom_site_occupancy
  Na  Na0  1  0.31920227  0.63777741  0.74946914  1
  Na  Na1  1  0.65052556  0.33264273  0.58435571  1
  Na  Na2  1  0.98580163  0.66687763  0.91731797  1
  Na  Na3  1  0.66610137  0.30239932  0.91544433  1
  Na  Na4  1  0.16696783  0.03011895  0.41709668  1
  Na  Na5  1  0.66645596  0.02999334  0.41697770  1
  Na  Na6  1  0.99422512  0.00127115  0.49672519  1
  Na  Na7  1  0.48554993  0.98237030  0.50096520  1
  Na  Na8  1  0.00258141  0.01628213  0.99833803  1
  Na  Na9  1  0.49146999  0.98529648  0.99638179  1
  Na  Na10  1  0.33705815  0.32453914  0.83618705  1
  Na  Na11  1  0.83142348  0.31776439  0.82939217  1
  Na  Na12  1  0.33996837  0.34525751  0.33276449  1
  Na  Na13  1  0.84027035  0.34592948  0.33234006  1
  Na  Na14  1  0.16718937  0.66690103  0.16616010  1
  Na  Na15  1  0.66613121  0.66645475  0.16634956  1
  Na  Na16  1  0.16458582  0.67154127  0.66385566  1
  Na  Na17  1  0.66330647  0.67514945  0.66923226  1
  Ti  Ti18  1  0.00053153  0.00170224  0.64898131  1
  Ti  Ti19  1  0.00079280  0.00100708  0.14915800  1
  Ti  Ti20  1  0.49917764  0.99946104  0.14868093  1
  Zn  Zn21  1  0.99618091  0.99913280  0.34961505  1
  Zn  Zn22  1  0.49557846  0.99916911  0.34973438  1
  Zn  Zn23  1  0.00112935  0.00815113  0.84966993  1
  Zn  Zn24  1  0.49649064  0.99556600  0.84820420  1
  Zn  Zn25  1  0.49698035  0.99309453  0.65169371  1
  Zn  Zn26  1  0.33754137  0.33162158  0.68007715  1
  Zn  Zn27  1  0.83096200  0.32919041  0.68381792  1
  Zn  Zn28  1  0.33335922  0.33305215  0.18201828  1
  Zn  Zn29  1  0.83306936  0.33322108  0.18259653  1
  Zn  Zn30  1  0.33358893  0.33704741  0.98469104  1
  Zn  Zn31  1  0.83307858  0.32079453  0.98769871  1
  Zn  Zn32  1  0.33709028  0.34281363  0.48542055  1
  Zn  Zn33  1  0.84080773  0.34056430  0.48519175  1
  Zn  Zn34  1  0.16976854  0.66761555  0.01594576  1
  Zn  Zn35  1  0.66462658  0.66843720  0.01603378  1
  Zn  Zn36  1  0.16874557  0.66206986  0.51615434  1
  Zn  Zn37  1  0.66521607  0.67096613  0.51421570  1
  Zn  Zn38  1  0.16673741  0.66330365  0.31650512  1
  Zn  Zn39  1  0.66660981  0.66340051  0.31547381  1
  Zn  Zn40  1  0.16736772  0.67374660  0.81926066  1
  Zn  Zn41  1  0.66437754  0.66431775  0.81645266  1
  S  S42  1  0.14681505  0.00100359  0.25057648  1
  S  S43  1  0.64638119  0.00115378  0.25044625  1
  S  S44  1  0.35399943  0.70673097  0.24957866  1
  S  S45  1  0.85437807  0.70761704  0.24949822  1
  S  S46  1  0.99956632  0.29207376  0.24953145  1
  S  S47  1  0.49944619  0.29150479  0.24952117  1
  S  S48  1  0.14635098  0.29184697  0.74941020  1
  S  S49  1  0.64927758  0.29808964  0.75005265  1
  S  S50  1  0.99957139  0.70754184  0.75045987  1
  S  S51  1  0.50106698  0.70392418  0.74965678  1
  S  S52  1  0.35082259  0.00133177  0.75037011  1
  S  S53  1  0.85499845  0.00126701  0.74971464  1
  S  S54  1  0.48204768  0.33367367  0.58260621  1
  S  S55  1  0.98112413  0.33251738  0.58555124  1
  S  S56  1  0.18365344  0.03532190  0.58418338  1
  S  S57  1  0.68606382  0.03621536  0.58227898  1
  S  S58  1  0.33251672  0.63006788  0.58479177  1
  S  S59  1  0.83537533  0.63114431  0.58440819  1
  S  S60  1  0.48119654  0.63016152  0.08517589  1
  S  S61  1  0.98204841  0.63131974  0.08392629  1
  S  S62  1  0.33370221  0.03833882  0.08482525  1
  S  S63  1  0.83391884  0.03563789  0.08557677  1
  S  S64  1  0.18518837  0.33250516  0.08503212  1
  S  S65  1  0.68415976  0.33252960  0.08405227  1
  S  S66  1  0.31495732  0.66480456  0.91559635  1
  S  S67  1  0.81412668  0.66927787  0.91742206  1
  S  S68  1  0.01948825  0.37154851  0.91707206  1
  S  S69  1  0.51782646  0.37152376  0.91706538  1
  S  S70  1  0.16768045  0.96510315  0.91722178  1
  S  S71  1  0.66727582  0.96136207  0.91655157  1
  S  S72  1  0.31439886  0.96176897  0.41683365  1
  S  S73  1  0.81440627  0.96042787  0.41665003  1
  S  S74  1  0.16675873  0.37139934  0.41616244  1
  S  S75  1  0.66729103  0.37161437  0.41746175  1
  S  S76  1  0.01926797  0.66409663  0.41642176  1
  S  S77  1  0.51794218  0.66488441  0.41503763  1
  O  O78  1  0.10765984  0.02370934  0.30580633  1
  O  O79  1  0.60765692  0.02389140  0.30583690  1
  O  O80  1  0.40621346  0.78560370  0.30354421  1
  O  O81  1  0.90642165  0.78617466  0.30359794  1
  O  O82  1  0.48793713  0.18851356  0.30362036  1
  O  O83  1  0.98751659  0.18822727  0.30360080  1
  O  O84  1  0.10665762  0.18759052  0.80336934  1
  O  O85  1  0.60766602  0.19253967  0.80470402  1
  O  O86  1  0.48516947  0.78409769  0.80296040  1
  O  O87  1  0.98812397  0.78505351  0.80594445  1
  O  O88  1  0.40370371  0.02699999  0.80450151  1
  O  O89  1  0.90655813  0.02466002  0.80373711  1
  O  O90  1  0.39076926  0.96889803  0.69702367  1
  O  O91  1  0.90440133  0.98486202  0.69608045  1
  O  O92  1  0.08948295  0.19624446  0.69569171  1
  O  O93  1  0.59708582  0.21539668  0.69513464  1
  O  O94  1  0.00802191  0.82590639  0.69773224  1
  O  O95  1  0.51309270  0.80910623  0.69545118  1
  O  O96  1  0.40285075  0.82332369  0.19584863  1
  O  O97  1  0.90299280  0.82363436  0.19594767  1
  O  O98  1  0.00807747  0.19385797  0.19575777  1
  O  O99  1  0.50804009  0.19365945  0.19578272  1
  O  O100  1  0.08752700  0.98392666  0.19778316  1
  O  O101  1  0.58754942  0.98403271  0.19774892  1
  O  O102  1  0.44364583  0.35997271  0.63727479  1
  O  O103  1  0.93964259  0.35843593  0.63832183  1
  O  O104  1  0.23893892  0.12220002  0.63620538  1
  O  O105  1  0.74058812  0.12208064  0.63531772  1
  O  O106  1  0.32103847  0.52820946  0.64067317  1
  O  O107  1  0.81994979  0.51930881  0.63725865  1
  O  O108  1  0.44099617  0.52319785  0.13845178  1
  O  O109  1  0.93866306  0.52004930  0.13592816  1
  O  O110  1  0.32053530  0.11786968  0.13836074  1
  O  O111  1  0.82076232  0.11839172  0.13822233  1
  O  O112  1  0.23837123  0.35867460  0.13837774  1
  O  O113  1  0.73984573  0.35710505  0.13598241  1
  O  O114  1  0.22028902  0.29464318  0.03109608  1
  O  O115  1  0.71872191  0.29795560  0.02825914  1
  O  O116  1  0.42738247  0.55979340  0.03110016  1
  O  O117  1  0.92963670  0.56223798  0.02822335  1
  O  O118  1  0.35215386  0.14697615  0.03108388  1
  O  O119  1  0.85359472  0.14332166  0.03107347  1
  O  O120  1  0.21687036  0.13749330  0.52842126  1
  O  O121  1  0.72562979  0.14644657  0.52743119  1
  O  O122  1  0.34377455  0.54389327  0.53183232  1
  O  O123  1  0.85335446  0.55996093  0.53039200  1
  O  O124  1  0.42870879  0.30783769  0.52900560  1
  O  O125  1  0.92783095  0.29311393  0.53111035  1
  O  O126  1  0.27211806  0.69021665  0.96816076  1
  O  O127  1  0.77410088  0.69254105  0.97153529  1
  O  O128  1  0.07179130  0.45299314  0.97115239  1
  O  O129  1  0.57481404  0.45119208  0.97030778  1
  O  O130  1  0.15048185  0.84947043  0.96985182  1
  O  O131  1  0.65593714  0.85977340  0.97115510  1
  O  O132  1  0.27360363  0.85604807  0.47088793  1
  O  O133  1  0.77414771  0.85491877  0.47075172  1
  O  O134  1  0.15377972  0.45002224  0.47012091  1
  O  O135  1  0.65619851  0.44895457  0.47330571  1
  O  O136  1  0.07522436  0.69513405  0.46972316  1
  O  O137  1  0.57361623  0.69841002  0.46875857  1
  O  O138  1  0.05923840  0.64022808  0.36175489  1
  O  O139  1  0.55946748  0.64111413  0.36111585  1
  O  O140  1  0.25852445  0.88233052  0.36296871  1
  O  O141  1  0.75827029  0.88010732  0.36302697  1
  O  O142  1  0.17888921  0.47487258  0.36161376  1
  O  O143  1  0.67864438  0.47975682  0.36427029  1
  O  O144  1  0.05919884  0.48248463  0.86314077  1
  O  O145  1  0.55855630  0.47705453  0.86284609  1
  O  O146  1  0.17898191  0.88534065  0.86229885  1
  O  O147  1  0.68037479  0.88217432  0.86248535  1
  O  O148  1  0.26416042  0.64008607  0.85928419  1
  O  O149  1  0.75966200  0.63961987  0.86368638  1
  O  O150  1  0.01225123  0.82841859  0.41168125  1
  O  O151  1  0.51127635  0.82925222  0.41005560  1
  O  O152  1  0.40332998  0.98217105  0.41112975  1
  O  O153  1  0.90352732  0.98138681  0.41113238  1
  O  O154  1  0.08754341  0.18811449  0.41163338  1
  O  O155  1  0.58795878  0.19011917  0.41255959  1
  O  O156  1  0.00823864  0.19266580  0.91128921  1
  O  O157  1  0.51155476  0.19392443  0.91184940  1
  O  O158  1  0.08483369  0.97749515  0.91230069  1
  O  O159  1  0.58847800  0.98577436  0.91162182  1
  O  O160  1  0.40414904  0.82594000  0.91137590  1
  O  O161  1  0.90543654  0.82384920  0.91187502  1
  O  O162  1  0.49386143  0.17551250  0.58752591  1
  O  O163  1  0.99053336  0.16777317  0.59458300  1
  O  O164  1  0.09241854  0.01796955  0.59407614  1
  O  O165  1  0.59791834  0.02441911  0.58756778  1
  O  O166  1  0.41309710  0.80845636  0.58853887  1
  O  O167  1  0.91525123  0.81331041  0.59336313  1
  O  O168  1  0.49069399  0.81358467  0.09397113  1
  O  O169  1  0.99068631  0.81292605  0.09297784  1
  O  O170  1  0.41594499  0.01878554  0.09355205  1
  O  O171  1  0.91596012  0.01753922  0.09404357  1
  O  O172  1  0.09327867  0.16736945  0.09396947  1
  O  O173  1  0.59367524  0.16792870  0.09308251  1
  O  O174  1  0.33944719  0.15712148  0.74395988  1
  O  O175  1  0.84725657  0.16073879  0.74258569  1
  O  O176  1  0.23540959  0.31465887  0.74232606  1
  O  O177  1  0.73833701  0.31436392  0.74614273  1
  O  O178  1  0.41864013  0.52611042  0.74487184  1
  O  O179  1  0.92024389  0.53300079  0.74255239  1
  O  O180  1  0.34536434  0.53160764  0.24193397  1
  O  O181  1  0.84582143  0.53229028  0.24185659  1
  O  O182  1  0.42062492  0.30914305  0.24236770  1
  O  O183  1  0.92057799  0.30956403  0.24220232  1
  O  O184  1  0.23395299  0.15945207  0.24280422  1
  O  O185  1  0.73393206  0.16003815  0.24283848  1
  O  O186  1  0.32357322  0.50473897  0.92148170  1
  O  O187  1  0.82334125  0.50630971  0.92219088  1
  O  O188  1  0.42925076  0.35104981  0.92365191  1
  O  O189  1  0.93049808  0.35880932  0.92197395  1
  O  O190  1  0.24607984  0.14186619  0.92369579  1
  O  O191  1  0.74672474  0.14531961  0.92131880  1
  O  O192  1  0.32111977  0.13943358  0.42223404  1
  O  O193  1  0.82126047  0.13816974  0.42168365  1
  O  O194  1  0.24567558  0.34708688  0.42109391  1
  O  O195  1  0.74643403  0.34808130  0.42129084  1
  O  O196  1  0.42917741  0.50760527  0.42103581  1
  O  O197  1  0.92983482  0.50684040  0.42229062  1
  O  O198  1  0.17103833  0.48461355  0.07890800  1
  O  O199  1  0.67108340  0.48582278  0.07886068  1
  O  O200  1  0.07165804  0.65752947  0.07862090  1
  O  O201  1  0.57135328  0.65773641  0.07929685  1
  O  O202  1  0.25717778  0.85794148  0.07879277  1
  O  O203  1  0.75699712  0.85667896  0.07925412  1
  O  O204  1  0.16942858  0.85501307  0.57945561  1
  O  O205  1  0.67593140  0.85877697  0.57712376  1
  O  O206  1  0.25253314  0.64822185  0.57987052  1
  O  O207  1  0.75579983  0.64932452  0.57848658  1
  O  O208  1  0.07059156  0.48544971  0.57947242  1
  O  O209  1  0.57332548  0.49170967  0.57760833  1
  O  O210  1  0.15072720  0.83627145  0.25070364  1
  O  O211  1  0.65107628  0.83692922  0.25074575  1
  O  O212  1  0.26757369  0.69847911  0.25065710  1
  O  O213  1  0.76769470  0.69861367  0.25064000  1
  O  O214  1  0.08183228  0.46488877  0.25034453  1
  O  O215  1  0.58219761  0.46476590  0.25020711  1
  O  O216  1  0.15301399  0.46756499  0.75058229  1
  O  O217  1  0.65873652  0.47653670  0.75434945  1
  O  O218  1  0.08138656  0.69864332  0.75078099  1
  O  O219  1  0.58010878  0.68436333  0.75538092  1
  O  O220  1  0.26224295  0.83471868  0.75538118  1
  O  O221  1  0.76847220  0.83805497  0.75015979  1
