# generated using pymatgen
data_Na6CaTi3Si2(PO6)4
_symmetry_space_group_name_H-M   'P 1'
_cell_length_a   15.63548761
_cell_length_b   8.97121128
_cell_length_c   8.98887560
_cell_angle_alpha   89.76692424
_cell_angle_beta   125.09892255
_cell_angle_gamma   90.34479396
_symmetry_Int_Tables_number   1
_chemical_formula_structural   Na6CaTi3Si2(PO6)4
_chemical_formula_sum   'Na12 Ca2 Ti6 Si4 P8 O48'
_cell_volume   1031.56933888
_cell_formula_units_Z   2
loop_
 _symmetry_equiv_pos_site_id
 _symmetry_equiv_pos_as_xyz
  1  'x, y, z'
loop_
 _atom_site_type_symbol
 _atom_site_label
 _atom_site_symmetry_multiplicity
 _atom_site_fract_x
 _atom_site_fract_y
 _atom_site_fract_z
 _atom_site_occupancy
  Na  Na0  1  0.25087344  0.74339048  0.99687497  1
  Na  Na1  1  0.75132277  0.74732397  0.49605053  1
  Na  Na2  1  0.75087344  0.24339048  0.99687497  1
  Na  Na3  1  0.25132277  0.24732397  0.49605053  1
  Na  Na4  1  0.51253439  0.10458182  0.77542885  1
  Na  Na5  1  0.49947298  0.88325733  0.24427570  1
  Na  Na6  1  0.01253439  0.60458182  0.77542885  1
  Na  Na7  1  0.99947298  0.38325733  0.24427570  1
  Na  Na8  1  0.80135890  0.93755850  0.24280376  1
  Na  Na9  1  0.17787684  0.06758995  0.76916254  1
  Na  Na10  1  0.30135890  0.43755850  0.24280376  1
  Na  Na11  1  0.67787684  0.56758995  0.76916254  1
  Ca  Ca12  1  0.10292346  0.24004097  0.06109730  1
  Ca  Ca13  1  0.60292346  0.74004097  0.06109730  1
  Ti  Ti14  1  0.10411339  0.74280859  0.55364385  1
  Ti  Ti15  1  0.89279423  0.75669720  0.93889689  1
  Ti  Ti16  1  0.89780554  0.25763695  0.44732656  1
  Ti  Ti17  1  0.60411339  0.24280859  0.55364385  1
  Ti  Ti18  1  0.39279423  0.25669720  0.93889689  1
  Ti  Ti19  1  0.39780554  0.75763695  0.44732656  1
  Si  Si20  1  0.65183389  0.90208067  0.75055869  1
  Si  Si21  1  0.36030212  0.09709807  0.25412775  1
  Si  Si22  1  0.15183389  0.40208067  0.75055869  1
  Si  Si23  1  0.86030212  0.59709807  0.25412775  1
  P  P24  1  0.99444041  0.94727300  0.73437636  1
  P  P25  1  0.99571881  0.03662152  0.26047968  1
  P  P26  1  0.49444041  0.44727300  0.73437636  1
  P  P27  1  0.49571881  0.53662152  0.26047968  1
  P  P28  1  0.35137476  0.90003374  0.75537333  1
  P  P29  1  0.64530023  0.12439724  0.24611425  1
  P  P30  1  0.85137476  0.40003374  0.75537333  1
  P  P31  1  0.14530023  0.62439724  0.24611425  1
  O  O32  1  0.16346640  0.57820133  0.71411863  1
  O  O33  1  0.85364966  0.57394132  0.74751255  1
  O  O34  1  0.85485112  0.41278693  0.26613711  1
  O  O35  1  0.15224828  0.45369592  0.26949894  1
  O  O36  1  0.66346640  0.07820133  0.71411863  1
  O  O37  1  0.35364966  0.07394132  0.74751255  1
  O  O38  1  0.35485112  0.91278693  0.26613711  1
  O  O39  1  0.65224828  0.95369592  0.26949894  1
  O  O40  1  0.42885964  0.54861866  0.56178227  1
  O  O41  1  0.57423999  0.54024139  0.89791397  1
  O  O42  1  0.54867598  0.43873325  0.43087551  1
  O  O43  1  0.43837087  0.42951777  0.08812037  1
  O  O44  1  0.92885964  0.04861866  0.56178227  1
  O  O45  1  0.07423999  0.04024139  0.89791397  1
  O  O46  1  0.04867598  0.93873325  0.43087551  1
  O  O47  1  0.93837087  0.92951777  0.08812037  1
  O  O48  1  0.24596967  0.85383206  0.72093511  1
  O  O49  1  0.74646128  0.80565288  0.76475075  1
  O  O50  1  0.74126020  0.18351018  0.25359231  1
  O  O51  1  0.27780498  0.18720119  0.26805223  1
  O  O52  1  0.74596967  0.35383206  0.72093511  1
  O  O53  1  0.24646128  0.30565288  0.76475075  1
  O  O54  1  0.24126020  0.68351018  0.25359231  1
  O  O55  1  0.77780498  0.68720119  0.26805223  1
  O  O56  1  0.36356252  0.84292313  0.60071304  1
  O  O57  1  0.65255440  0.90044772  0.92946671  1
  O  O58  1  0.64753688  0.19482163  0.40469444  1
  O  O59  1  0.35732495  0.13442952  0.06748023  1
  O  O60  1  0.86356252  0.34292313  0.60071304  1
  O  O61  1  0.15255440  0.40044772  0.92946671  1
  O  O62  1  0.14753688  0.69482163  0.40469444  1
  O  O63  1  0.85732495  0.63442952  0.06748023  1
  O  O64  1  0.44083682  0.84008664  0.93881331  1
  O  O65  1  0.53832218  0.82218378  0.57846675  1
  O  O66  1  0.54173102  0.17148995  0.06364950  1
  O  O67  1  0.47962532  0.14320452  0.42032519  1
  O  O68  1  0.94083682  0.34008664  0.93881331  1
  O  O69  1  0.03832218  0.32218378  0.57846675  1
  O  O70  1  0.04173102  0.67148995  0.06364950  1
  O  O71  1  0.97962532  0.64320452  0.42032519  1
  O  O72  1  0.06262277  0.83075491  0.71510265  1
  O  O73  1  0.91817146  0.85408309  0.75643307  1
  O  O74  1  0.90703980  0.12913090  0.24688980  1
  O  O75  1  0.07476761  0.14212132  0.26808452  1
  O  O76  1  0.56262277  0.33075491  0.71510265  1
  O  O77  1  0.41817146  0.35408309  0.75643307  1
  O  O78  1  0.40703980  0.62913090  0.24688980  1
  O  O79  1  0.57476761  0.64212132  0.26808452  1
