# generated using pymatgen
data_NaGaBr4
_symmetry_space_group_name_H-M   'P 1'
_cell_length_a   7.52323061
_cell_length_b   7.54347220
_cell_length_c   13.81944492
_cell_angle_alpha   90.00000000
_cell_angle_beta   90.00000000
_cell_angle_gamma   90.00000000
_symmetry_Int_Tables_number   1
_chemical_formula_structural   NaGaBr4
_chemical_formula_sum   'Na4 Ga4 Br16'
_cell_volume   784.27120138
_cell_formula_units_Z   4
loop_
 _symmetry_equiv_pos_site_id
 _symmetry_equiv_pos_as_xyz
  1  'x, y, z'
loop_
 _atom_site_type_symbol
 _atom_site_label
 _atom_site_symmetry_multiplicity
 _atom_site_fract_x
 _atom_site_fract_y
 _atom_site_fract_z
 _atom_site_occupancy
  Na  Na0  1  0.25000000  0.04971279  0.65403855  1
  Na  Na1  1  0.75000000  0.54971279  0.84596145  1
  Na  Na2  1  0.75000000  0.95028721  0.34596145  1
  Na  Na3  1  0.25000000  0.45028721  0.15403855  1
  Ga  Ga4  1  0.25000000  0.19996602  0.39964909  1
  Ga  Ga5  1  0.75000000  0.69996602  0.10035091  1
  Ga  Ga6  1  0.75000000  0.80003398  0.60035091  1
  Ga  Ga7  1  0.25000000  0.30003398  0.89964909  1
  Br  Br8  1  0.25000000  0.37659215  0.53712314  1
  Br  Br9  1  0.75000000  0.87659215  0.96287686  1
  Br  Br10  1  0.75000000  0.62340785  0.46287686  1
  Br  Br11  1  0.25000000  0.12340785  0.03712314  1
  Br  Br12  1  0.25000000  0.90210324  0.44759907  1
  Br  Br13  1  0.75000000  0.40210324  0.05240093  1
  Br  Br14  1  0.75000000  0.09789676  0.55240093  1
  Br  Br15  1  0.25000000  0.59789676  0.94759907  1
  Br  Br16  1  0.00310064  0.23918458  0.80014344  1
  Br  Br17  1  0.99689936  0.73918458  0.69985656  1
  Br  Br18  1  0.50310064  0.76081542  0.19985656  1
  Br  Br19  1  0.49689936  0.26081542  0.30014344  1
  Br  Br20  1  0.99689936  0.76081542  0.19985656  1
  Br  Br21  1  0.00310064  0.26081542  0.30014344  1
  Br  Br22  1  0.49689936  0.23918458  0.80014344  1
  Br  Br23  1  0.50310064  0.73918458  0.69985656  1
