# generated using pymatgen
data_Na3MgVO4
_symmetry_space_group_name_H-M   'P 1'
_cell_length_a   6.40837988
_cell_length_b   6.40362689
_cell_length_c   5.74983663
_cell_angle_alpha   126.03534722
_cell_angle_beta   126.06298493
_cell_angle_gamma   86.76664973
_symmetry_Int_Tables_number   1
_chemical_formula_structural   Na3MgVO4
_chemical_formula_sum   'Na3 Mg1 V1 O4'
_cell_volume   138.24412211
_cell_formula_units_Z   1
loop_
 _symmetry_equiv_pos_site_id
 _symmetry_equiv_pos_as_xyz
  1  'x, y, z'
loop_
 _atom_site_type_symbol
 _atom_site_label
 _atom_site_symmetry_multiplicity
 _atom_site_fract_x
 _atom_site_fract_y
 _atom_site_fract_z
 _atom_site_occupancy
  Na  Na0  1  0.42490545  0.43280286  0.00000000  1
  Na  Na1  1  0.73857387  0.23730582  0.49824375  1
  Na  Na2  1  0.24033012  0.73906207  0.50175625  1
  Mg  Mg3  1  0.73780699  0.73448381  -0.00000000  1
  V  V4  1  0.02460549  0.02224731  -0.00000000  1
  O  O5  1  0.71855676  0.04249098  -0.00000000  1
  O  O6  1  0.38050534  0.37897697  0.49394656  1
  O  O7  1  0.88655878  0.88503041  0.50605344  1
  O  O8  1  0.04607422  0.71509978  0.00000000  1
