# generated using pymatgen
data_Hg4P2O7
_symmetry_space_group_name_H-M   'P 1'
_cell_length_a   4.89778423
_cell_length_b   9.20256530
_cell_length_c   12.25502984
_cell_angle_alpha   51.06547123
_cell_angle_beta   90.00000000
_cell_angle_gamma   90.00000000
_symmetry_Int_Tables_number   1
_chemical_formula_structural   Hg4P2O7
_chemical_formula_sum   'Hg8 P4 O14'
_cell_volume   429.66197556
_cell_formula_units_Z   2
loop_
 _symmetry_equiv_pos_site_id
 _symmetry_equiv_pos_as_xyz
  1  'x, y, z'
loop_
 _atom_site_type_symbol
 _atom_site_label
 _atom_site_symmetry_multiplicity
 _atom_site_fract_x
 _atom_site_fract_y
 _atom_site_fract_z
 _atom_site_occupancy
  Hg  Hg0  1  0.44125730  0.05847445  0.12337087  1
  Hg  Hg1  1  0.44125730  0.94152555  0.37662913  1
  Hg  Hg2  1  0.55874270  0.94152555  0.87662913  1
  Hg  Hg3  1  0.55874270  0.05847445  0.62337087  1
  Hg  Hg4  1  0.67518659  0.58200322  0.40097632  1
  Hg  Hg5  1  0.67518659  0.41799678  0.09902368  1
  Hg  Hg6  1  0.32481341  0.41799678  0.59902368  1
  Hg  Hg7  1  0.32481341  0.58200322  0.90097632  1
  P  P8  1  0.10036506  0.29353286  0.35618736  1
  P  P9  1  0.10036506  0.70646714  0.14381264  1
  P  P10  1  0.89963494  0.70646714  0.64381264  1
  P  P11  1  0.89963494  0.29353286  0.85618736  1
  O  O12  1  0.34880060  0.83420897  0.07799487  1
  O  O13  1  0.34880060  0.16579103  0.42200513  1
  O  O14  1  0.65119940  0.16579103  0.92200513  1
  O  O15  1  0.65119940  0.83420897  0.57799487  1
  O  O16  1  0.23466013  0.50000000  0.25000000  1
  O  O17  1  0.76533987  0.50000000  0.75000000  1
  O  O18  1  0.92400222  0.29231710  0.45754864  1
  O  O19  1  0.92400222  0.70768290  0.04245136  1
  O  O20  1  0.07599778  0.70768290  0.54245136  1
  O  O21  1  0.07599778  0.29231710  0.95754864  1
  O  O22  1  0.95479975  0.25276823  0.26802236  1
  O  O23  1  0.95479975  0.74723177  0.23197764  1
  O  O24  1  0.04520025  0.25276823  0.76802236  1
  O  O25  1  0.04520025  0.74723177  0.73197764  1
