# generated using pymatgen
data_Na3ZnSn(PO4)3
_symmetry_space_group_name_H-M   'P 1'
_cell_length_a   8.99217120
_cell_length_b   8.99747614
_cell_length_c   22.07730466
_cell_angle_alpha   90.00000000
_cell_angle_beta   90.08988955
_cell_angle_gamma   120.01951959
_symmetry_Int_Tables_number   1
_chemical_formula_structural   Na3ZnSn(PO4)3
_chemical_formula_sum   'Na18 Zn6 Sn6 P18 O72'
_cell_volume   1546.59208749
_cell_formula_units_Z   6
loop_
 _symmetry_equiv_pos_site_id
 _symmetry_equiv_pos_as_xyz
  1  'x, y, z'
loop_
 _atom_site_type_symbol
 _atom_site_label
 _atom_site_symmetry_multiplicity
 _atom_site_fract_x
 _atom_site_fract_y
 _atom_site_fract_z
 _atom_site_occupancy
  Na  Na0  1  0.98219278  0.96638702  0.49331210  1
  Na  Na1  1  0.98219278  0.01580576  0.99331210  1
  Na  Na2  1  0.66661489  0.33774065  0.82663711  1
  Na  Na3  1  0.66661489  0.32887324  0.32663711  1
  Na  Na4  1  0.32929575  0.66248551  0.15996815  1
  Na  Na5  1  0.32929575  0.66681125  0.65996815  1
  Na  Na6  1  0.37080526  0.36033028  0.24577014  1
  Na  Na7  1  0.98756688  0.63222885  0.24602183  1
  Na  Na8  1  0.98756688  0.35533803  0.74602183  1
  Na  Na9  1  0.37080526  0.01047498  0.74577014  1
  Na  Na10  1  0.30940457  0.34487949  0.57908524  1
  Na  Na11  1  0.65627704  0.96285068  0.57943993  1
  Na  Na12  1  0.30940457  0.96452408  0.07908524  1
  Na  Na13  1  0.65627704  0.69342536  0.07943993  1
  Na  Na14  1  0.97764366  0.68086499  0.91206918  1
  Na  Na15  1  0.32265240  0.29604470  0.91279443  1
  Na  Na16  1  0.97764366  0.29677967  0.41206918  1
  Na  Na17  1  0.32265240  0.02660870  0.41279443  1
  Zn  Zn18  1  0.99035143  0.99462430  0.34930293  1
  Zn  Zn19  1  0.99035143  0.99572714  0.84930293  1
  Zn  Zn20  1  0.67021339  0.34378049  0.68266422  1
  Zn  Zn21  1  0.67021339  0.32643190  0.18266422  1
  Zn  Zn22  1  0.33030959  0.66160428  0.01618943  1
  Zn  Zn23  1  0.33030959  0.66870632  0.51618943  1
  Sn  Sn24  1  0.99640346  0.99335838  0.65052512  1
  Sn  Sn25  1  0.99640346  0.00304508  0.15052512  1
  Sn  Sn26  1  0.67055712  0.32788783  0.98371626  1
  Sn  Sn27  1  0.67055712  0.34266829  0.48371626  1
  Sn  Sn28  1  0.34026920  0.67203503  0.31711279  1
  Sn  Sn29  1  0.34026920  0.66823517  0.81711279  1
  P  P30  1  0.29541710  0.99798414  0.25259425  1
  P  P31  1  0.70176721  0.70554983  0.25007316  1
  P  P32  1  0.00352014  0.29971417  0.25479996  1
  P  P33  1  0.29541710  0.29743296  0.75259425  1
  P  P34  1  0.00352014  0.70380597  0.75479996  1
  P  P35  1  0.70176721  0.99621738  0.75007316  1
  P  P36  1  0.96347169  0.33106367  0.58659442  1
  P  P37  1  0.36828094  0.03843670  0.58615503  1
  P  P38  1  0.66944680  0.63080838  0.58490781  1
  P  P39  1  0.96347169  0.63240703  0.08659442  1
  P  P40  1  0.66944680  0.03863742  0.08490781  1
  P  P41  1  0.36828094  0.32984323  0.08615503  1
  P  P42  1  0.63047033  0.66451459  0.92183387  1
  P  P43  1  0.03721905  0.37241224  0.91669420  1
  P  P44  1  0.33919656  0.96657014  0.91899041  1
  P  P45  1  0.63047033  0.96595674  0.42183387  1
  P  P46  1  0.33919656  0.37262742  0.41899041  1
  P  P47  1  0.03721905  0.66480781  0.41669420  1
  O  O48  1  0.21073131  0.02079583  0.30880502  1
  O  O49  1  0.81960542  0.79656920  0.30252397  1
  O  O50  1  0.98883300  0.20450676  0.31315660  1
  O  O51  1  0.21073131  0.18993548  0.80880502  1
  O  O52  1  0.98883300  0.78432624  0.81315660  1
  O  O53  1  0.81960542  0.02303622  0.80252397  1
  O  O54  1  0.77515110  0.96934490  0.68863455  1
  O  O55  1  0.17714226  0.21600007  0.69431874  1
  O  O56  1  0.03972944  0.82633257  0.69910493  1
  O  O57  1  0.77515110  0.80580620  0.18863455  1
  O  O58  1  0.03972944  0.21339687  0.19910493  1
  O  O59  1  0.17714226  0.96114219  0.19431874  1
  O  O60  1  0.87854289  0.34492805  0.64386793  1
  O  O61  1  0.47584528  0.12348221  0.64238805  1
  O  O62  1  0.64174018  0.51748417  0.63887476  1
  O  O63  1  0.87854289  0.53361383  0.14386793  1
  O  O64  1  0.64174018  0.12425501  0.13887476  1
  O  O65  1  0.47584528  0.35236207  0.14238805  1
  O  O66  1  0.45047975  0.29416138  0.02807354  1
  O  O67  1  0.84823168  0.54912695  0.02837281  1
  O  O68  1  0.70054256  0.14439106  0.02511578  1
  O  O69  1  0.45047975  0.15631737  0.52807354  1
  O  O70  1  0.70054256  0.55615050  0.52511578  1
  O  O71  1  0.84823168  0.29910373  0.52837281  1
  O  O72  1  0.55086470  0.68134996  0.97992141  1
  O  O73  1  0.15384808  0.46209056  0.96997430  1
  O  O74  1  0.31951494  0.86032801  0.97501551  1
  O  O75  1  0.55086470  0.86951573  0.47992141  1
  O  O76  1  0.31951494  0.45918793  0.47501551  1
  O  O77  1  0.15384808  0.69175852  0.46997430  1
  O  O78  1  0.11251354  0.62864240  0.35675617  1
  O  O79  1  0.50728550  0.88249828  0.36582326  1
  O  O80  1  0.36235049  0.47833541  0.35935250  1
  O  O81  1  0.11251354  0.48387213  0.85675617  1
  O  O82  1  0.36235049  0.88401608  0.85935250  1
  O  O83  1  0.50728550  0.62478822  0.86582326  1
  O  O84  1  0.01484204  0.82096245  0.41014482  1
  O  O85  1  0.81113895  0.99487912  0.41322988  1
  O  O86  1  0.18058563  0.19153860  0.41436819  1
  O  O87  1  0.01484204  0.19387959  0.91014482  1
  O  O88  1  0.18058563  0.98904702  0.91436819  1
  O  O89  1  0.81113895  0.81625984  0.91322988  1
  O  O90  1  0.97395095  0.15918499  0.58683250  1
  O  O91  1  0.18890941  0.03060198  0.58845142  1
  O  O92  1  0.83367798  0.81499846  0.58785460  1
  O  O93  1  0.97395095  0.81476597  0.08683250  1
  O  O94  1  0.83367798  0.01867952  0.08785460  1
  O  O95  1  0.18890941  0.15830743  0.08845142  1
  O  O96  1  0.67598121  0.15268599  0.74586311  1
  O  O97  1  0.47178625  0.31489114  0.74526852  1
  O  O98  1  0.85237372  0.52226618  0.74679760  1
  O  O99  1  0.67598121  0.52329422  0.24586311  1
  O  O100  1  0.85237372  0.33010654  0.24679760  1
  O  O101  1  0.47178625  0.15689411  0.24526852  1
  O  O102  1  0.64291919  0.49372021  0.92227530  1
  O  O103  1  0.86007362  0.36844143  0.92073309  1
  O  O104  1  0.50203809  0.15225889  0.91988784  1
  O  O105  1  0.64291919  0.14919797  0.42227530  1
  O  O106  1  0.50203809  0.34977820  0.41988784  1
  O  O107  1  0.86007362  0.49163119  0.42073309  1
  O  O108  1  0.34918595  0.48783268  0.07901571  1
  O  O109  1  0.14599772  0.66428226  0.07991199  1
  O  O110  1  0.51210748  0.85722455  0.07919724  1
  O  O111  1  0.34918595  0.86135427  0.57901571  1
  O  O112  1  0.51210748  0.65488393  0.57919724  1
  O  O113  1  0.14599772  0.48171646  0.57991199  1
  O  O114  1  0.30369310  0.82701639  0.25469032  1
  O  O115  1  0.51774357  0.68589645  0.25407971  1
  O  O116  1  0.17539578  0.48221155  0.25406636  1
  O  O117  1  0.30369310  0.47667772  0.75469032  1
  O  O118  1  0.17539578  0.69318523  0.75406636  1
  O  O119  1  0.51774357  0.83184812  0.75407971  1
