# generated using pymatgen
data_Na3Zr3ScSi3(SO8)3
_symmetry_space_group_name_H-M   'P 1'
_cell_length_a   9.08524280
_cell_length_b   9.09569874
_cell_length_c   23.09942384
_cell_angle_alpha   89.98275267
_cell_angle_beta   90.04248552
_cell_angle_gamma   120.20918148
_symmetry_Int_Tables_number   1
_chemical_formula_structural   Na3Zr3ScSi3(SO8)3
_chemical_formula_sum   'Na9 Zr9 Sc3 Si9 S9 O72'
_cell_volume   1649.62401852
_cell_formula_units_Z   3
loop_
 _symmetry_equiv_pos_site_id
 _symmetry_equiv_pos_as_xyz
  1  'x, y, z'
loop_
 _atom_site_type_symbol
 _atom_site_label
 _atom_site_symmetry_multiplicity
 _atom_site_fract_x
 _atom_site_fract_y
 _atom_site_fract_z
 _atom_site_occupancy
  Na  Na0  1  0.35321060  0.35768443  0.23729925  1
  Na  Na1  1  0.63835288  0.62566107  0.75516981  1
  Na  Na2  1  0.97255540  0.29280634  0.41652484  1
  Na  Na3  1  0.99178010  0.00729993  0.49604507  1
  Na  Na4  1  0.99348206  0.97691896  0.00358190  1
  Na  Na5  1  0.65881079  0.33944338  0.82968159  1
  Na  Na6  1  0.66713857  0.31177338  0.32788256  1
  Na  Na7  1  0.29084605  0.64916999  0.16304957  1
  Na  Na8  1  0.27681988  0.63561770  0.66684721  1
  Zr  Zr9  1  0.00638891  0.99230053  0.85263438  1
  Zr  Zr10  1  0.01527419  0.01667325  0.64650082  1
  Zr  Zr11  1  0.00779880  0.01128941  0.14435986  1
  Zr  Zr12  1  0.66489737  0.35577541  0.98177502  1
  Zr  Zr13  1  0.66247926  0.32061572  0.47870243  1
  Zr  Zr14  1  0.34128119  0.66002814  0.02416902  1
  Zr  Zr15  1  0.33498299  0.65532237  0.51899741  1
  Zr  Zr16  1  0.34046656  0.66470735  0.31445939  1
  Zr  Zr17  1  0.32647069  0.65542111  0.81162615  1
  Sc  Sc18  1  0.99371721  0.01183363  0.35441912  1
  Sc  Sc19  1  0.68161657  0.33956025  0.68758761  1
  Sc  Sc20  1  0.69007118  0.34869591  0.18306470  1
  Si  Si21  1  0.99306324  0.29559332  0.25311506  1
  Si  Si22  1  0.29939583  0.29234390  0.75079465  1
  Si  Si23  1  0.00357660  0.70988328  0.74715816  1
  Si  Si24  1  0.96067569  0.33356689  0.58271215  1
  Si  Si25  1  0.96399990  0.63307015  0.08359384  1
  Si  Si26  1  0.38028095  0.33574014  0.08904095  1
  Si  Si27  1  0.63073009  0.67315599  0.91442346  1
  Si  Si28  1  0.62624115  0.95550152  0.41740627  1
  Si  Si29  1  0.33627212  0.36932766  0.41468135  1
  S  S30  1  0.28742107  0.99672515  0.25125819  1
  S  S31  1  0.71013091  0.70804929  0.25094330  1
  S  S32  1  0.71120894  0.00166943  0.75064626  1
  S  S33  1  0.37529411  0.03922762  0.58455893  1
  S  S34  1  0.66887953  0.62498134  0.58487121  1
  S  S35  1  0.66727582  0.04813885  0.08232088  1
  S  S36  1  0.03808562  0.37099492  0.91767321  1
  S  S37  1  0.33953513  0.95834996  0.91694258  1
  S  S38  1  0.04416341  0.66926370  0.41707402  1
  O  O39  1  0.19606905  0.00937414  0.30192900  1
  O  O40  1  0.80772626  0.79044326  0.30331179  1
  O  O41  1  0.98069297  0.19454519  0.31323085  1
  O  O42  1  0.19824103  0.18119372  0.80777993  1
  O  O43  1  0.96899184  0.79963502  0.80418421  1
  O  O44  1  0.81417723  0.02370195  0.80314975  1
  O  O45  1  0.79162244  0.97487584  0.69859821  1
  O  O46  1  0.18003002  0.20747044  0.69307428  1
  O  O47  1  0.01957480  0.82619811  0.69109474  1
  O  O48  1  0.79330311  0.80437115  0.19828378  1
  O  O49  1  0.02381109  0.19228600  0.19950616  1
  O  O50  1  0.18733682  0.97612887  0.19707345  1
  O  O51  1  0.86015901  0.34879035  0.63830969  1
  O  O52  1  0.47238871  0.12530227  0.63632848  1
  O  O53  1  0.64645209  0.52979107  0.63909213  1
  O  O54  1  0.88273910  0.51323150  0.13992398  1
  O  O55  1  0.64506160  0.12649347  0.13455872  1
  O  O56  1  0.48047100  0.35240619  0.14841537  1
  O  O57  1  0.47306486  0.31149517  0.03161227  1
  O  O58  1  0.84898563  0.53946502  0.02549628  1
  O  O59  1  0.69119392  0.14751538  0.02947457  1
  O  O60  1  0.45869122  0.14227927  0.53122811  1
  O  O61  1  0.68114617  0.53310197  0.53404460  1
  O  O62  1  0.85509875  0.31926900  0.52271226  1
  O  O63  1  0.52431281  0.68544483  0.96941634  1
  O  O64  1  0.14032608  0.45983871  0.96958155  1
  O  O65  1  0.31558105  0.85625703  0.96933389  1
  O  O66  1  0.52539914  0.84711979  0.47478928  1
  O  O67  1  0.29756658  0.46489834  0.46878644  1
  O  O68  1  0.14528421  0.69133353  0.47006190  1
  O  O69  1  0.12522147  0.63747901  0.36575604  1
  O  O70  1  0.50864087  0.86701872  0.36005578  1
  O  O71  1  0.35657809  0.48231991  0.35618863  1
  O  O72  1  0.12106110  0.47784155  0.86471863  1
  O  O73  1  0.34742523  0.87029470  0.86440883  1
  O  O74  1  0.52307948  0.65606163  0.85494348  1
  O  O75  1  0.02331974  0.81669314  0.40960355  1
  O  O76  1  0.81484715  0.97588444  0.41450914  1
  O  O77  1  0.16755970  0.18118919  0.41162196  1
  O  O78  1  0.02929946  0.20526604  0.91305345  1
  O  O79  1  0.18583106  0.98175572  0.91326114  1
  O  O80  1  0.82045899  0.84471614  0.91314296  1
  O  O81  1  0.97680390  0.16047973  0.58572215  1
  O  O82  1  0.20123646  0.02139426  0.58540609  1
  O  O83  1  0.82187820  0.79683247  0.58636363  1
  O  O84  1  0.97035193  0.81533388  0.09029620  1
  O  O85  1  0.81979327  0.02537162  0.08820110  1
  O  O86  1  0.18534264  0.16934312  0.08956031  1
  O  O87  1  0.68774054  0.14973240  0.74549450  1
  O  O88  1  0.48810719  0.31716939  0.74553853  1
  O  O89  1  0.83236975  0.52237353  0.74442733  1
  O  O90  1  0.67778706  0.53019887  0.24868059  1
  O  O91  1  0.82413506  0.31221538  0.24698935  1
  O  O92  1  0.45589021  0.15561616  0.24830246  1
  O  O93  1  0.64579066  0.49930435  0.91805576  1
  O  O94  1  0.86479347  0.34658363  0.92074980  1
  O  O95  1  0.49603354  0.12703602  0.91980991  1
  O  O96  1  0.65694654  0.15205362  0.42078855  1
  O  O97  1  0.51102136  0.36438549  0.42405635  1
  O  O98  1  0.87318728  0.50919275  0.42179399  1
  O  O99  1  0.36000464  0.50532831  0.08071348  1
  O  O100  1  0.15625300  0.66341023  0.07391062  1
  O  O101  1  0.51323533  0.87476539  0.07735671  1
  O  O102  1  0.35580594  0.86862990  0.58003806  1
  O  O103  1  0.51308948  0.64362043  0.57934939  1
  O  O104  1  0.15126181  0.50582445  0.57953757  1
  O  O105  1  0.30872979  0.84521275  0.25463933  1
  O  O106  1  0.53494466  0.69333440  0.25281614  1
  O  O107  1  0.17290063  0.48462433  0.25341275  1
  O  O108  1  0.32190079  0.48582916  0.75490533  1
  O  O109  1  0.17648738  0.69886932  0.75526564  1
  O  O110  1  0.54071823  0.84234351  0.75524763  1
