# generated using pymatgen
data_MgSi4(MoO6)2
_symmetry_space_group_name_H-M   'P 1'
_cell_length_a   5.36172097
_cell_length_b   7.00231494
_cell_length_c   7.00278423
_cell_angle_alpha   80.81930479
_cell_angle_beta   76.77546753
_cell_angle_gamma   76.76233301
_symmetry_Int_Tables_number   1
_chemical_formula_structural   MgSi4(MoO6)2
_chemical_formula_sum   'Mg1 Si4 Mo2 O12'
_cell_volume   247.54447957
_cell_formula_units_Z   1
loop_
 _symmetry_equiv_pos_site_id
 _symmetry_equiv_pos_as_xyz
  1  'x, y, z'
loop_
 _atom_site_type_symbol
 _atom_site_label
 _atom_site_symmetry_multiplicity
 _atom_site_fract_x
 _atom_site_fract_y
 _atom_site_fract_z
 _atom_site_occupancy
  Mg  Mg0  1  0.74892500  0.57546000  0.42454900  1
  Si  Si1  1  0.25143500  0.18865300  0.36713800  1
  Si  Si2  1  0.24866100  0.63280000  0.81163500  1
  Si  Si3  1  0.74247000  0.36375600  0.17424500  1
  Si  Si4  1  0.75779100  0.82547600  0.63627500  1
  Mo  Mo5  1  0.25008500  0.11429100  0.88567200  1
  Mo  Mo6  1  0.75006100  0.90898000  0.09097700  1
  O  O7  1  0.46639300  0.33617300  0.32649100  1
  O  O8  1  0.03395400  0.67349900  0.66396400  1
  O  O9  1  0.54403000  0.66640800  0.67662300  1
  O  O10  1  0.95608400  0.32374600  0.33339200  1
  O  O11  1  0.21399000  0.09845900  0.59337800  1
  O  O12  1  0.28607800  0.40654400  0.90178000  1
  O  O13  1  0.79266400  0.86229500  0.39698500  1
  O  O14  1  0.70707800  0.60309800  0.13729100  1
  O  O15  1  0.84202700  0.20272200  0.01879700  1
  O  O16  1  0.65813600  0.98110500  0.79718200  1
  O  O17  1  0.34510400  0.04510000  0.18858800  1
  O  O18  1  0.15503400  0.81143900  0.95503900  1
