# generated using pymatgen
data_KMgSb(PO4)2
_symmetry_space_group_name_H-M   'P 1'
_cell_length_a   9.35413632
_cell_length_b   9.35447192
_cell_length_c   9.35544149
_cell_angle_alpha   32.97855416
_cell_angle_beta   32.97880376
_cell_angle_gamma   32.98179635
_symmetry_Int_Tables_number   1
_chemical_formula_structural   KMgSb(PO4)2
_chemical_formula_sum   'K1 Mg1 Sb1 P2 O8'
_cell_volume   215.85634093
_cell_formula_units_Z   1
loop_
 _symmetry_equiv_pos_site_id
 _symmetry_equiv_pos_as_xyz
  1  'x, y, z'
loop_
 _atom_site_type_symbol
 _atom_site_label
 _atom_site_symmetry_multiplicity
 _atom_site_fract_x
 _atom_site_fract_y
 _atom_site_fract_z
 _atom_site_occupancy
  K  K0  1  0.49978800  0.50016000  0.49994300  1
  Mg  Mg1  1  0.36063700  0.35971300  0.35978200  1
  Sb  Sb2  1  0.99300500  0.99239100  0.99253300  1
  P  P3  1  0.74009200  0.73926000  0.73924400  1
  P  P4  1  0.25853200  0.25818300  0.25819200  1
  O  O5  1  0.79687500  0.79563600  0.79582700  1
  O  O6  1  0.00666200  0.45838500  0.68476600  1
  O  O7  1  0.20298600  0.20172100  0.20218100  1
  O  O8  1  0.68563300  0.00597200  0.45839400  1
  O  O9  1  0.24305700  0.03875700  0.57181800  1
  O  O10  1  0.45908400  0.68489200  0.00595800  1
  O  O11  1  0.57209400  0.24298700  0.03872800  1
  O  O12  1  0.03869700  0.57194400  0.24263400  1
