# generated using pymatgen
data_NaLaZrSi(SO6)2
_symmetry_space_group_name_H-M   'P 1'
_cell_length_a   9.29347921
_cell_length_b   9.35686138
_cell_length_c   24.23354919
_cell_angle_alpha   90.46792608
_cell_angle_beta   90.00000000
_cell_angle_gamma   119.77617403
_symmetry_Int_Tables_number   1
_chemical_formula_structural   NaLaZrSi(SO6)2
_chemical_formula_sum   'Na6 La6 Zr6 Si6 S12 O72'
_cell_volume   1828.99308277
_cell_formula_units_Z   6
loop_
 _symmetry_equiv_pos_site_id
 _symmetry_equiv_pos_as_xyz
  1  'x, y, z'
loop_
 _atom_site_type_symbol
 _atom_site_label
 _atom_site_symmetry_multiplicity
 _atom_site_fract_x
 _atom_site_fract_y
 _atom_site_fract_z
 _atom_site_occupancy
  Na  Na0  1  0.03374324  0.01098083  0.50009680  1
  Na  Na1  1  0.97723759  0.01098083  0.00009680  1
  Na  Na2  1  0.70434349  0.33633814  0.83199086  1
  Na  Na3  1  0.63199565  0.33633814  0.33199086  1
  Na  Na4  1  0.34292146  0.70538982  0.16558100  1
  Na  Na5  1  0.36246736  0.70538982  0.66558100  1
  La  La6  1  0.99852154  0.99763454  0.64658140  1
  La  La7  1  0.99911300  0.99763454  0.14658140  1
  La  La8  1  0.67819148  0.32353739  0.97966104  1
  La  La9  1  0.64534691  0.32353739  0.47966104  1
  La  La10  1  0.33731965  0.66878055  0.31323210  1
  La  La11  1  0.33145990  0.66878055  0.81323210  1
  Zr  Zr12  1  0.02480422  0.01431446  0.35190032  1
  Zr  Zr13  1  0.98951024  0.01431446  0.85190032  1
  Zr  Zr14  1  0.65503852  0.30562755  0.68466818  1
  Zr  Zr15  1  0.65059003  0.30562755  0.18466818  1
  Zr  Zr16  1  0.33034287  0.66349883  0.01790085  1
  Zr  Zr17  1  0.33315496  0.66349883  0.51790085  1
  Si  Si18  1  0.30260260  0.00774756  0.24811865  1
  Si  Si19  1  0.70514496  0.00774756  0.74811865  1
  Si  Si20  1  0.36941257  0.02043118  0.58210799  1
  Si  Si21  1  0.65101961  0.02043118  0.08210799  1
  Si  Si22  1  0.04750288  0.36925953  0.91493581  1
  Si  Si23  1  0.32175565  0.36925953  0.41493581  1
  S  S24  1  0.71601160  0.69438160  0.25123237  1
  S  S25  1  0.98102729  0.28613250  0.25149033  1
  S  S26  1  0.30510522  0.28613250  0.75149033  1
  S  S27  1  0.97837001  0.69438160  0.75123237  1
  S  S28  1  0.96917827  0.35237888  0.58306661  1
  S  S29  1  0.64814809  0.61834180  0.58423993  1
  S  S30  1  0.97019471  0.61834180  0.08423993  1
  S  S31  1  0.38320161  0.35237888  0.08306661  1
  S  S32  1  0.63740728  0.68467908  0.91784808  1
  S  S33  1  0.31117538  0.95087770  0.91844622  1
  S  S34  1  0.63970132  0.95087770  0.41844622  1
  S  S35  1  0.04727080  0.68467908  0.41784808  1
  O  O36  1  0.20229922  0.02727874  0.30438858  1
  O  O37  1  0.81569477  0.78693605  0.30133261  1
  O  O38  1  0.96546038  0.18131612  0.30083922  1
  O  O39  1  0.21585574  0.18131612  0.80083922  1
  O  O40  1  0.97124128  0.78693605  0.80133261  1
  O  O41  1  0.82497952  0.02727874  0.80438858  1
  O  O42  1  0.79554657  0.99341531  0.69389938  1
  O  O43  1  0.21230447  0.21256212  0.70038607  1
  O  O44  1  0.00053960  0.78833888  0.70046656  1
  O  O45  1  0.78779928  0.78833888  0.20046656  1
  O  O46  1  0.00025765  0.21256212  0.20038607  1
  O  O47  1  0.19786874  0.99341531  0.19389938  1
  O  O48  1  0.88011930  0.36599495  0.63360586  1
  O  O49  1  0.49086715  0.12627039  0.63780326  1
  O  O50  1  0.63547992  0.51908187  0.63394145  1
  O  O51  1  0.88360295  0.51908187  0.13394145  1
  O  O52  1  0.63540424  0.12627039  0.13780326  1
  O  O53  1  0.48587665  0.36599495  0.13360586  1
  O  O54  1  0.45813507  0.33525681  0.03274529  1
  O  O55  1  0.87630895  0.54901387  0.03339949  1
  O  O56  1  0.67356422  0.13092380  0.02910759  1
  O  O57  1  0.45736058  0.13092380  0.52910759  1
  O  O58  1  0.67270593  0.54901387  0.53339949  1
  O  O59  1  0.87712274  0.33525681  0.53274529  1
  O  O60  1  0.54898929  0.70306705  0.96771944  1
  O  O61  1  0.16300366  0.47122267  0.97089407  1
  O  O62  1  0.30465167  0.84879101  0.96786354  1
  O  O63  1  0.54413834  0.84879101  0.46786354  1
  O  O64  1  0.30821801  0.47122267  0.47089407  1
  O  O65  1  0.15407676  0.70306705  0.46771944  1
  O  O66  1  0.11866243  0.66605260  0.36745320  1
  O  O67  1  0.54367877  0.88482068  0.36814417  1
  O  O68  1  0.33157424  0.46754015  0.36028303  1
  O  O69  1  0.13596490  0.46754015  0.86028303  1
  O  O70  1  0.34114091  0.88482068  0.86814417  1
  O  O71  1  0.54738917  0.66605260  0.86745320  1
  O  O72  1  0.03350921  0.83971135  0.41421334  1
  O  O73  1  0.80067263  0.95077212  0.41415509  1
  O  O74  1  0.14760140  0.18272965  0.41064045  1
  O  O75  1  0.03512825  0.18272965  0.91064045  1
  O  O76  1  0.15009950  0.95077212  0.91415509  1
  O  O77  1  0.80620214  0.83971135  0.91421334  1
  O  O78  1  0.99766330  0.21144218  0.58822646  1
  O  O79  1  0.18296950  0.99266035  0.58591723  1
  O  O80  1  0.78623214  0.78968333  0.58839734  1
  O  O81  1  0.00345118  0.78968333  0.08839734  1
  O  O82  1  0.80969085  0.99266035  0.08591723  1
  O  O83  1  0.21377888  0.21144218  0.08822646  1
  O  O84  1  0.70150289  0.18617187  0.74413268  1
  O  O85  1  0.47255844  0.29671904  0.74714844  1
  O  O86  1  0.82059457  0.53065632  0.74673063  1
  O  O87  1  0.71006274  0.53065632  0.24673063  1
  O  O88  1  0.82416160  0.29671904  0.24714844  1
  O  O89  1  0.48466998  0.18617187  0.24413268  1
  O  O90  1  0.66268329  0.54189258  0.92483810  1
  O  O91  1  0.85854476  0.33747529  0.91559573  1
  O  O92  1  0.44736755  0.12266050  0.92462816  1
  O  O93  1  0.67529395  0.12266050  0.42462816  1
  O  O94  1  0.47893152  0.33747529  0.41559573  1
  O  O95  1  0.87921029  0.54189258  0.42483810  1
  O  O96  1  0.37239979  0.50851852  0.07996972  1
  O  O97  1  0.13673328  0.62618346  0.07893952  1
  O  O98  1  0.47571734  0.84130912  0.07615953  1
  O  O99  1  0.36559078  0.84130912  0.57615953  1
  O  O100  1  0.48944919  0.62618346  0.57893952  1
  O  O101  1  0.13611773  0.50851852  0.57996972  1
  O  O102  1  0.33658797  0.85454921  0.25180742  1
  O  O103  1  0.54573282  0.66558303  0.25461724  1
  O  O104  1  0.12083460  0.45306707  0.25651154  1
  O  O105  1  0.33223147  0.45306707  0.75651154  1
  O  O106  1  0.11984920  0.66558303  0.75461724  1
  O  O107  1  0.51796024  0.85454921  0.75180742  1
