# generated using pymatgen
data_NaLa3NbP3(SO8)3
_symmetry_space_group_name_H-M   'P 1'
_cell_length_a   9.32945084
_cell_length_b   9.32406602
_cell_length_c   24.47849160
_cell_angle_alpha   90.20348057
_cell_angle_beta   90.15003364
_cell_angle_gamma   120.20221129
_symmetry_Int_Tables_number   1
_chemical_formula_structural   NaLa3NbP3(SO8)3
_chemical_formula_sum   'Na3 La9 Nb3 P9 S9 O72'
_cell_volume   1840.26255086
_cell_formula_units_Z   3
loop_
 _symmetry_equiv_pos_site_id
 _symmetry_equiv_pos_as_xyz
  1  'x, y, z'
loop_
 _atom_site_type_symbol
 _atom_site_label
 _atom_site_symmetry_multiplicity
 _atom_site_fract_x
 _atom_site_fract_y
 _atom_site_fract_z
 _atom_site_occupancy
  Na  Na0  1  0.00338824  0.02767400  0.99767747  1
  Na  Na1  1  0.69063778  0.34549323  0.83548229  1
  Na  Na2  1  0.66565812  0.34481797  0.33266812  1
  La  La3  1  0.99902396  0.99682258  0.35938452  1
  La  La4  1  0.99954616  0.00456274  0.85327184  1
  La  La5  1  0.99408527  0.00250739  0.15031666  1
  La  La6  1  0.67210540  0.33669898  0.67369594  1
  La  La7  1  0.67004327  0.32874549  0.97815260  1
  La  La8  1  0.66160960  0.33258699  0.49203940  1
  La  La9  1  0.33441024  0.66084034  0.02847386  1
  La  La10  1  0.34284799  0.66208641  0.30864821  1
  La  La11  1  0.31591349  0.65934843  0.80435303  1
  Nb  Nb12  1  0.00099406  0.99119576  0.64388900  1
  Nb  Nb13  1  0.65853223  0.33223056  0.18128818  1
  Nb  Nb14  1  0.33070313  0.65510341  0.52238505  1
  P  P15  1  0.71259706  0.68443818  0.24887970  1
  P  P16  1  0.99208667  0.71510909  0.74454606  1
  P  P17  1  0.98188000  0.32672087  0.58355552  1
  P  P18  1  0.34999907  0.01097105  0.58271947  1
  P  P19  1  0.66542926  0.64961574  0.58322851  1
  P  P20  1  0.66523373  0.04927648  0.08655077  1
  P  P21  1  0.37899801  0.32872162  0.08466373  1
  P  P22  1  0.04078369  0.37478957  0.91676050  1
  P  P23  1  0.33665006  0.38508097  0.42073480  1
  S  S24  1  0.31836106  0.02406320  0.24813068  1
  S  S25  1  0.97215762  0.29495177  0.24963675  1
  S  S26  1  0.28686370  0.27804539  0.74263112  1
  S  S27  1  0.71832939  0.00438054  0.74333645  1
  S  S28  1  0.94940556  0.61619754  0.08830934  1
  S  S29  1  0.62567350  0.66714252  0.91556270  1
  S  S30  1  0.33106278  0.95852054  0.91664036  1
  S  S31  1  0.61215787  0.95049260  0.42157899  1
  S  S32  1  0.05211764  0.66073002  0.42117734  1
  O  O33  1  0.24903612  0.05915752  0.29745810  1
  O  O34  1  0.82112156  0.75724905  0.30078519  1
  O  O35  1  0.94524952  0.19107526  0.29848502  1
  O  O36  1  0.21383297  0.18935099  0.79437631  1
  O  O37  1  0.97493844  0.79558887  0.79704864  1
  O  O38  1  0.81108110  0.02755743  0.79523745  1
  O  O39  1  0.81954150  0.00128826  0.69604027  1
  O  O40  1  0.17984889  0.17671704  0.69515236  1
  O  O41  1  0.99472408  0.82739602  0.69402953  1
  O  O42  1  0.79201069  0.79276176  0.19915164  1
  O  O43  1  0.00290004  0.22296773  0.20069610  1
  O  O44  1  0.21730785  0.99917938  0.19947467  1
  O  O45  1  0.92014332  0.38387265  0.63186456  1
  O  O46  1  0.46591694  0.07763506  0.63186373  1
  O  O47  1  0.61271123  0.53277736  0.63162149  1
  O  O48  1  0.84579419  0.51204571  0.13678895  1
  O  O49  1  0.66551933  0.16115991  0.13790874  1
  O  O50  1  0.49292303  0.33460026  0.13733001  1
  O  O51  1  0.46340275  0.31462539  0.03359293  1
  O  O52  1  0.85718259  0.54363862  0.03740698  1
  O  O53  1  0.68850558  0.14836016  0.03458347  1
  O  O54  1  0.41480641  0.13072969  0.53457023  1
  O  O55  1  0.71809309  0.58572487  0.53427404  1
  O  O56  1  0.86555607  0.27836502  0.53442416  1
  O  O57  1  0.54038318  0.67052139  0.96607412  1
  O  O58  1  0.13314000  0.47064287  0.96904636  1
  O  O59  1  0.33393381  0.87302533  0.96675449  1
  O  O60  1  0.51670590  0.84813632  0.46953330  1
  O  O61  1  0.33039033  0.49151989  0.47185136  1
  O  O62  1  0.15388672  0.66757402  0.47008709  1
  O  O63  1  0.12885448  0.64603907  0.37041694  1
  O  O64  1  0.51865759  0.87824789  0.37020159  1
  O  O65  1  0.35664655  0.48648330  0.36931971  1
  O  O66  1  0.13636661  0.46608274  0.86421072  1
  O  O67  1  0.33320558  0.86990935  0.86641125  1
  O  O68  1  0.53636852  0.66905394  0.86566450  1
  O  O69  1  0.04447185  0.81619792  0.41993234  1
  O  O70  1  0.77407437  0.95609236  0.41881893  1
  O  O71  1  0.17336916  0.21756383  0.41726709  1
  O  O72  1  0.02136826  0.19840030  0.91966587  1
  O  O73  1  0.17870411  0.97338007  0.91807155  1
  O  O74  1  0.79638016  0.81666195  0.91761023  1
  O  O75  1  0.01250130  0.18239237  0.60159215  1
  O  O76  1  0.17234968  0.98384854  0.60019172  1
  O  O77  1  0.81261823  0.82767598  0.60017762  1
  O  O78  1  0.97335265  0.78394001  0.09325228  1
  O  O79  1  0.81685738  0.02740107  0.09226653  1
  O  O80  1  0.20850339  0.17401359  0.09097712  1
  O  O81  1  0.69461613  0.14963806  0.73804071  1
  O  O82  1  0.45297600  0.29693657  0.73731118  1
  O  O83  1  0.84008118  0.54100388  0.73722267  1
  O  O84  1  0.69279459  0.50641346  0.23576863  1
  O  O85  1  0.81832430  0.30724952  0.24095460  1
  O  O86  1  0.48942109  0.17800335  0.23929297  1
  O  O87  1  0.64130159  0.51567410  0.91365130  1
  O  O88  1  0.86559728  0.35662818  0.91248326  1
  O  O89  1  0.47906183  0.12907128  0.91355963  1
  O  O90  1  0.63797894  0.12059954  0.42685683  1
  O  O91  1  0.48891923  0.36432783  0.42868534  1
  O  O92  1  0.88329151  0.51374386  0.42613878  1
  O  O93  1  0.37725402  0.49053745  0.08819963  1
  O  O94  1  0.10585303  0.61634462  0.09077189  1
  O  O95  1  0.50092340  0.88748217  0.08797521  1
  O  O96  1  0.32003360  0.83536964  0.56404442  1
  O  O97  1  0.51815853  0.67973498  0.56582204  1
  O  O98  1  0.15993939  0.47840031  0.56566209  1
  O  O99  1  0.34635735  0.88393153  0.25564044  1
  O  O100  1  0.53542669  0.64988534  0.25668123  1
  O  O101  1  0.11197899  0.46553042  0.25694179  1
  O  O102  1  0.29431907  0.43953095  0.74245990  1
  O  O103  1  0.15555842  0.71414032  0.74381153  1
  O  O104  1  0.55864512  0.84789855  0.74476155  1
