# generated using pymatgen
data_Na10Y4In4Si5S7O48
_symmetry_space_group_name_H-M   'P 1'
_cell_length_a   18.49512341
_cell_length_b   9.27594967
_cell_length_c   23.21861938
_cell_angle_alpha   90.10929869
_cell_angle_beta   89.24654458
_cell_angle_gamma   120.00760536
_symmetry_Int_Tables_number   1
_chemical_formula_structural   Na10Y4In4Si5S7O48
_chemical_formula_sum   'Na30 Y12 In12 Si15 S21 O144'
_cell_volume   3449.09762577
_cell_formula_units_Z   3
loop_
 _symmetry_equiv_pos_site_id
 _symmetry_equiv_pos_as_xyz
  1  'x, y, z'
loop_
 _atom_site_type_symbol
 _atom_site_label
 _atom_site_symmetry_multiplicity
 _atom_site_fract_x
 _atom_site_fract_y
 _atom_site_fract_z
 _atom_site_occupancy
  Na  Na0  1  0.33666176  0.00130686  0.24748737  1
  Na  Na1  1  0.83030099  0.99900148  0.24673762  1
  Na  Na2  1  0.17655800  0.37023639  0.23325314  1
  Na  Na3  1  0.68619773  0.37612873  0.23389243  1
  Na  Na4  1  0.99322920  0.62877957  0.26196843  1
  Na  Na5  1  0.49297240  0.63276558  0.26241979  1
  Na  Na6  1  0.83126646  0.66023513  0.74952167  1
  Na  Na7  1  0.99330593  0.36238645  0.76820725  1
  Na  Na8  1  0.49411357  0.34621345  0.76470415  1
  Na  Na9  1  0.17889259  0.98185111  0.74179697  1
  Na  Na10  1  0.01938915  0.70306814  0.58552027  1
  Na  Na11  1  0.32575612  0.96786916  0.59618148  1
  Na  Na12  1  0.01940617  0.33194425  0.08439834  1
  Na  Na13  1  0.52451987  0.33111342  0.08507241  1
  Na  Na14  1  0.15918835  0.29798521  0.93186473  1
  Na  Na15  1  0.66203652  0.30574767  0.93266961  1
  Na  Na16  1  0.15763288  0.01832476  0.43368435  1
  Na  Na17  1  0.65848266  0.00624388  0.43347436  1
  Na  Na18  1  0.00187142  0.99705009  0.49873745  1
  Na  Na19  1  0.51079946  0.97733730  0.50474390  1
  Na  Na20  1  0.00292254  0.00211853  0.99957322  1
  Na  Na21  1  0.50492015  0.00527680  0.99909714  1
  Na  Na22  1  0.34844624  0.32704548  0.83939813  1
  Na  Na23  1  0.84948133  0.31756241  0.83660552  1
  Na  Na24  1  0.35860248  0.38396103  0.33242457  1
  Na  Na25  1  0.85673952  0.38675487  0.33604592  1
  Na  Na26  1  0.18185595  0.65066057  0.16196775  1
  Na  Na27  1  0.68464281  0.65109927  0.16656853  1
  Na  Na28  1  0.17287873  0.67845173  0.67275110  1
  Na  Na29  1  0.68909226  0.75433729  0.66989681  1
  Y  Y30  1  0.49247246  0.98939814  0.35086773  1
  Y  Y31  1  0.99835898  0.99286121  0.65158714  1
  Y  Y32  1  0.50307113  0.00395551  0.14719444  1
  Y  Y33  1  0.33038718  0.32878238  0.68179567  1
  Y  Y34  1  0.82685653  0.31501596  0.68654802  1
  Y  Y35  1  0.33004461  0.33651071  0.18013118  1
  Y  Y36  1  0.33735002  0.34443916  0.48263218  1
  Y  Y37  1  0.82982772  0.32927827  0.48466190  1
  Y  Y38  1  0.66957134  0.66240394  0.01729319  1
  Y  Y39  1  0.66194671  0.67456300  0.51966926  1
  Y  Y40  1  0.15850380  0.65177162  0.31829389  1
  Y  Y41  1  0.66198011  0.65337913  0.31785366  1
  In  In42  1  0.98780945  0.98197188  0.34749629  1
  In  In43  1  0.99168183  0.99799431  0.85055351  1
  In  In44  1  0.49364312  0.00598675  0.85154612  1
  In  In45  1  0.49812353  0.99178319  0.65147515  1
  In  In46  1  0.00465260  0.01070801  0.14791621  1
  In  In47  1  0.83539779  0.34282678  0.18006485  1
  In  In48  1  0.33213112  0.33076185  0.98227648  1
  In  In49  1  0.83893820  0.33966381  0.98167513  1
  In  In50  1  0.16633517  0.65279853  0.01399521  1
  In  In51  1  0.15881995  0.67170646  0.51385525  1
  In  In52  1  0.16339401  0.67004957  0.81766736  1
  In  In53  1  0.66201751  0.67139267  0.82153208  1
  Si  Si54  1  0.34776326  0.69719150  0.24827265  1
  Si  Si55  1  0.85561641  0.70561315  0.24531625  1
  Si  Si56  1  0.99692342  0.29074111  0.24540247  1
  Si  Si57  1  0.50111880  0.30398452  0.24432821  1
  Si  Si58  1  0.00117809  0.70191637  0.75211951  1
  Si  Si59  1  0.35142153  0.99689816  0.74761113  1
  Si  Si60  1  0.84530449  0.98944423  0.75527442  1
  Si  Si61  1  0.18006700  0.02543916  0.57924541  1
  Si  Si62  1  0.67358837  0.02801049  0.58180853  1
  Si  Si63  1  0.17909359  0.32705751  0.07923737  1
  Si  Si64  1  0.68663493  0.32998212  0.07956679  1
  Si  Si65  1  0.01581614  0.35803286  0.91649452  1
  Si  Si66  1  0.51351187  0.36398598  0.91689924  1
  Si  Si67  1  0.01041063  0.67905822  0.41570279  1
  Si  Si68  1  0.51415685  0.67204542  0.41207208  1
  S  S69  1  0.14757521  0.99953271  0.25197665  1
  S  S70  1  0.65368568  0.00513500  0.25158476  1
  S  S71  1  0.14934392  0.30011132  0.75464307  1
  S  S72  1  0.64456214  0.29882604  0.75415746  1
  S  S73  1  0.50033136  0.70473779  0.75352748  1
  S  S74  1  0.48429328  0.32771123  0.58598467  1
  S  S75  1  0.98638820  0.33694404  0.58356765  1
  S  S76  1  0.32934095  0.63851038  0.58233078  1
  S  S77  1  0.83228114  0.63471210  0.58759797  1
  S  S78  1  0.48269152  0.63186095  0.07982214  1
  S  S79  1  0.98757337  0.63857908  0.08237202  1
  S  S80  1  0.33019731  0.02522564  0.08057858  1
  S  S81  1  0.83466465  0.03969995  0.08525165  1
  S  S82  1  0.31519914  0.66679486  0.91456423  1
  S  S83  1  0.81874560  0.66181083  0.91311092  1
  S  S84  1  0.16795322  0.96554174  0.91733106  1
  S  S85  1  0.66455419  0.97244074  0.91529812  1
  S  S86  1  0.31447588  0.96470591  0.41861775  1
  S  S87  1  0.81860903  0.96925030  0.41432182  1
  S  S88  1  0.16355594  0.36442471  0.41912251  1
  S  S89  1  0.66746034  0.36125692  0.41674432  1
  O  O90  1  0.11276556  0.03076064  0.30531445  1
  O  O91  1  0.61401572  0.02153371  0.30503547  1
  O  O92  1  0.40757093  0.77664324  0.30415651  1
  O  O93  1  0.91607654  0.76851653  0.30166572  1
  O  O94  1  0.48972036  0.17762138  0.29683693  1
  O  O95  1  0.97945190  0.16084399  0.29868423  1
  O  O96  1  0.11540587  0.20821402  0.80974793  1
  O  O97  1  0.61365976  0.20136786  0.80897087  1
  O  O98  1  0.49634955  0.79160921  0.80596009  1
  O  O99  1  0.99316937  0.80797574  0.80580230  1
  O  O100  1  0.42076686  0.04933492  0.79814419  1
  O  O101  1  0.90685857  0.04220496  0.81073460  1
  O  O102  1  0.38936070  0.97166043  0.68583935  1
  O  O103  1  0.88857187  0.95173398  0.69968322  1
  O  O104  1  0.09465822  0.20933495  0.70570016  1
  O  O105  1  0.59112030  0.20505987  0.70515380  1
  O  O106  1  0.01732942  0.80658533  0.69147997  1
  O  O107  1  0.50658400  0.79661099  0.70013040  1
  O  O108  1  0.39628571  0.81309218  0.19222653  1
  O  O109  1  0.89990512  0.82847354  0.18973078  1
  O  O110  1  0.02261566  0.23155195  0.18524284  1
  O  O111  1  0.51333428  0.22738026  0.18310319  1
  O  O112  1  0.09376391  0.96979035  0.20153713  1
  O  O113  1  0.59899001  0.97823815  0.20161923  1
  O  O114  1  0.44866420  0.35312391  0.64081951  1
  O  O115  1  0.94713081  0.35584833  0.63739568  1
  O  O116  1  0.23756867  0.11958942  0.63650265  1
  O  O117  1  0.73508277  0.14223369  0.63276174  1
  O  O118  1  0.32653008  0.54752290  0.63546227  1
  O  O119  1  0.83092431  0.55688125  0.64369590  1
  O  O120  1  0.44263312  0.53759743  0.13388547  1
  O  O121  1  0.95142634  0.53724244  0.13636132  1
  O  O122  1  0.32208306  0.09510698  0.13659130  1
  O  O123  1  0.82901417  0.11235887  0.14148771  1
  O  O124  1  0.22631169  0.33566346  0.13887843  1
  O  O125  1  0.73273489  0.33022234  0.13981036  1
  O  O126  1  0.22825834  0.32016169  0.02012837  1
  O  O127  1  0.73674520  0.33137808  0.01997275  1
  O  O128  1  0.43255559  0.54051560  0.02938691  1
  O  O129  1  0.93562421  0.55057624  0.03213109  1
  O  O130  1  0.34182970  0.14069579  0.03247415  1
  O  O131  1  0.84400223  0.15141998  0.03655222  1
  O  O132  1  0.22950306  0.12732735  0.52132741  1
  O  O133  1  0.71350105  0.11733009  0.51899714  1
  O  O134  1  0.33885101  0.55441690  0.53112699  1
  O  O135  1  0.83906363  0.53433711  0.53994253  1
  O  O136  1  0.43221090  0.32608949  0.53731791  1
  O  O137  1  0.93591604  0.32596003  0.53305179  1
  O  O138  1  0.28041249  0.69506719  0.96877674  1
  O  O139  1  0.77310685  0.67575225  0.96371947  1
  O  O140  1  0.07487213  0.44750132  0.97270946  1
  O  O141  1  0.57504004  0.46075232  0.97065365  1
  O  O142  1  0.16861080  0.86780655  0.96750785  1
  O  O143  1  0.66191826  0.87676151  0.96686071  1
  O  O144  1  0.27468748  0.86711937  0.47245840  1
  O  O145  1  0.77284567  0.86500469  0.46457878  1
  O  O146  1  0.16351863  0.46353182  0.46983214  1
  O  O147  1  0.67064278  0.46127145  0.46651541  1
  O  O148  1  0.07195455  0.70905845  0.47201516  1
  O  O149  1  0.57894800  0.67937643  0.46109904  1
  O  O150  1  0.05450757  0.66201629  0.35650913  1
  O  O151  1  0.55477395  0.66716014  0.34892675  1
  O  O152  1  0.26721022  0.87172311  0.36718977  1
  O  O153  1  0.77691906  0.88635624  0.35979115  1
  O  O154  1  0.17164658  0.45488642  0.36463415  1
  O  O155  1  0.67169913  0.44837815  0.36171071  1
  O  O156  1  0.05978480  0.46502786  0.85708633  1
  O  O157  1  0.55518720  0.47089950  0.85619862  1
  O  O158  1  0.17605490  0.89364186  0.86188987  1
  O  O159  1  0.67430346  0.89520260  0.86173546  1
  O  O160  1  0.26574537  0.65968880  0.86389982  1
  O  O161  1  0.77356776  0.65524668  0.85932568  1
  O  O162  1  0.01146808  0.85997448  0.41540936  1
  O  O163  1  0.51377727  0.84821609  0.41977248  1
  O  O164  1  0.40080197  0.99785617  0.41700665  1
  O  O165  1  0.90541356  0.00133215  0.41577886  1
  O  O166  1  0.08631567  0.19994694  0.41921108  1
  O  O167  1  0.59035835  0.19554712  0.41826369  1
  O  O168  1  0.01416272  0.17612363  0.91567905  1
  O  O169  1  0.51259196  0.18299394  0.91546320  1
  O  O170  1  0.09101044  0.97839434  0.91889446  1
  O  O171  1  0.58611411  0.98208333  0.91350407  1
  O  O172  1  0.40314079  0.80452571  0.90994665  1
  O  O173  1  0.90449298  0.80416197  0.91484205  1
  O  O174  1  0.47815933  0.16189127  0.58646909  1
  O  O175  1  0.99643215  0.18941245  0.58569367  1
  O  O176  1  0.08564851  0.99747583  0.58122540  1
  O  O177  1  0.57948583  0.00810497  0.58871107  1
  O  O178  1  0.40164164  0.81186479  0.58330316  1
  O  O179  1  0.91002942  0.80165042  0.58328877  1
  O  O180  1  0.49248777  0.79887717  0.08059597  1
  O  O181  1  0.99486515  0.80402017  0.08610386  1
  O  O182  1  0.40691592  0.01111820  0.08067683  1
  O  O183  1  0.91077194  0.02396375  0.08338537  1
  O  O184  1  0.08393045  0.15971388  0.07852520  1
  O  O185  1  0.59119467  0.16824033  0.07618011  1
  O  O186  1  0.34077157  0.16550892  0.74475837  1
  O  O187  1  0.83531347  0.15361693  0.74780855  1
  O  O188  1  0.23276917  0.31511874  0.74597359  1
  O  O189  1  0.73286311  0.34209324  0.74608605  1
  O  O190  1  0.42443886  0.53366547  0.75182180  1
  O  O191  1  0.91594017  0.51815464  0.75059536  1
  O  O192  1  0.33057415  0.50532727  0.24458591  1
  O  O193  1  0.83857093  0.51327648  0.24035931  1
  O  O194  1  0.41623602  0.31993757  0.24405663  1
  O  O195  1  0.91123789  0.30492991  0.24092164  1
  O  O196  1  0.23216474  0.14666750  0.24334416  1
  O  O197  1  0.73580910  0.15932620  0.24535124  1
  O  O198  1  0.31323936  0.50345230  0.91679038  1
  O  O199  1  0.81882564  0.50084819  0.91518996  1
  O  O200  1  0.41950362  0.34123013  0.92287896  1
  O  O201  1  0.92145976  0.33589043  0.92223269  1
  O  O202  1  0.24125492  0.14010658  0.91884151  1
  O  O203  1  0.73628743  0.14686184  0.91743041  1
  O  O204  1  0.31391470  0.12468251  0.41901835  1
  O  O205  1  0.81846285  0.13012686  0.41706669  1
  O  O206  1  0.23621418  0.33725913  0.42193193  1
  O  O207  1  0.74028275  0.33277745  0.41604150  1
  O  O208  1  0.42152312  0.50664113  0.41706250  1
  O  O209  1  0.91871464  0.51415696  0.42338226  1
  O  O210  1  0.16813656  0.49513471  0.07871063  1
  O  O211  1  0.67441966  0.49643333  0.08125619  1
  O  O212  1  0.07212307  0.65568951  0.07661238  1
  O  O213  1  0.56574462  0.64334976  0.07715214  1
  O  O214  1  0.25446084  0.85988125  0.07346050  1
  O  O215  1  0.75860991  0.87498077  0.07978933  1
  O  O216  1  0.17489897  0.83878288  0.58182590  1
  O  O217  1  0.66430822  0.84220833  0.58388117  1
  O  O218  1  0.25141224  0.64844158  0.57888929  1
  O  O219  1  0.75809510  0.65101924  0.58187723  1
  O  O220  1  0.07001180  0.49223430  0.57947889  1
  O  O221  1  0.57093518  0.46059388  0.57990833  1
  O  O222  1  0.15848282  0.85181775  0.25705176  1
  O  O223  1  0.66822548  0.86142062  0.25405165  1
  O  O224  1  0.25737417  0.69166500  0.25260608  1
  O  O225  1  0.76403258  0.69365731  0.25309985  1
  O  O226  1  0.07688727  0.47851797  0.25456566  1
  O  O227  1  0.58510102  0.48998035  0.24891615  1
  O  O228  1  0.15726293  0.46702261  0.75554819  1
  O  O229  1  0.64351269  0.45828851  0.75733156  1
  O  O230  1  0.08428308  0.67801344  0.75463426  1
  O  O231  1  0.57459918  0.68045451  0.75453652  1
  O  O232  1  0.25745505  0.83621195  0.75709104  1
  O  O233  1  0.75397621  0.81131403  0.76097635  1
