# generated using pymatgen
data_NaMgNiIO6
_symmetry_space_group_name_H-M   'P 1'
_cell_length_a   5.27185631
_cell_length_b   5.50125663
_cell_length_c   5.48649622
_cell_angle_alpha   72.09371205
_cell_angle_beta   88.66555330
_cell_angle_gamma   122.00190003
_symmetry_Int_Tables_number   1
_chemical_formula_structural   NaMgNiIO6
_chemical_formula_sum   'Na1 Mg1 Ni1 I1 O6'
_cell_volume   124.93504341
_cell_formula_units_Z   1
loop_
 _symmetry_equiv_pos_site_id
 _symmetry_equiv_pos_as_xyz
  1  'x, y, z'
loop_
 _atom_site_type_symbol
 _atom_site_label
 _atom_site_symmetry_multiplicity
 _atom_site_fract_x
 _atom_site_fract_y
 _atom_site_fract_z
 _atom_site_occupancy
  Na  Na0  1  0.12444356  0.15439989  0.08288442  1
  Mg  Mg1  1  -0.10538633  0.56267712  0.93766987  1
  Ni  Ni2  1  0.35393268  0.67585196  0.46841850  1
  I  I3  1  0.65750506  0.31992486  0.50273845  1
  O  O4  1  0.92533205  0.29467343  0.72305127  1
  O  O5  1  0.70689472  0.13920900  0.27234537  1
  O  O6  1  0.03292303  0.68756271  0.26132774  1
  O  O7  1  0.45621396  0.45555114  0.27584235  1
  O  O8  1  0.58440559  0.50901349  0.71339064  1
  O  O9  1  0.31373568  0.91363638  0.69983238  1
