# generated using pymatgen
data_Na10La4Si7Ge4S5O48
_symmetry_space_group_name_H-M   'P 1'
_cell_length_a   18.66886405
_cell_length_b   9.68427279
_cell_length_c   22.85369400
_cell_angle_alpha   89.91588258
_cell_angle_beta   84.04173216
_cell_angle_gamma   120.98178135
_symmetry_Int_Tables_number   1
_chemical_formula_structural   Na10La4Si7Ge4S5O48
_chemical_formula_sum   'Na30 La12 Si21 Ge12 S15 O144'
_cell_volume   3515.88966048
_cell_formula_units_Z   3
loop_
 _symmetry_equiv_pos_site_id
 _symmetry_equiv_pos_as_xyz
  1  'x, y, z'
loop_
 _atom_site_type_symbol
 _atom_site_label
 _atom_site_symmetry_multiplicity
 _atom_site_fract_x
 _atom_site_fract_y
 _atom_site_fract_z
 _atom_site_occupancy
  Na  Na0  1  0.18161271  0.36248275  0.23687315  1
  Na  Na1  1  0.68368793  0.36695207  0.23657184  1
  Na  Na2  1  0.99359303  0.64409714  0.25199057  1
  Na  Na3  1  0.49556877  0.64491967  0.25093099  1
  Na  Na4  1  0.49285534  0.33778587  0.75901826  1
  Na  Na5  1  0.18189741  0.00463391  0.73961059  1
  Na  Na6  1  0.67638692  0.00452840  0.73975243  1
  Na  Na7  1  0.65435545  0.33261376  0.58695294  1
  Na  Na8  1  0.01000450  0.69023527  0.57255923  1
  Na  Na9  1  0.82755867  0.97054428  0.58758135  1
  Na  Na10  1  0.49040898  0.67366406  0.92153108  1
  Na  Na11  1  0.99445837  0.67788671  0.91947425  1
  Na  Na12  1  0.84398428  0.03239359  0.91212507  1
  Na  Na13  1  0.15494279  0.30408858  0.91954512  1
  Na  Na14  1  0.49096820  0.30667532  0.41903805  1
  Na  Na15  1  0.97896575  0.29166451  0.41914981  1
  Na  Na16  1  0.34178999  0.65252279  0.40864476  1
  Na  Na17  1  0.84475791  0.67162343  0.40717937  1
  Na  Na18  1  0.02574359  0.02786286  0.50620208  1
  Na  Na19  1  0.52011699  0.00390740  0.50397893  1
  Na  Na20  1  0.01396676  0.00724017  0.00694030  1
  Na  Na21  1  0.51921801  0.02715409  0.00552867  1
  Na  Na22  1  0.34196412  0.34638847  0.83690554  1
  Na  Na23  1  0.84679166  0.35333898  0.83296938  1
  Na  Na24  1  0.33576577  0.31346349  0.32926404  1
  Na  Na25  1  0.83469193  0.30712391  0.33808490  1
  Na  Na26  1  0.18173668  0.68152608  0.16993249  1
  Na  Na27  1  0.68415925  0.68293113  0.17034827  1
  Na  Na28  1  0.18233936  0.66840696  0.67588447  1
  Na  Na29  1  0.67928259  0.66901231  0.67371290  1
  La  La30  1  0.00453217  0.00060137  0.34794730  1
  La  La31  1  0.50472850  0.00287087  0.34747123  1
  La  La32  1  0.00098255  0.00809746  0.84266866  1
  La  La33  1  0.49053121  -0.00179645  0.85713317  1
  La  La34  1  0.33879775  0.33843150  0.68030042  1
  La  La35  1  0.84045506  0.34229042  0.68830745  1
  La  La36  1  0.34074054  0.34572878  0.17722062  1
  La  La37  1  0.84018760  0.34144165  0.17808299  1
  La  La38  1  0.15662682  0.64614992  0.02085917  1
  La  La39  1  0.65746032  0.64629357  0.02489750  1
  La  La40  1  0.16789877  0.67251068  0.52088497  1
  La  La41  1  0.65500729  0.67360156  0.52055161  1
  Si  Si42  1  0.34632777  0.72249347  0.25201097  1
  Si  Si43  1  0.84762982  0.72248073  0.25144684  1
  Si  Si44  1  0.00100039  0.30656455  0.25458667  1
  Si  Si45  1  0.50215967  0.30798611  0.25446240  1
  Si  Si46  1  0.00390474  0.69836332  0.75478004  1
  Si  Si47  1  0.50098486  0.69731352  0.75472188  1
  Si  Si48  1  0.34686154  0.97173541  0.74701928  1
  Si  Si49  1  0.84125642  0.96151357  0.75319881  1
  Si  Si50  1  0.17554936  0.04945781  0.58893469  1
  Si  Si51  1  0.68264979  0.06006474  0.58897528  1
  Si  Si52  1  0.83361075  0.63814419  0.58197977  1
  Si  Si53  1  0.17730482  0.30066035  0.08911489  1
  Si  Si54  1  0.67764265  0.30291662  0.08965819  1
  Si  Si55  1  0.01362369  0.38615655  0.91519592  1
  Si  Si56  1  0.51228442  0.39140173  0.91717728  1
  Si  Si57  1  0.16732850  0.96800523  0.91558854  1
  Si  Si58  1  0.66915820  0.96770333  0.91754526  1
  Si  Si59  1  0.16792493  0.36793936  0.41584131  1
  Si  Si60  1  0.66804255  0.36937336  0.42050903  1
  Si  Si61  1  0.01260713  0.63870338  0.41976966  1
  Si  Si62  1  0.50912157  0.63818913  0.41490176  1
  Ge  Ge63  1  0.98237759  0.92455205  0.65014778  1
  Ge  Ge64  1  0.48807901  0.93087185  0.65017111  1
  Ge  Ge65  1  0.98746899  0.04281033  0.15054291  1
  Ge  Ge66  1  0.48877786  0.04074801  0.15074382  1
  Ge  Ge67  1  0.31399286  0.27406040  0.97534585  1
  Ge  Ge68  1  0.81021493  0.31306720  0.96624072  1
  Ge  Ge69  1  0.30887030  0.30498952  0.46479206  1
  Ge  Ge70  1  0.81718389  0.37919977  0.47994505  1
  Ge  Ge71  1  0.15182012  0.59327614  0.31251559  1
  Ge  Ge72  1  0.65302684  0.59892461  0.31326677  1
  Ge  Ge73  1  0.15356331  0.71323597  0.81213796  1
  Ge  Ge74  1  0.65061549  0.71131735  0.81285702  1
  S  S75  1  0.14914783  0.97244556  0.24583084  1
  S  S76  1  0.64790499  0.97123615  0.24553480  1
  S  S77  1  0.14841965  0.32515487  0.75171092  1
  S  S78  1  0.64348269  0.31536530  0.74420936  1
  S  S79  1  0.48420450  0.29521670  0.57954376  1
  S  S80  1  0.98169714  0.29837389  0.57580912  1
  S  S81  1  0.34547057  0.65599431  0.58111291  1
  S  S82  1  0.48522664  0.68141259  0.08303133  1
  S  S83  1  0.98524834  0.67562529  0.08154392  1
  S  S84  1  0.34243653  0.04119753  0.08034042  1
  S  S85  1  0.84321079  0.03172872  0.08147705  1
  S  S86  1  0.30956424  0.62661498  0.91722170  1
  S  S87  1  0.81399855  0.63760721  0.91925699  1
  S  S88  1  0.31356831  0.99213062  0.41732618  1
  S  S89  1  0.81221762  0.98080781  0.41702562  1
  O  O90  1  0.11942166  0.98922750  0.30739995  1
  O  O91  1  0.61753479  0.98547374  0.30726952  1
  O  O92  1  0.39570124  0.78105994  0.30974269  1
  O  O93  1  0.89808391  0.77714187  0.30892626  1
  O  O94  1  0.49176537  0.21703828  0.31641642  1
  O  O95  1  0.99342638  0.21705610  0.31619077  1
  O  O96  1  0.12053216  0.26261839  0.81538963  1
  O  O97  1  0.59760589  0.21780736  0.80023848  1
  O  O98  1  0.49371965  0.77949967  0.81410910  1
  O  O99  1  0.00049551  0.78251686  0.81469548  1
  O  O100  1  0.40914673  0.03670699  0.80020237  1
  O  O101  1  0.88592456  0.99259359  0.81287729  1
  O  O102  1  0.40292950  0.94437135  0.68841939  1
  O  O103  1  0.90146550  0.94649630  0.69235339  1
  O  O104  1  0.09227096  0.20449857  0.71258991  1
  O  O105  1  0.60263656  0.22503521  0.69279177  1
  O  O106  1  0.01096892  0.80907280  0.69423427  1
  O  O107  1  0.51304135  0.81299296  0.69420863  1
  O  O108  1  0.40588045  0.86487638  0.19396621  1
  O  O109  1  0.90668481  0.86572974  0.19454657  1
  O  O110  1  0.01297535  0.20933998  0.19705589  1
  O  O111  1  0.51307776  0.20688920  0.19754457  1
  O  O112  1  0.09581431  0.97781493  0.20357046  1
  O  O113  1  0.59349591  0.97643186  0.20365070  1
  O  O114  1  0.43724100  0.28504577  0.63746838  1
  O  O115  1  0.93372995  0.30031885  0.63128343  1
  O  O116  1  0.22580106  0.12509558  0.64472224  1
  O  O117  1  0.72789245  0.13006391  0.64743562  1
  O  O118  1  0.33238648  0.55244221  0.63304567  1
  O  O119  1  0.81766847  0.50705102  0.63202285  1
  O  O120  1  0.44331699  0.59842475  0.14282801  1
  O  O121  1  0.94062545  0.59061500  0.14033380  1
  O  O122  1  0.32726799  0.10875636  0.13470663  1
  O  O123  1  0.82940758  0.10914189  0.13346582  1
  O  O124  1  0.22376317  0.31672070  0.14672649  1
  O  O125  1  0.72265871  0.31192212  0.14723527  1
  O  O126  1  0.23664333  0.27747235  0.02773854  1
  O  O127  1  0.73809032  0.28592110  0.02839052  1
  O  O128  1  0.44435441  0.57395845  0.03524245  1
  O  O129  1  0.94669975  0.57328385  0.03220111  1
  O  O130  1  0.35393672  0.14371186  0.02596794  1
  O  O131  1  0.85540905  0.11865256  0.02507553  1
  O  O132  1  0.23656095  0.18593592  0.52613600  1
  O  O133  1  0.73692868  0.21122704  0.53080516  1
  O  O134  1  0.35490988  0.59190321  0.52431230  1
  O  O135  1  0.84799483  0.56559273  0.51623750  1
  O  O136  1  0.44682339  0.32014148  0.52947103  1
  O  O137  1  0.94307547  0.31294018  0.52412742  1
  O  O138  1  0.26876203  0.63069083  0.97517273  1
  O  O139  1  0.77372345  0.63781388  0.97497630  1
  O  O140  1  0.07304074  0.44436924  0.96734125  1
  O  O141  1  0.56487378  0.46748428  0.97156173  1
  O  O142  1  0.14971479  0.83841478  0.96696119  1
  O  O143  1  0.67570797  0.86073519  0.96760442  1
  O  O144  1  0.27337822  0.91749177  0.47519645  1
  O  O145  1  0.77600514  0.90795348  0.47804589  1
  O  O146  1  0.17479588  0.48669643  0.46639553  1
  O  O147  1  0.66507799  0.46267704  0.47786824  1
  O  O148  1  0.05979892  0.66460666  0.47773365  1
  O  O149  1  0.55971192  0.67026882  0.47006031  1
  O  O150  1  0.06962494  0.60548195  0.36010039  1
  O  O151  1  0.56335697  0.60416409  0.35452334  1
  O  O152  1  0.26963279  0.90866794  0.36677965  1
  O  O153  1  0.76375290  0.87662412  0.37146250  1
  O  O154  1  0.18170060  0.46939775  0.35102529  1
  O  O155  1  0.67937258  0.48033307  0.35828633  1
  O  O156  1  0.06763592  0.53819344  0.85857648  1
  O  O157  1  0.56381345  0.52923789  0.85612170  1
  O  O158  1  0.17712025  0.89457681  0.84986913  1
  O  O159  1  0.68104680  0.89209380  0.85227129  1
  O  O160  1  0.26979578  0.64256180  0.86744025  1
  O  O161  1  0.77176533  0.62934249  0.86732320  1
  O  O162  1  0.99179657  0.77766268  0.40575979  1
  O  O163  1  0.48403260  0.77125345  0.40236124  1
  O  O164  1  0.40063180  0.02538889  0.41469574  1
  O  O165  1  0.89862393  -0.00017853  0.41395110  1
  O  O166  1  0.08545250  0.18973281  0.42042500  1
  O  O167  1  0.58692522  0.18885948  0.41876888  1
  O  O168  1  0.98930881  0.20274743  0.90223899  1
  O  O169  1  0.49103308  0.20673849  0.90673664  1
  O  O170  1  0.09431117  0.01520217  0.91642917  1
  O  O171  1  0.58620942  0.98294409  0.92148133  1
  O  O172  1  0.39930643  0.75769131  0.91730748  1
  O  O173  1  0.90255958  0.77610258  0.91537028  1
  O  O174  1  0.49072398  0.14979623  0.57376817  1
  O  O175  1  0.97980959  0.14311939  0.57537493  1
  O  O176  1  0.08051352  0.03656604  0.59843443  1
  O  O177  1  0.58449980  0.03628076  0.59685205  1
  O  O178  1  0.43233450  0.81561823  0.58471818  1
  O  O179  1  0.92817578  0.80780275  0.58802048  1
  O  O180  1  0.48114494  0.82974711  0.07806046  1
  O  O181  1  0.98307135  0.82535800  0.07741585  1
  O  O182  1  0.42730517  0.05108214  0.08329827  1
  O  O183  1  0.92903084  0.04272694  0.08681948  1
  O  O184  1  0.08124429  0.12792197  0.09738282  1
  O  O185  1  0.58081310  0.12881950  0.09683800  1
  O  O186  1  0.32700657  0.11709206  0.73548746  1
  O  O187  1  0.81976691  0.10134372  0.73866277  1
  O  O188  1  0.23497872  0.34585274  0.74270174  1
  O  O189  1  0.73010668  0.34594508  0.74589820  1
  O  O190  1  0.43294833  0.50547127  0.75033547  1
  O  O191  1  0.93008374  0.51286329  0.75384489  1
  O  O192  1  0.32864727  0.54094763  0.23891898  1
  O  O193  1  0.82887469  0.54112120  0.23740059  1
  O  O194  1  0.43318013  0.36133321  0.24841252  1
  O  O195  1  0.93185615  0.35963559  0.24981856  1
  O  O196  1  0.23814207  0.11221811  0.23757434  1
  O  O197  1  0.73619901  0.11045149  0.23737340  1
  O  O198  1  0.30505927  0.46403992  0.91475882  1
  O  O199  1  0.82097322  0.48149673  0.91765363  1
  O  O200  1  0.41712227  0.38404296  0.93169474  1
  O  O201  1  0.91910216  0.38079054  0.93086377  1
  O  O202  1  0.25962207  0.14468792  0.91948534  1
  O  O203  1  0.76003370  0.15582221  0.91572169  1
  O  O204  1  0.31962893  0.15920796  0.41434817  1
  O  O205  1  0.82273387  0.14352239  0.41254453  1
  O  O206  1  0.25801143  0.36053092  0.41422539  1
  O  O207  1  0.76119109  0.37525607  0.41782803  1
  O  O208  1  0.41484263  0.45206537  0.42770377  1
  O  O209  1  0.91712006  0.45718878  0.42899523  1
  O  O210  1  0.16496917  0.45319394  0.07898939  1
  O  O211  1  0.66405680  0.45402798  0.08244807  1
  O  O212  1  0.07270480  0.70858110  0.08560982  1
  O  O213  1  0.57339300  0.71851764  0.08489903  1
  O  O214  1  0.27542577  0.87268249  0.07755066  1
  O  O215  1  0.77635343  0.85951229  0.08412269  1
  O  O216  1  0.15465525  0.86681517  0.57738364  1
  O  O217  1  0.67711391  0.89064210  0.57732087  1
  O  O218  1  0.27882539  0.69721165  0.58458384  1
  O  O219  1  0.76218625  0.68637672  0.58314534  1
  O  O220  1  0.06842716  0.44020098  0.57881076  1
  O  O221  1  0.57080137  0.44031266  0.58575649  1
  O  O222  1  0.14486478  0.81394383  0.24337394  1
  O  O223  1  0.64454299  0.81362269  0.24213076  1
  O  O224  1  0.25111930  0.70949619  0.26276169  1
  O  O225  1  0.75161578  0.70766515  0.26276126  1
  O  O226  1  0.09768890  0.48178552  0.25083699  1
  O  O227  1  0.59902946  0.48076757  0.25161877  1
  O  O228  1  0.15339704  0.48100963  0.74460152  1
  O  O229  1  0.64192027  0.46795015  0.74391479  1
  O  O230  1  0.10051995  0.71827240  0.74937126  1
  O  O231  1  0.59783109  0.71667578  0.75057101  1
  O  O232  1  0.25424702  0.79855494  0.76298048  1
  O  O233  1  0.74822726  0.78077885  0.76325855  1
