# generated using pymatgen
data_Na3Hf3Sc(PO4)6
_symmetry_space_group_name_H-M   'P 1'
_cell_length_a   8.91385330
_cell_length_b   8.91294121
_cell_length_c   23.06823381
_cell_angle_alpha   89.98438823
_cell_angle_beta   90.00902867
_cell_angle_gamma   120.22661595
_symmetry_Int_Tables_number   1
_chemical_formula_structural   Na3Hf3Sc(PO4)6
_chemical_formula_sum   'Na9 Hf9 Sc3 P18 O72'
_cell_volume   1583.56255004
_cell_formula_units_Z   3
loop_
 _symmetry_equiv_pos_site_id
 _symmetry_equiv_pos_as_xyz
  1  'x, y, z'
loop_
 _atom_site_type_symbol
 _atom_site_label
 _atom_site_symmetry_multiplicity
 _atom_site_fract_x
 _atom_site_fract_y
 _atom_site_fract_z
 _atom_site_occupancy
  Na  Na0  1  0.36590073  0.36170968  0.24863207  1
  Na  Na1  1  0.63665316  0.63316720  0.74903164  1
  Na  Na2  1  0.96988056  0.29961900  0.41541027  1
  Na  Na3  1  0.00037553  0.99456804  0.49909816  1
  Na  Na4  1  0.99994650  0.99996412  0.00098603  1
  Na  Na5  1  0.66702453  0.32792545  0.83313967  1
  Na  Na6  1  0.66709370  0.33348585  0.33055914  1
  Na  Na7  1  0.33292146  0.67193265  0.16531467  1
  Na  Na8  1  0.32820086  0.66709526  0.66572281  1
  Hf  Hf9  1  0.00091032  0.00151872  0.85401087  1
  Hf  Hf10  1  0.00157951  0.00155338  0.64593274  1
  Hf  Hf11  1  0.99847695  0.99793382  0.14613303  1
  Hf  Hf12  1  0.66671407  0.33343472  0.98140269  1
  Hf  Hf13  1  0.66114920  0.33386510  0.48187625  1
  Hf  Hf14  1  0.33341075  0.66665616  0.02075734  1
  Hf  Hf15  1  0.33422349  0.66822142  0.52050900  1
  Hf  Hf16  1  0.33445692  0.67345259  0.31308684  1
  Hf  Hf17  1  0.32796377  0.66732175  0.81508913  1
  Sc  Sc18  1  0.99898387  0.99260355  0.35070454  1
  Sc  Sc19  1  0.66725260  0.32688292  0.68454177  1
  Sc  Sc20  1  0.67306475  0.33260540  0.18417111  1
  P  P21  1  0.29062683  0.00065858  0.24986414  1
  P  P22  1  0.71046123  0.70830126  0.25015698  1
  P  P23  1  0.99603395  0.28872267  0.25100403  1
  P  P24  1  0.29109421  0.29004733  0.75009205  1
  P  P25  1  0.00069064  0.70983714  0.74983258  1
  P  P26  1  0.71082857  0.00321350  0.75022349  1
  P  P27  1  0.95659879  0.33342275  0.58333645  1
  P  P28  1  0.37609124  0.04265247  0.58406849  1
  P  P29  1  0.66628822  0.62358743  0.58462264  1
  P  P30  1  0.95685324  0.62333170  0.08350041  1
  P  P31  1  0.66692266  0.04360384  0.08362461  1
  P  P32  1  0.37676938  0.33346688  0.08415405  1
  P  P33  1  0.62291470  0.66552567  0.91647822  1
  P  P34  1  0.04192683  0.37624702  0.91723587  1
  P  P35  1  0.33403321  0.95769907  0.91712295  1
  P  P36  1  0.62492183  0.95727984  0.41712141  1
  P  P37  1  0.33425667  0.37644926  0.41623755  1
  P  P38  1  0.04349786  0.66961866  0.41716473  1
  O  O39  1  0.20887329  0.03267095  0.30377298  1
  O  O40  1  0.82009581  0.79188653  0.30425669  1
  O  O41  1  0.97316833  0.18325352  0.30651500  1
  O  O42  1  0.20313353  0.17655449  0.80399438  1
  O  O43  1  0.96990542  0.79616735  0.80360165  1
  O  O44  1  0.82362837  0.02578819  0.80417680  1
  O  O45  1  0.79347587  0.96590437  0.69663364  1
  O  O46  1  0.17553731  0.20549005  0.69617228  1
  O  O47  1  0.02961752  0.82505940  0.69587762  1
  O  O48  1  0.79350555  0.82383520  0.19602261  1
  O  O49  1  0.03408889  0.20641581  0.19734510  1
  O  O50  1  0.17528333  0.97005160  0.19572041  1
  O  O51  1  0.87538576  0.36378546  0.63678481  1
  O  O52  1  0.48753948  0.12356821  0.63755485  1
  O  O53  1  0.63626564  0.51564728  0.63948438  1
  O  O54  1  0.87686980  0.51260657  0.13745119  1
  O  O55  1  0.63559744  0.12318744  0.13747816  1
  O  O56  1  0.48406224  0.36393051  0.13937961  1
  O  O57  1  0.46186247  0.30522941  0.02975793  1
  O  O58  1  0.84403286  0.53936719  0.02888290  1
  O  O59  1  0.69558064  0.15630966  0.02896539  1
  O  O60  1  0.45985046  0.15548004  0.52925375  1
  O  O61  1  0.69487004  0.53868484  0.53005843  1
  O  O62  1  0.84673536  0.30462757  0.52740868  1
  O  O63  1  0.53714782  0.69505730  0.96983791  1
  O  O64  1  0.15730193  0.46166681  0.97062524  1
  O  O65  1  0.30417944  0.84240409  0.97053775  1
  O  O66  1  0.53652001  0.84337325  0.47071266  1
  O  O67  1  0.30392465  0.46391004  0.46966186  1
  O  O68  1  0.15678825  0.69233813  0.47083347  1
  O  O69  1  0.12623635  0.63254151  0.36359753  1
  O  O70  1  0.50954384  0.87303536  0.36323321  1
  O  O71  1  0.36289430  0.48842649  0.36118767  1
  O  O72  1  0.12733836  0.48911841  0.86278770  1
  O  O73  1  0.36160204  0.87245724  0.86273550  1
  O  O74  1  0.51314202  0.63856865  0.86089681  1
  O  O75  1  0.02333077  0.82873889  0.41101029  1
  O  O76  1  0.80859514  0.98385249  0.41109579  1
  O  O77  1  0.16802578  0.19777026  0.41077150  1
  O  O78  1  0.02379659  0.19542026  0.90919227  1
  O  O79  1  0.17139014  0.97573342  0.90894718  1
  O  O80  1  0.80496523  0.82867516  0.90897568  1
  O  O81  1  0.97630584  0.17060484  0.59017205  1
  O  O82  1  0.19365614  0.02305740  0.59011375  1
  O  O83  1  0.82982118  0.80684790  0.59026379  1
  O  O84  1  0.97704790  0.80618533  0.08993522  1
  O  O85  1  0.82946518  0.02348766  0.09022238  1
  O  O86  1  0.19302007  0.17032733  0.09016310  1
  O  O87  1  0.68997758  0.16167535  0.74416364  1
  O  O88  1  0.47484245  0.31696995  0.74410685  1
  O  O89  1  0.83470360  0.53145196  0.74386853  1
  O  O90  1  0.68076992  0.52317558  0.24365071  1
  O  O91  1  0.83855593  0.31197522  0.24385939  1
  O  O92  1  0.47045508  0.16535596  0.24330260  1
  O  O93  1  0.64246897  0.50370971  0.92362556  1
  O  O94  1  0.86067142  0.35689784  0.92373666  1
  O  O95  1  0.49645855  0.13950002  0.92372199  1
  O  O96  1  0.64705867  0.14203635  0.42415022  1
  O  O97  1  0.49706798  0.35878050  0.42385254  1
  O  O98  1  0.86393640  0.49901799  0.42430432  1
  O  O99  1  0.35578124  0.49486381  0.07506220  1
  O  O100  1  0.13945717  0.64474515  0.07500555  1
  O  O101  1  0.50521756  0.86047144  0.07503153  1
  O  O102  1  0.35524532  0.86058391  0.57544505  1
  O  O103  1  0.50499677  0.64409091  0.57529369  1
  O  O104  1  0.13996376  0.49501202  0.57517925  1
  O  O105  1  0.30834137  0.83697308  0.25692476  1
  O  O106  1  0.52430639  0.68577269  0.25712665  1
  O  O107  1  0.16774434  0.47038154  0.25740977  1
  O  O108  1  0.31377695  0.47517012  0.75730672  1
  O  O109  1  0.16337546  0.69188641  0.75708577  1
  O  O110  1  0.53086246  0.83258775  0.75744306  1
