# generated using pymatgen
data_Na2SiSnGe(PO6)2
_symmetry_space_group_name_H-M   'P 1'
_cell_length_a   8.70276706
_cell_length_b   8.72172615
_cell_length_c   22.12667657
_cell_angle_alpha   90.02814501
_cell_angle_beta   90.06829664
_cell_angle_gamma   119.84330582
_symmetry_Int_Tables_number   1
_chemical_formula_structural   Na2SiSnGe(PO6)2
_chemical_formula_sum   'Na12 Si6 Sn6 Ge6 P12 O72'
_cell_volume   1456.76515508
_cell_formula_units_Z   6
loop_
 _symmetry_equiv_pos_site_id
 _symmetry_equiv_pos_as_xyz
  1  'x, y, z'
loop_
 _atom_site_type_symbol
 _atom_site_label
 _atom_site_symmetry_multiplicity
 _atom_site_fract_x
 _atom_site_fract_y
 _atom_site_fract_z
 _atom_site_occupancy
  Na  Na0  1  0.00056248  0.63774697  0.25015452  1
  Na  Na1  1  0.36708222  0.99740725  0.75182394  1
  Na  Na2  1  0.66451873  0.97038997  0.58665688  1
  Na  Na3  1  0.03598869  0.33440705  0.08389843  1
  Na  Na4  1  0.96812933  0.66821679  0.91842756  1
  Na  Na5  1  0.32791723  0.02682265  0.41912692  1
  Na  Na6  1  0.00312699  0.99574286  0.49988268  1
  Na  Na7  1  0.00153401  0.99838937  0.99833171  1
  Na  Na8  1  0.66618433  0.32803737  0.83669677  1
  Na  Na9  1  0.67080552  0.33317148  0.33046465  1
  Na  Na10  1  0.35040717  0.67478226  0.16612409  1
  Na  Na11  1  0.32642310  0.65240079  0.66932163  1
  Si  Si12  1  0.99953101  0.29690305  0.24711129  1
  Si  Si13  1  0.71009693  0.99218773  0.75485022  1
  Si  Si14  1  0.37094379  0.04220314  0.58290785  1
  Si  Si15  1  0.95129130  0.61743702  0.07958142  1
  Si  Si16  1  0.33798685  0.96166172  0.91652637  1
  Si  Si17  1  0.04121244  0.66452233  0.41220167  1
  Sn  Sn18  1  0.99441338  0.00065196  0.34935815  1
  Sn  Sn19  1  0.00422754  0.00075552  0.65044255  1
  Sn  Sn20  1  0.99863293  0.99449056  0.14607036  1
  Sn  Sn21  1  0.67073027  0.33423335  0.69019788  1
  Sn  Sn22  1  0.67074332  0.33887896  0.47754249  1
  Sn  Sn23  1  0.32671431  0.66559216  0.51946619  1
  Ge  Ge24  1  0.00459089  0.00857373  0.85547018  1
  Ge  Ge25  1  0.66953180  0.33037799  0.18335691  1
  Ge  Ge26  1  0.65845560  0.32959301  0.97981694  1
  Ge  Ge27  1  0.32979637  0.67445394  0.01838392  1
  Ge  Ge28  1  0.32701433  0.65741649  0.31263952  1
  Ge  Ge29  1  0.34335388  0.67383597  0.81729927  1
  P  P30  1  0.30674593  0.00495958  0.24981873  1
  P  P31  1  0.69502175  0.69848728  0.24884613  1
  P  P32  1  0.28607784  0.29824541  0.75551964  1
  P  P33  1  0.00342058  0.70923299  0.75642310  1
  P  P34  1  0.96110305  0.33533033  0.58435967  1
  P  P35  1  0.66705224  0.62370134  0.58404842  1
  P  P36  1  0.65634802  0.04459220  0.08087561  1
  P  P37  1  0.38939526  0.34087260  0.08168508  1
  P  P38  1  0.61642377  0.66676033  0.91837911  1
  P  P39  1  0.05047597  0.37933888  0.91720792  1
  P  P40  1  0.61994454  0.94840505  0.41478561  1
  P  P41  1  0.33257346  0.38150483  0.41381842  1
  O  O42  1  0.23114538  0.04120373  0.30809293  1
  O  O43  1  0.82318056  0.77104931  0.30374496  1
  O  O44  1  0.95434506  0.17344559  0.30619513  1
  O  O45  1  0.20354782  0.16539184  0.80857707  1
  O  O46  1  0.97429661  0.79666333  0.81259848  1
  O  O47  1  0.84422516  0.02832649  0.81095414  1
  O  O48  1  0.78022039  0.96002919  0.69004891  1
  O  O49  1  0.18104862  0.22651568  0.69611403  1
  O  O50  1  0.05066243  0.82662347  0.69901360  1
  O  O51  1  0.77393000  0.81773132  0.19280196  1
  O  O52  1  0.03962349  0.21838864  0.18584485  1
  O  O53  1  0.17244783  0.95001750  0.19650207  1
  O  O54  1  0.88407200  0.37149945  0.64135789  1
  O  O55  1  0.49304302  0.12283921  0.64388575  1
  O  O56  1  0.63911251  0.51532760  0.64158567  1
  O  O57  1  0.86871647  0.49393443  0.14044393  1
  O  O58  1  0.62376274  0.12260432  0.13925092  1
  O  O59  1  0.50009392  0.36638634  0.13935219  1
  O  O60  1  0.46744331  0.30281827  0.02507311  1
  O  O61  1  0.83240813  0.52573499  0.01892736  1
  O  O62  1  0.69798784  0.16809400  0.02577451  1
  O  O63  1  0.45430385  0.15267867  0.52019100  1
  O  O64  1  0.70217025  0.54826682  0.52644806  1
  O  O65  1  0.84432928  0.29734733  0.52736888  1
  O  O66  1  0.53069829  0.69935496  0.97466656  1
  O  O67  1  0.16187559  0.45585133  0.97620933  1
  O  O68  1  0.28398890  0.82296160  0.97340676  1
  O  O69  1  0.55107895  0.85041700  0.47552957  1
  O  O70  1  0.30532397  0.45591363  0.47276429  1
  O  O71  1  0.16403314  0.71488357  0.47229660  1
  O  O72  1  0.13459148  0.63988614  0.35168193  1
  O  O73  1  0.49563497  0.85518576  0.36074755  1
  O  O74  1  0.36292338  0.49763443  0.35803575  1
  O  O75  1  0.13658151  0.50613430  0.86294407  1
  O  O76  1  0.37017760  0.87521422  0.85545393  1
  O  O77  1  0.50136718  0.62975640  0.86124985  1
  O  O78  1  0.02886594  0.84558404  0.40819222  1
  O  O79  1  0.80541377  0.97180665  0.41088441  1
  O  O80  1  0.16876009  0.19422952  0.40984717  1
  O  O81  1  0.03190604  0.19380661  0.91053629  1
  O  O82  1  0.15278640  0.97356296  0.90875554  1
  O  O83  1  0.80621777  0.83111238  0.91254667  1
  O  O84  1  0.96829655  0.16235462  0.58891399  1
  O  O85  1  0.17688114  0.02253241  0.58721798  1
  O  O86  1  0.82789384  0.81306291  0.58794939  1
  O  O87  1  0.97343968  0.81372819  0.08461946  1
  O  O88  1  0.82900499  0.03282996  0.08574677  1
  O  O89  1  0.19865592  0.17721985  0.08592003  1
  O  O90  1  0.68118638  0.16567140  0.75273476  1
  O  O91  1  0.47172988  0.31385465  0.75033382  1
  O  O92  1  0.83343935  0.52884611  0.75036318  1
  O  O93  1  0.67780369  0.51437868  0.23968556  1
  O  O94  1  0.82470905  0.32345555  0.24044106  1
  O  O95  1  0.48483163  0.17349068  0.23880301  1
  O  O96  1  0.64260445  0.50187971  0.92344513  1
  O  O97  1  0.86448958  0.36455994  0.92206573  1
  O  O98  1  0.51407577  0.15692142  0.92541161  1
  O  O99  1  0.62794508  0.13083237  0.41661274  1
  O  O100  1  0.49695914  0.35587259  0.41549951  1
  O  O101  1  0.84959364  0.48624982  0.41536066  1
  O  O102  1  0.36896872  0.50821268  0.07572562  1
  O  O103  1  0.14801820  0.62865427  0.07420538  1
  O  O104  1  0.49249806  0.85788735  0.07393696  1
  O  O105  1  0.36451104  0.85133702  0.58157981  1
  O  O106  1  0.50021224  0.64273736  0.57941258  1
  O  O107  1  0.14675757  0.49420626  0.57995168  1
  O  O108  1  0.32659965  0.83876044  0.25695485  1
  O  O109  1  0.51522780  0.68697121  0.25965853  1
  O  O110  1  0.17507162  0.49606141  0.25462191  1
  O  O111  1  0.29993914  0.47893769  0.76454685  1
  O  O112  1  0.16905903  0.68727139  0.76219542  1
  O  O113  1  0.51002637  0.81699479  0.76028974  1
