# generated using pymatgen
data_Na2La3NbSi2(SO6)4
_symmetry_space_group_name_H-M   'P 1'
_cell_length_a   9.36521015
_cell_length_b   9.37509486
_cell_length_c   24.41688862
_cell_angle_alpha   90.78603682
_cell_angle_beta   89.82159444
_cell_angle_gamma   120.00088111
_symmetry_Int_Tables_number   1
_chemical_formula_structural   Na2La3NbSi2(SO6)4
_chemical_formula_sum   'Na6 La9 Nb3 Si6 S12 O72'
_cell_volume   1856.37350917
_cell_formula_units_Z   3
loop_
 _symmetry_equiv_pos_site_id
 _symmetry_equiv_pos_as_xyz
  1  'x, y, z'
loop_
 _atom_site_type_symbol
 _atom_site_label
 _atom_site_symmetry_multiplicity
 _atom_site_fract_x
 _atom_site_fract_y
 _atom_site_fract_z
 _atom_site_occupancy
  Na  Na0  1  0.00183830  0.96901776  0.49847488  1
  Na  Na1  1  0.99586834  0.95304829  0.99713664  1
  Na  Na2  1  0.63728041  0.32350380  0.83889344  1
  Na  Na3  1  0.71139418  0.34581926  0.32901851  1
  Na  Na4  1  0.29223072  0.64987910  0.15566115  1
  Na  Na5  1  0.32315488  0.64624105  0.68082080  1
  La  La6  1  0.99698518  0.99592432  0.34950441  1
  La  La7  1  0.01533247  0.00143287  0.85411450  1
  La  La8  1  0.01683023  0.02241700  0.65963497  1
  La  La9  1  0.99635942  0.99763058  0.14497962  1
  La  La10  1  0.65567830  0.33651665  0.69009944  1
  La  La11  1  0.68730073  0.34372559  0.18655503  1
  La  La12  1  0.68238201  0.34767904  0.47427578  1
  La  La13  1  0.32876784  0.67376083  0.01813100  1
  La  La14  1  0.32134050  0.66638857  0.51908391  1
  Nb  Nb15  1  0.66657475  0.34641634  0.97749911  1
  Nb  Nb16  1  0.31271686  0.65647238  0.31487341  1
  Nb  Nb17  1  0.34784064  0.66854234  0.82632784  1
  Si  Si18  1  0.00338484  0.29908455  0.25334036  1
  Si  Si19  1  0.30587799  0.32608764  0.75506713  1
  Si  Si20  1  0.95325675  0.63130695  0.07994831  1
  Si  Si21  1  0.62951715  0.66058252  0.92171487  1
  Si  Si22  1  0.35729090  0.97594427  0.91880017  1
  Si  Si23  1  0.03546893  0.66673928  0.41449577  1
  S  S24  1  0.30515631  0.98153872  0.25381405  1
  S  S25  1  0.67237049  0.69489040  0.25376077  1
  S  S26  1  0.02330959  0.69685976  0.75222350  1
  S  S27  1  0.67693653  0.98018737  0.75520018  1
  S  S28  1  0.96253745  0.32358565  0.58438160  1
  S  S29  1  0.36256637  0.03859411  0.58198135  1
  S  S30  1  0.67539603  0.64414630  0.58346391  1
  S  S31  1  0.67780058  0.05455196  0.07774260  1
  S  S32  1  0.37975280  0.32162974  0.07766024  1
  S  S33  1  0.02616355  0.38606919  0.91362753  1
  S  S34  1  0.61346183  0.95293621  0.41195252  1
  S  S35  1  0.34287984  0.38701867  0.41037484  1
  O  O36  1  0.22446419  0.99957323  0.30289140  1
  O  O37  1  0.77956157  0.77022617  0.30211623  1
  O  O38  1  0.99244478  0.19705183  0.30702476  1
  O  O39  1  0.20838618  0.19797841  0.80254242  1
  O  O40  1  0.98837190  0.77106204  0.79996541  1
  O  O41  1  0.78432275  0.00617921  0.80222595  1
  O  O42  1  0.74612887  0.95407498  0.70348626  1
  O  O43  1  0.20528386  0.25538216  0.69618689  1
  O  O44  1  0.03959597  0.79167596  0.70153459  1
  O  O45  1  0.74681353  0.79089717  0.20391605  1
  O  O46  1  0.03151729  0.22128614  0.19706735  1
  O  O47  1  0.20533350  0.94948558  0.20389744  1
  O  O48  1  0.87302690  0.32833278  0.63370054  1
  O  O49  1  0.45202111  0.12862538  0.63242552  1
  O  O50  1  0.66971042  0.54890258  0.63237604  1
  O  O51  1  0.85211741  0.54019620  0.13448348  1
  O  O52  1  0.66912002  0.13107383  0.13000326  1
  O  O53  1  0.46654272  0.32123574  0.12707652  1
  O  O54  1  0.47711032  0.31940505  0.02662884  1
  O  O55  1  0.83440458  0.50925602  0.02408585  1
  O  O56  1  0.67237997  0.15021844  0.02981862  1
  O  O57  1  0.45254232  0.12792018  0.53218764  1
  O  O58  1  0.67874898  0.55492246  0.53249214  1
  O  O59  1  0.87367039  0.32289122  0.53360611  1
  O  O60  1  0.54050720  0.67322628  0.97486365  1
  O  O61  1  0.11475739  0.44759547  0.96563302  1
  O  O62  1  0.32001499  0.86661540  0.97198831  1
  O  O63  1  0.53559115  0.86924807  0.46369274  1
  O  O64  1  0.34244034  0.46811548  0.46252127  1
  O  O65  1  0.12886125  0.66431554  0.46987365  1
  O  O66  1  0.15724109  0.66562269  0.36100710  1
  O  O67  1  0.51546909  0.85083917  0.36372064  1
  O  O68  1  0.34416562  0.49096521  0.36301688  1
  O  O69  1  0.12902531  0.49992512  0.86711392  1
  O  O70  1  0.37216410  0.86247317  0.86472853  1
  O  O71  1  0.49662234  0.63359511  0.86717109  1
  O  O72  1  0.01885493  0.82981831  0.41451273  1
  O  O73  1  0.78182033  0.97780238  0.41117268  1
  O  O74  1  0.19587295  0.22352163  0.40833890  1
  O  O75  1  0.99252886  0.21865348  0.90331526  1
  O  O76  1  0.21229105  0.01716237  0.90908244  1
  O  O77  1  0.81104388  0.80793705  0.91069298  1
  O  O78  1  0.97655085  0.17214446  0.58351234  1
  O  O79  1  0.19434838  0.01961139  0.58172989  1
  O  O80  1  0.82580619  0.80945727  0.58461373  1
  O  O81  1  0.96541262  0.81164256  0.07638730  1
  O  O82  1  0.83474594  0.05006879  0.07549694  1
  O  O83  1  0.21565749  0.17074101  0.07389014  1
  O  O84  1  0.64753807  0.12150787  0.75000626  1
  O  O85  1  0.49707969  0.36344497  0.75140924  1
  O  O86  1  0.88506859  0.52396347  0.74589251  1
  O  O87  1  0.63569418  0.52200131  0.24919742  1
  O  O88  1  0.85840752  0.34582920  0.25333251  1
  O  O89  1  0.47297371  0.12409223  0.24966466  1
  O  O90  1  0.63564868  0.48207757  0.92663287  1
  O  O91  1  0.86648391  0.38798508  0.91482976  1
  O  O92  1  0.53676391  0.15460415  0.92691845  1
  O  O93  1  0.61965844  0.11519515  0.40952829  1
  O  O94  1  0.49536133  0.37553771  0.40602167  1
  O  O95  1  0.85888839  0.49439157  0.40787596  1
  O  O96  1  0.36453696  0.47103289  0.07716470  1
  O  O97  1  0.13023831  0.63943430  0.08216259  1
  O  O98  1  0.53594534  0.88393460  0.07803988  1
  O  O99  1  0.34758624  0.87274261  0.58414673  1
  O  O100  1  0.52449486  0.65938170  0.58358736  1
  O  O101  1  0.13122953  0.47218592  0.58567320  1
  O  O102  1  0.32389354  0.82898724  0.26164822  1
  O  O103  1  0.51094985  0.69042351  0.26338219  1
  O  O104  1  0.17827302  0.49070602  0.26616416  1
  O  O105  1  0.31361878  0.50651447  0.76879383  1
  O  O106  1  0.17992093  0.69370520  0.76017640  1
  O  O107  1  0.51132964  0.82520198  0.76330160  1
