# generated using pymatgen
data_Na4TaZnSi2PO12
_symmetry_space_group_name_H-M   'P 1'
_cell_length_a   9.13629338
_cell_length_b   9.13629306
_cell_length_c   22.10739320
_cell_angle_alpha   89.63858806
_cell_angle_beta   90.36141193
_cell_angle_gamma   119.37669648
_symmetry_Int_Tables_number   1
_chemical_formula_structural   Na4TaZnSi2PO12
_chemical_formula_sum   'Na24 Ta6 Zn6 Si12 P6 O72'
_cell_volume   1608.01551788
_cell_formula_units_Z   6
loop_
 _symmetry_equiv_pos_site_id
 _symmetry_equiv_pos_as_xyz
  1  'x, y, z'
loop_
 _atom_site_type_symbol
 _atom_site_label
 _atom_site_symmetry_multiplicity
 _atom_site_fract_x
 _atom_site_fract_y
 _atom_site_fract_z
 _atom_site_occupancy
  Na  Na0  1  0.64982888  0.02267471  0.24693938  1
  Na  Na1  1  0.37804309  0.35835511  0.24114827  1
  Na  Na2  1  0.97041512  0.61480474  0.24465221  1
  Na  Na3  1  0.64164489  0.62195691  0.74114827  1
  Na  Na4  1  0.97732529  0.35017112  0.74693938  1
  Na  Na5  1  0.38519526  0.02958488  0.74465221  1
  Na  Na6  1  0.31649588  0.35600771  0.58027238  1
  Na  Na7  1  0.04471009  0.69168811  0.57448127  1
  Na  Na8  1  0.63708212  0.94813774  0.57798521  1
  Na  Na9  1  0.30831189  0.95528991  0.07448127  1
  Na  Na10  1  0.64399229  0.68350412  0.08027238  1
  Na  Na11  1  0.05186226  0.36291788  0.07798521  1
  Na  Na12  1  0.98316188  0.68934171  0.91360638  1
  Na  Na13  1  0.71137609  0.02502211  0.90781527  1
  Na  Na14  1  0.30374812  0.28147174  0.91131921  1
  Na  Na15  1  0.97497789  0.28862391  0.40781527  1
  Na  Na16  1  0.31065829  0.01683812  0.41360638  1
  Na  Na17  1  0.71852826  0.69625188  0.41131921  1
  Na  Na18  1  0.99494464  0.99292534  0.49043992  1
  Na  Na19  1  0.00707466  0.00505536  0.99043992  1
  Na  Na20  1  0.66161164  0.32625834  0.82377292  1
  Na  Na21  1  0.67374166  0.33838836  0.32377292  1
  Na  Na22  1  0.32827764  0.65959234  0.15710692  1
  Na  Na23  1  0.34040766  0.67172236  0.65710692  1
  Ta  Ta24  1  0.99807134  0.00091937  0.64683324  1
  Ta  Ta25  1  0.99908063  0.00192866  0.14683324  1
  Ta  Ta26  1  0.66473834  0.33425237  0.98016624  1
  Ta  Ta27  1  0.66574763  0.33526166  0.48016624  1
  Ta  Ta28  1  0.33140434  0.66758637  0.31350024  1
  Ta  Ta29  1  0.33241363  0.66859566  0.81350024  1
  Zn  Zn30  1  0.98743542  0.99104137  0.34759305  1
  Zn  Zn31  1  0.00895863  0.01256458  0.84759305  1
  Zn  Zn32  1  0.65410242  0.32437437  0.68092605  1
  Zn  Zn33  1  0.67562563  0.34589758  0.18092605  1
  Zn  Zn34  1  0.32076842  0.65770837  0.01426005  1
  Zn  Zn35  1  0.34229163  0.67923158  0.51426005  1
  Si  Si36  1  0.70179520  0.70427570  0.25285680  1
  Si  Si37  1  0.00254441  0.29580724  0.25351392  1
  Si  Si38  1  0.29572430  0.29820480  0.75285680  1
  Si  Si39  1  0.70419276  0.99745559  0.75351392  1
  Si  Si40  1  0.36846220  0.03760870  0.58618980  1
  Si  Si41  1  0.66921141  0.62914024  0.58684692  1
  Si  Si42  1  0.96239130  0.63153780  0.08618980  1
  Si  Si43  1  0.37085976  0.33078859  0.08684692  1
  Si  Si44  1  0.03512820  0.37094270  0.91952380  1
  Si  Si45  1  0.33587741  0.96247424  0.92018092  1
  Si  Si46  1  0.62905730  0.96487180  0.41952380  1
  Si  Si47  1  0.03752576  0.66412259  0.42018092  1
  P  P48  1  0.28639249  0.99301175  0.25335103  1
  P  P49  1  0.00698825  0.71360751  0.75335103  1
  P  P50  1  0.95305949  0.32634475  0.58668403  1
  P  P51  1  0.67365525  0.04694051  0.08668403  1
  P  P52  1  0.61972549  0.65967875  0.92001803  1
  P  P53  1  0.34032125  0.38027451  0.42001803  1
  O  O54  1  0.21046242  0.01893869  0.31000699  1
  O  O55  1  0.81189259  0.78026108  0.31260873  1
  O  O56  1  0.98604308  0.19058557  0.31335249  1
  O  O57  1  0.21973892  0.18810741  0.81260873  1
  O  O58  1  0.98106131  0.78953758  0.81000699  1
  O  O59  1  0.80941443  0.01395692  0.81335249  1
  O  O60  1  0.80450301  0.96978303  0.69358040  1
  O  O61  1  0.16481019  0.19468591  0.69343340  1
  O  O62  1  0.02904312  0.83033638  0.69598555  1
  O  O63  1  0.80531409  0.83518981  0.19343340  1
  O  O64  1  0.03021697  0.19549699  0.19358040  1
  O  O65  1  0.16966362  0.97095688  0.19598555  1
  O  O66  1  0.87712942  0.35227169  0.64333999  1
  O  O67  1  0.47855959  0.11359408  0.64594173  1
  O  O68  1  0.65271008  0.52391857  0.64668549  1
  O  O69  1  0.88640592  0.52144041  0.14594173  1
  O  O70  1  0.64772831  0.12287058  0.14333999  1
  O  O71  1  0.47608143  0.34728992  0.14668549  1
  O  O72  1  0.47117001  0.30311603  0.02691340  1
  O  O73  1  0.83147719  0.52801891  0.02676640  1
  O  O74  1  0.69571012  0.16366938  0.02931855  1
  O  O75  1  0.47198109  0.16852281  0.52676640  1
  O  O76  1  0.69688397  0.52882999  0.52691340  1
  O  O77  1  0.83633062  0.30428988  0.52931855  1
  O  O78  1  0.54379542  0.68560569  0.97667399  1
  O  O79  1  0.14522559  0.44692808  0.97927573  1
  O  O80  1  0.31937608  0.85725257  0.98001949  1
  O  O81  1  0.55307192  0.85477441  0.47927573  1
  O  O82  1  0.31439431  0.45620458  0.47667399  1
  O  O83  1  0.14274743  0.68062392  0.48001949  1
  O  O84  1  0.13783601  0.63645003  0.36024740  1
  O  O85  1  0.49814319  0.86135291  0.36010040  1
  O  O86  1  0.36237612  0.49700338  0.36265255  1
  O  O87  1  0.13864709  0.50185681  0.86010040  1
  O  O88  1  0.36354997  0.86216399  0.86024740  1
  O  O89  1  0.50299662  0.63762388  0.86265255  1
  O  O90  1  0.01455820  0.82803623  0.41382380  1
  O  O91  1  0.81937351  -0.00024125  0.41315973  1
  O  O92  1  0.19805613  0.20042678  0.41228145  1
  O  O93  1  0.00024125  0.18062649  0.91315973  1
  O  O94  1  0.17196377  0.98544180  0.91382380  1
  O  O95  1  0.79957322  0.80194387  0.91228145  1
  O  O96  1  0.95383557  0.15259339  0.58788829  1
  O  O97  1  0.18397182  0.03795222  0.58812629  1
  O  O98  1  0.84791571  0.81676260  0.58842506  1
  O  O99  1  0.96204778  0.81602818  0.08812629  1
  O  O100  1  0.84740661  0.04616443  0.08788829  1
  O  O101  1  0.18323740  0.15208429  0.08842506  1
  O  O102  1  0.68122520  0.16136923  0.74715680  1
  O  O103  1  0.48604051  0.33309175  0.74649273  1
  O  O104  1  0.86472313  0.53375978  0.74561445  1
  O  O105  1  0.66690825  0.51395949  0.24649273  1
  O  O106  1  0.83863077  0.31877480  0.24715680  1
  O  O107  1  0.46624022  0.13527687  0.24561445  1
  O  O108  1  0.62050257  0.48592639  0.92122129  1
  O  O109  1  0.85063882  0.37128522  0.92145929  1
  O  O110  1  0.51458271  0.15009560  0.92175806  1
  O  O111  1  0.62871478  0.14936118  0.42145929  1
  O  O112  1  0.51407361  0.37949743  0.42122129  1
  O  O113  1  0.84990440  0.48541729  0.42175806  1
  O  O114  1  0.34789120  0.49470323  0.08049080  1
  O  O115  1  0.15270651  0.66642575  0.07982673  1
  O  O116  1  0.53138913  0.86709378  0.07894845  1
  O  O117  1  0.33357425  0.84729349  0.57982673  1
  O  O118  1  0.50529677  0.65210880  0.58049080  1
  O  O119  1  0.13290622  0.46861087  0.57894845  1
  O  O120  1  0.28716857  0.81926039  0.25455529  1
  O  O121  1  0.51730482  0.70461922  0.25479329  1
  O  O122  1  0.18124871  0.48342960  0.25509206  1
  O  O123  1  0.29538078  0.48269518  0.75479329  1
  O  O124  1  0.18073961  0.71283143  0.75455529  1
  O  O125  1  0.51657040  0.81875129  0.75509206  1
