# generated using pymatgen
data_Na3Al2Ga2P3(SO8)3
_symmetry_space_group_name_H-M   'P 1'
_cell_length_a   8.48376762
_cell_length_b   8.48245559
_cell_length_c   21.89748438
_cell_angle_alpha   89.09362309
_cell_angle_beta   90.80389982
_cell_angle_gamma   120.09155168
_symmetry_Int_Tables_number   1
_chemical_formula_structural   Na3Al2Ga2P3(SO8)3
_chemical_formula_sum   'Na9 Al6 Ga6 P9 S9 O72'
_cell_volume   1363.22859640
_cell_formula_units_Z   3
loop_
 _symmetry_equiv_pos_site_id
 _symmetry_equiv_pos_as_xyz
  1  'x, y, z'
loop_
 _atom_site_type_symbol
 _atom_site_label
 _atom_site_symmetry_multiplicity
 _atom_site_fract_x
 _atom_site_fract_y
 _atom_site_fract_z
 _atom_site_occupancy
  Na  Na0  1  0.36137602  0.36165135  0.25104060  1
  Na  Na1  1  0.69462837  0.02836646  0.91661937  1
  Na  Na2  1  0.97097529  0.30475270  0.41679972  1
  Na  Na3  1  0.00305011  0.99772608  0.50057176  1
  Na  Na4  1  0.00185854  0.99626101  0.00045658  1
  Na  Na5  1  0.66318525  0.33541648  0.83280453  1
  Na  Na6  1  0.66660361  0.33334596  0.33344548  1
  Na  Na7  1  0.33220382  0.67478994  0.16615853  1
  Na  Na8  1  0.33343854  0.66672899  0.66681412  1
  Al  Al9  1  0.99708350  0.99209035  0.85199582  1
  Al  Al10  1  0.99109995  0.00567694  0.64864064  1
  Al  Al11  1  0.67562017  0.32731492  0.68534772  1
  Al  Al12  1  0.34577898  0.68193896  0.01776752  1
  Al  Al13  1  0.31878250  0.65436357  0.51876057  1
  Al  Al14  1  0.34891742  0.68028097  0.81515396  1
  Ga  Ga15  1  0.01407012  0.00299343  0.35165423  1
  Ga  Ga16  1  0.99904916  0.00482578  0.14877197  1
  Ga  Ga17  1  0.66892438  0.31741239  0.18477763  1
  Ga  Ga18  1  0.66004397  0.33139219  0.98122062  1
  Ga  Ga19  1  0.66902090  0.34060428  0.48245120  1
  Ga  Ga20  1  0.32004844  0.66419415  0.31571578  1
  P  P21  1  0.28943856  0.99574941  0.24887236  1
  P  P22  1  0.99660388  0.28903837  0.25053293  1
  P  P23  1  0.71171147  -0.00019774  0.75007209  1
  P  P24  1  0.95742176  0.33345819  0.58409367  1
  P  P25  1  0.66570787  0.03950133  0.08248261  1
  P  P26  1  0.62024466  0.66309361  0.91651882  1
  P  P27  1  0.32541693  0.95153429  0.91573641  1
  P  P28  1  0.33902222  0.38074111  0.41761791  1
  P  P29  1  0.04491839  0.67166477  0.41793623  1
  S  S30  1  0.71114927  0.71112218  0.25018646  1
  S  S31  1  0.28864214  0.28891865  0.74985623  1
  S  S32  1  0.00035063  0.71189386  0.74935845  1
  S  S33  1  0.37537646  0.04214024  0.58421678  1
  S  S34  1  0.66653368  0.62419087  0.58481751  1
  S  S35  1  0.95934246  0.62347980  0.08297504  1
  S  S36  1  0.37524211  0.33657122  0.08320349  1
  S  S37  1  0.05253850  0.38378077  0.91605735  1
  S  S38  1  0.61783364  0.95048802  0.41786007  1
  O  O39  1  0.21374591  0.04091177  0.30543470  1
  O  O40  1  0.82203288  0.78785696  0.30557599  1
  O  O41  1  0.96175761  0.17272706  0.30925507  1
  O  O42  1  0.20718817  0.17299826  0.80513132  1
  O  O43  1  0.96826254  0.79227412  0.80432648  1
  O  O44  1  0.83136395  0.03382517  0.80845035  1
  O  O45  1  0.79842845  0.96630126  0.69444267  1
  O  O46  1  0.17521224  0.20591467  0.69472431  1
  O  O47  1  0.03345302  0.82789242  0.69441330  1
  O  O48  1  0.78743091  0.82163789  0.19420893  1
  O  O49  1  0.03988519  0.20999909  0.19446384  1
  O  O50  1  0.17053891  0.96261939  0.19170499  1
  O  O51  1  0.86810535  0.36750252  0.63906586  1
  O  O52  1  0.49162907  0.12732701  0.63883941  1
  O  O53  1  0.63291659  0.50538555  0.63924742  1
  O  O54  1  0.87925600  0.51214853  0.13869465  1
  O  O55  1  0.62793972  0.12015479  0.13840899  1
  O  O56  1  0.48774906  0.37152369  0.13947515  1
  O  O57  1  0.45520820  0.30158792  0.02910539  1
  O  O58  1  0.84367474  0.54484674  0.02772298  1
  O  O59  1  0.70385824  0.15973311  0.02410535  1
  O  O60  1  0.45140215  0.15570883  0.52841376  1
  O  O61  1  0.70173239  0.54949257  0.52931920  1
  O  O62  1  0.84044365  0.29514468  0.52497319  1
  O  O63  1  0.53765670  0.70231997  0.97272919  1
  O  O64  1  0.16129747  0.46177620  0.97210430  1
  O  O65  1  0.29538402  0.83483670  0.97328182  1
  O  O66  1  0.53588397  0.83843559  0.47299219  1
  O  O67  1  0.30099635  0.46715982  0.47259230  1
  O  O68  1  0.16560538  0.70280803  0.47403236  1
  O  O69  1  0.11899025  0.62572220  0.36112133  1
  O  O70  1  0.51063212  0.87670314  0.36136009  1
  O  O71  1  0.37199762  0.49280724  0.35786296  1
  O  O72  1  0.13148399  0.49505185  0.86061309  1
  O  O73  1  0.36688524  0.86876223  0.86026159  1
  O  O74  1  0.50143763  0.63091401  0.85973717  1
  O  O75  1  0.02111873  0.83815173  0.41044051  1
  O  O76  1  0.80310199  0.97396017  0.41210601  1
  O  O77  1  0.16179118  0.19222659  0.41176155  1
  O  O78  1  0.02695512  0.19638107  0.90963551  1
  O  O79  1  0.15937617  0.97673232  0.90627900  1
  O  O80  1  0.81088326  0.83870164  0.90807198  1
  O  O81  1  0.97841951  0.16303333  0.59276057  1
  O  O82  1  0.19203453  0.02150232  0.59270133  1
  O  O83  1  0.83244280  0.80624974  0.59251221  1
  O  O84  1  0.97742197  0.80585531  0.08916841  1
  O  O85  1  0.83767454  0.02131021  0.09003237  1
  O  O86  1  0.19458018  0.17026814  0.08907754  1
  O  O87  1  0.69030546  0.17062794  0.74140642  1
  O  O88  1  0.47245585  0.30951451  0.74167783  1
  O  O89  1  0.83408017  0.52934195  0.74193942  1
  O  O90  1  0.68830022  0.52632339  0.24329689  1
  O  O91  1  0.83049464  0.31308562  0.24410451  1
  O  O92  1  0.47733789  0.17434397  0.24267603  1
  O  O93  1  0.64492691  0.49613143  0.92434729  1
  O  O94  1  0.86541451  0.35846926  0.92163751  1
  O  O95  1  0.50220795  0.14169022  0.92275767  1
  O  O96  1  0.64185403  0.13689399  0.42304660  1
  O  O97  1  0.50515655  0.35556116  0.42495889  1
  O  O98  1  0.85537090  0.49535933  0.42412128  1
  O  O99  1  0.35526392  0.49900876  0.07459959  1
  O  O100  1  0.13980777  0.63842397  0.07533479  1
  O  O101  1  0.49448316  0.85011801  0.07483330  1
  O  O102  1  0.36126388  0.86201574  0.57659678  1
  O  O103  1  0.50384755  0.64441666  0.57598235  1
  O  O104  1  0.14781263  0.50455520  0.57592900  1
  O  O105  1  0.31395742  0.83029552  0.25670614  1
  O  O106  1  0.52723784  0.68953035  0.25587491  1
  O  O107  1  0.17294110  0.47720497  0.25601764  1
  O  O108  1  0.30481681  0.47013063  0.75740024  1
  O  O109  1  0.16207708  0.68965198  0.75807889  1
  O  O110  1  0.52003241  0.82946004  0.75790858  1
