# generated using pymatgen
data_MgCr3InO8
_symmetry_space_group_name_H-M   'P 1'
_cell_length_a   5.20590089
_cell_length_b   5.20590125
_cell_length_c   6.26132520
_cell_angle_alpha   85.72342009
_cell_angle_beta   85.72341924
_cell_angle_gamma   67.46523247
_symmetry_Int_Tables_number   1
_chemical_formula_structural   MgCr3InO8
_chemical_formula_sum   'Mg1 Cr3 In1 O8'
_cell_volume   156.10297806
_cell_formula_units_Z   1
loop_
 _symmetry_equiv_pos_site_id
 _symmetry_equiv_pos_as_xyz
  1  'x, y, z'
loop_
 _atom_site_type_symbol
 _atom_site_label
 _atom_site_symmetry_multiplicity
 _atom_site_fract_x
 _atom_site_fract_y
 _atom_site_fract_z
 _atom_site_occupancy
  Mg  Mg0  1  0.50000000  0.50000000  0.00000000  1
  Cr  Cr1  1  0.34213000  0.34213000  0.67277900  1
  Cr  Cr2  1  0.65787000  0.65787000  0.32722100  1
  Cr  Cr3  1  0.00000000  0.00000000  0.50000000  1
  In  In4  1  0.00000000  0.00000000  0.00000000  1
  O  O5  1  0.72794600  0.24246300  0.73608800  1
  O  O6  1  0.25310900  0.25310900  0.94078400  1
  O  O7  1  0.75753700  0.27205400  0.26391200  1
  O  O8  1  0.22487900  0.22487900  0.46868000  1
  O  O9  1  0.27205400  0.75753700  0.26391200  1
  O  O10  1  0.24246300  0.72794600  0.73608800  1
  O  O11  1  0.77512100  0.77512100  0.53132000  1
  O  O12  1  0.74689100  0.74689100  0.05921600  1
