# generated using pymatgen
data_Gd2MgV2O8
_symmetry_space_group_name_H-M   'P 1'
_cell_length_a   6.14537298
_cell_length_b   6.14551481
_cell_length_c   6.29075476
_cell_angle_alpha   106.00371381
_cell_angle_beta   106.00958957
_cell_angle_gamma   115.85729456
_symmetry_Int_Tables_number   1
_chemical_formula_structural   Gd2MgV2O8
_chemical_formula_sum   'Gd2 Mg1 V2 O8'
_cell_volume   182.70324238
_cell_formula_units_Z   1
loop_
 _symmetry_equiv_pos_site_id
 _symmetry_equiv_pos_as_xyz
  1  'x, y, z'
loop_
 _atom_site_type_symbol
 _atom_site_label
 _atom_site_symmetry_multiplicity
 _atom_site_fract_x
 _atom_site_fract_y
 _atom_site_fract_z
 _atom_site_occupancy
  Gd  Gd0  1  0.87288700  0.12711500  0.25001100  1
  Gd  Gd1  1  0.15347200  0.84654500  0.74999600  1
  Mg  Mg2  1  0.85869400  0.14129200  0.75000500  1
  V  V3  1  0.59618900  0.40373500  0.74997500  1
  V  V4  1  0.37801900  0.62200000  0.25000500  1
  O  O5  1  0.23785300  0.19085500  0.57179000  1
  O  O6  1  0.18250900  0.25723100  0.03863900  1
  O  O7  1  0.19503300  0.60741500  0.43203400  1
  O  O8  1  0.63584700  0.19042800  0.91000800  1
  O  O9  1  0.74273100  0.81746100  0.46134200  1
  O  O10  1  0.80919300  0.76222500  0.92824400  1
  O  O11  1  0.80957500  0.36415200  0.58998900  1
  O  O12  1  0.39258000  0.80496300  0.06796300  1
