# generated using pymatgen
data_Na3Sc2(PO4)3
_symmetry_space_group_name_H-M   'P 1'
_cell_length_a   9.01691316
_cell_length_b   9.01691285
_cell_length_c   22.64534336
_cell_angle_alpha   89.95422557
_cell_angle_beta   90.04577444
_cell_angle_gamma   120.11800886
_symmetry_Int_Tables_number   1
_chemical_formula_structural   Na3Sc2(PO4)3
_chemical_formula_sum   'Na18 Sc12 P18 O72'
_cell_volume   1592.60271656
_cell_formula_units_Z   6
loop_
 _symmetry_equiv_pos_site_id
 _symmetry_equiv_pos_as_xyz
  1  'x, y, z'
loop_
 _atom_site_type_symbol
 _atom_site_label
 _atom_site_symmetry_multiplicity
 _atom_site_fract_x
 _atom_site_fract_y
 _atom_site_fract_z
 _atom_site_occupancy
  Na  Na0  1  0.99999761  0.00013891  0.49999821  1
  Na  Na1  1  0.99986109  0.00000239  0.99999821  1
  Na  Na2  1  0.64353998  0.32045595  0.83335690  1
  Na  Na3  1  0.67954405  0.35646002  0.33335690  1
  Na  Na4  1  0.33338806  0.66680981  0.16668668  1
  Na  Na5  1  0.33319019  0.66661194  0.66668668  1
  Na  Na6  1  0.63505476  0.99920605  0.24986506  1
  Na  Na7  1  0.36449074  0.36309504  0.24997999  1
  Na  Na8  1  0.63690496  0.63550926  0.74997999  1
  Na  Na9  1  0.00079395  0.36494524  0.74986506  1
  Na  Na10  1  0.03002348  0.69771841  0.58346893  1
  Na  Na11  1  0.66544688  0.96860276  0.58308489  1
  Na  Na12  1  0.30228159  0.96997652  0.08346893  1
  Na  Na13  1  0.03139724  0.33455312  0.08308489  1
  Na  Na14  1  0.96767023  0.66459597  0.91721025  1
  Na  Na15  1  0.69798335  0.02990400  0.91662043  1
  Na  Na16  1  0.97009600  0.30201665  0.41662043  1
  Na  Na17  1  0.33540403  0.03232977  0.41721025  1
  Sc  Sc18  1  0.99278169  0.98996452  0.35060214  1
  Sc  Sc19  1  0.01003548  0.00721831  0.85060214  1
  Sc  Sc20  1  0.00904460  0.00695079  0.64948878  1
  Sc  Sc21  1  0.99304921  0.99095540  0.14948878  1
  Sc  Sc22  1  0.65838046  0.32676124  0.68381261  1
  Sc  Sc23  1  0.67323876  0.34161954  0.18381261  1
  Sc  Sc24  1  0.66013980  0.33579780  0.98288793  1
  Sc  Sc25  1  0.66420220  0.33986020  0.48288793  1
  Sc  Sc26  1  0.34064455  0.66470226  0.01713708  1
  Sc  Sc27  1  0.33529774  0.65935545  0.51713708  1
  Sc  Sc28  1  0.32797995  0.66554166  0.31608550  1
  Sc  Sc29  1  0.33445834  0.67202005  0.81608550  1
  P  P30  1  0.29558733  0.99952482  0.24967705  1
  P  P31  1  0.70323010  0.70346612  0.25046490  1
  P  P32  1  0.99969012  0.29354455  0.24974844  1
  P  P33  1  0.29653388  0.29676990  0.75046490  1
  P  P34  1  0.00047518  0.70441267  0.74967705  1
  P  P35  1  0.70645545  0.00030988  0.74974844  1
  P  P36  1  0.95992635  0.33306557  0.58338125  1
  P  P37  1  0.37075108  0.03701272  0.58132296  1
  P  P38  1  0.66687013  0.62921501  0.58536226  1
  P  P39  1  0.96298728  0.62924892  0.08132296  1
  P  P40  1  0.66693443  0.04007365  0.08338125  1
  P  P41  1  0.37078499  0.33312987  0.08536226  1
  P  P42  1  0.62925251  0.66653146  0.91447781  1
  P  P43  1  0.03733063  0.37052677  0.91714611  1
  P  P44  1  0.33365712  0.96043483  0.91836990  1
  P  P45  1  0.62947323  0.96266937  0.41714611  1
  P  P46  1  0.33346854  0.37074749  0.41447781  1
  P  P47  1  0.03956517  0.66634288  0.41836990  1
  O  O48  1  0.21038817  0.02618902  0.30503926  1
  O  O49  1  0.81326288  0.78915788  0.30524119  1
  O  O50  1  0.97224710  0.18146955  0.30528015  1
  O  O51  1  0.21084212  0.18673712  0.80524119  1
  O  O52  1  0.97381098  0.78961183  0.80503926  1
  O  O53  1  0.81853045  0.02775290  0.80528015  1
  O  O54  1  0.79127401  0.97328279  0.69435531  1
  O  O55  1  0.18111473  0.21153536  0.69613998  1
  O  O56  1  0.02241030  0.81185477  0.69396135  1
  O  O57  1  0.78846464  0.81888527  0.19613998  1
  O  O58  1  0.02671721  0.20872599  0.19435531  1
  O  O59  1  0.18814523  0.97758970  0.19396135  1
  O  O60  1  0.87578520  0.36070186  0.63880007  1
  O  O61  1  0.48815931  0.12636961  0.63453044  1
  O  O62  1  0.64357156  0.52477673  0.64190091  1
  O  O63  1  0.87363039  0.51184069  0.13453044  1
  O  O64  1  0.63929814  0.12421480  0.13880007  1
  O  O65  1  0.47522327  0.35642844  0.14190091  1
  O  O66  1  0.45951274  0.30488168  0.03206345  1
  O  O67  1  0.85836118  0.54801366  0.02465491  1
  O  O68  1  0.69407969  0.15194674  0.02791903  1
  O  O69  1  0.45198634  0.14163882  0.52465491  1
  O  O70  1  0.69511832  0.54048726  0.53206345  1
  O  O71  1  0.84805326  0.30592031  0.52791903  1
  O  O72  1  0.54064029  0.69578050  0.96782313  1
  O  O73  1  0.14466476  0.45636703  0.97289396  1
  O  O74  1  0.30516719  0.85129049  0.97468625  1
  O  O75  1  0.54363297  0.85533524  0.47289396  1
  O  O76  1  0.30421950  0.45935971  0.46782313  1
  O  O77  1  0.14870951  0.69483281  0.47468625  1
  O  O78  1  0.12800600  0.63748198  0.36492352  1
  O  O79  1  0.51745367  0.87724905  0.36184656  1
  O  O80  1  0.35613354  0.47515218  0.35789842  1
  O  O81  1  0.12275095  0.48254633  0.86184656  1
  O  O82  1  0.36251802  0.87199400  0.86492352  1
  O  O83  1  0.52484782  0.64386646  0.85789842  1
  O  O84  1  0.02935847  0.83157037  0.41145985  1
  O  O85  1  0.81282831  0.99044922  0.41219520  1
  O  O86  1  0.16927850  0.18990459  0.41096078  1
  O  O87  1  0.00955078  0.18717169  0.91219520  1
  O  O88  1  0.16842963  0.97064153  0.91145985  1
  O  O89  1  0.81009541  0.83072150  0.91096078  1
  O  O90  1  0.97105752  0.16809888  0.58893865  1
  O  O91  1  0.18785627  0.00986525  0.58765658  1
  O  O92  1  0.83079874  0.81004001  0.58879605  1
  O  O93  1  0.99013475  0.81214373  0.08765658  1
  O  O94  1  0.83190112  0.02894248  0.08893865  1
  O  O95  1  0.18995999  0.16920126  0.08879605  1
  O  O96  1  0.69464614  0.16485806  0.74417441  1
  O  O97  1  0.47862740  0.32328666  0.74505053  1
  O  O98  1  0.83601486  0.52402942  0.74517930  1
  O  O99  1  0.67671334  0.52137260  0.24505053  1
  O  O100  1  0.83514194  0.30535386  0.24417441  1
  O  O101  1  0.47597058  0.16398514  0.24517930  1
  O  O102  1  0.65497175  0.51057443  0.92106082  1
  O  O103  1  0.85695402  0.35428884  0.92151975  1
  O  O104  1  0.49816552  0.13741978  0.92286373  1
  O  O105  1  0.64571116  0.14304598  0.42151975  1
  O  O106  1  0.48942557  0.34502825  0.42106082  1
  O  O107  1  0.86258022  0.50183448  0.42286373  1
  O  O108  1  0.34388506  0.48913508  0.07883784  1
  O  O109  1  0.14324491  0.64534619  0.07791688  1
  O  O110  1  0.50177553  0.86305718  0.07781738  1
  O  O111  1  0.35465381  0.85675509  0.57791688  1
  O  O112  1  0.51086492  0.65611494  0.57883784  1
  O  O113  1  0.13694282  0.49822447  0.57781738  1
  O  O114  1  0.32311483  0.84401396  0.25494717  1
  O  O115  1  0.52355652  0.68798467  0.25528514  1
  O  O116  1  0.16467791  0.47021559  0.25514597  1
  O  O117  1  0.31201533  0.47644348  0.75528514  1
  O  O118  1  0.15598604  0.67688517  0.75494717  1
  O  O119  1  0.52978441  0.83532209  0.75514597  1
