# generated using pymatgen
data_Na3CaZr(PO4)3
_symmetry_space_group_name_H-M   'P 1'
_cell_length_a   9.28778201
_cell_length_b   9.30418378
_cell_length_c   22.61622931
_cell_angle_alpha   90.00000000
_cell_angle_beta   90.00817451
_cell_angle_gamma   120.05843681
_symmetry_Int_Tables_number   1
_chemical_formula_structural   Na3CaZr(PO4)3
_chemical_formula_sum   'Na18 Ca6 Zr6 P18 O72'
_cell_volume   1691.55095269
_cell_formula_units_Z   6
loop_
 _symmetry_equiv_pos_site_id
 _symmetry_equiv_pos_as_xyz
  1  'x, y, z'
loop_
 _atom_site_type_symbol
 _atom_site_label
 _atom_site_symmetry_multiplicity
 _atom_site_fract_x
 _atom_site_fract_y
 _atom_site_fract_z
 _atom_site_occupancy
  Na  Na0  1  0.97701341  0.95942378  0.49403933  1
  Na  Na1  1  0.97701341  0.01758963  0.99403933  1
  Na  Na2  1  0.66738468  0.33949572  0.82741369  1
  Na  Na3  1  0.66738468  0.32788796  0.32741369  1
  Na  Na4  1  0.32655472  0.66111923  0.16070382  1
  Na  Na5  1  0.32655472  0.66543649  0.66070382  1
  Na  Na6  1  0.36927975  0.35219402  0.24330832  1
  Na  Na7  1  0.98652438  0.64590050  0.24475177  1
  Na  Na8  1  0.98652438  0.34062388  0.74475177  1
  Na  Na9  1  0.36927975  0.01708574  0.74330832  1
  Na  Na10  1  0.32199229  0.34524202  0.57734370  1
  Na  Na11  1  0.65394125  0.96906688  0.57766449  1
  Na  Na12  1  0.32199229  0.97674927  0.07734370  1
  Na  Na13  1  0.65394125  0.68487337  0.07766449  1
  Na  Na14  1  0.99241666  0.68333842  0.91059514  1
  Na  Na15  1  0.31677766  0.29635687  0.91069886  1
  Na  Na16  1  0.99241666  0.30907924  0.41059514  1
  Na  Na17  1  0.31677766  0.02042179  0.41069886  1
  Ca  Ca18  1  0.98569645  0.99472927  0.34933416  1
  Ca  Ca19  1  0.98569645  0.99096717  0.84933416  1
  Ca  Ca20  1  0.67444282  0.34969115  0.68310830  1
  Ca  Ca21  1  0.67444282  0.32475067  0.18310830  1
  Ca  Ca22  1  0.32894108  0.66132555  0.01632877  1
  Ca  Ca23  1  0.32894108  0.66761653  0.51632877  1
  Zr  Zr24  1  0.99480544  0.98987551  0.64984668  1
  Zr  Zr25  1  0.99480544  0.00492993  0.14984668  1
  Zr  Zr26  1  0.67208839  0.32617810  0.98282067  1
  Zr  Zr27  1  0.67208839  0.34590929  0.48282067  1
  Zr  Zr28  1  0.34530632  0.67410972  0.31636353  1
  Zr  Zr29  1  0.34530632  0.67119760  0.81636353  1
  P  P30  1  0.29226694  0.99028537  0.25283741  1
  P  P31  1  0.69393250  0.70094974  0.24756331  1
  P  P32  1  0.01570756  0.31280848  0.25537888  1
  P  P33  1  0.29226694  0.30198157  0.75283741  1
  P  P34  1  0.01570756  0.70289908  0.75537888  1
  P  P35  1  0.69393250  0.99298276  0.74756331  1
  P  P36  1  0.96388071  0.31915285  0.58610437  1
  P  P37  1  0.36450950  0.04267656  0.58657645  1
  P  P38  1  0.67284275  0.64030718  0.58393069  1
  P  P39  1  0.96388071  0.64472686  0.08610437  1
  P  P40  1  0.67284275  0.03253456  0.08393069  1
  P  P41  1  0.36450950  0.32183194  0.08657645  1
  P  P42  1  0.63048338  0.65229385  0.92265046  1
  P  P43  1  0.03086798  0.37351753  0.91431928  1
  P  P44  1  0.34368990  0.97402941  0.91863984  1
  P  P45  1  0.63048338  0.97819053  0.42265046  1
  P  P46  1  0.34368990  0.36966149  0.41863984  1
  P  P47  1  0.03086798  0.65735145  0.41431928  1
  O  O48  1  0.21368084  0.00465776  0.30993544  1
  O  O49  1  0.80400886  0.78234567  0.30020323  1
  O  O50  1  0.00162836  0.22844396  0.31409484  1
  O  O51  1  0.21368084  0.20902309  0.80993544  1
  O  O52  1  0.00162836  0.77318440  0.81409484  1
  O  O53  1  0.80400886  0.02166319  0.80020323  1
  O  O54  1  0.78247692  0.97511016  0.69024590  1
  O  O55  1  0.17144500  0.20166603  0.69881934  1
  O  O56  1  0.02013849  0.82201882  0.70375151  1
  O  O57  1  0.78247692  0.80736676  0.19024590  1
  O  O58  1  0.02013849  0.19811967  0.20375151  1
  O  O59  1  0.17144500  0.96977897  0.19881934  1
  O  O60  1  0.88821295  0.33240680  0.64380236  1
  O  O61  1  0.45673471  0.12115248  0.64367004  1
  O  O62  1  0.64426750  0.53651452  0.63820804  1
  O  O63  1  0.88821295  0.55580516  0.14380236  1
  O  O64  1  0.64426750  0.10775198  0.13820804  1
  O  O65  1  0.45673471  0.33558123  0.14367004  1
  O  O66  1  0.46479442  0.30099916  0.03283610  1
  O  O67  1  0.84946315  0.53733701  0.03202684  1
  O  O68  1  0.68810091  0.14420999  0.02850033  1
  O  O69  1  0.46479442  0.16379426  0.53283610  1
  O  O70  1  0.68810091  0.54388992  0.52850033  1
  O  O71  1  0.84946315  0.31212514  0.53202684  1
  O  O72  1  0.55867227  0.66613354  0.98098874  1
  O  O73  1  0.13527979  0.45910552  0.96792866  1
  O  O74  1  0.32371838  0.87978086  0.97561317  1
  O  O75  1  0.55867227  0.89253972  0.48098874  1
  O  O76  1  0.32371838  0.44393852  0.47561317  1
  O  O77  1  0.13527979  0.67617527  0.46792866  1
  O  O78  1  0.12265597  0.63773866  0.35778048  1
  O  O79  1  0.50985452  0.86648910  0.37056161  1
  O  O80  1  0.35590458  0.48315803  0.36404308  1
  O  O81  1  0.12265597  0.48491831  0.85778048  1
  O  O82  1  0.35590458  0.87274755  0.86404308  1
  O  O83  1  0.50985452  0.64336642  0.87056161  1
  O  O84  1  0.00470620  0.80602160  0.41051218  1
  O  O85  1  0.80987121  0.01698682  0.41535555  1
  O  O86  1  0.19424267  0.19237413  0.41254871  1
  O  O87  1  0.00470620  0.19868460  0.91051218  1
  O  O88  1  0.19424267  0.00186854  0.91254871  1
  O  O89  1  0.80987121  0.79288439  0.91535555  1
  O  O90  1  0.96022331  0.14699197  0.58405533  1
  O  O91  1  0.19157372  0.03730049  0.58694673  1
  O  O92  1  0.83971046  0.81101418  0.58573925  1
  O  O93  1  0.96022331  0.81323134  0.08405533  1
  O  O94  1  0.83971046  0.02869628  0.08573925  1
  O  O95  1  0.19157372  0.15427323  0.08694673  1
  O  O96  1  0.66083990  0.13894467  0.74330145  1
  O  O97  1  0.46404786  0.32069818  0.74650541  1
  O  O98  1  0.87700141  0.52223667  0.74861712  1
  O  O99  1  0.66083990  0.52189423  0.24330145  1
  O  O100  1  0.87700141  0.35476373  0.24861712  1
  O  O101  1  0.46404786  0.14334867  0.24650541  1
  O  O102  1  0.62594490  0.48039595  0.91920744  1
  O  O103  1  0.86129434  0.37476647  0.91780809  1
  O  O104  1  0.50652483  0.14912756  0.91878200  1
  O  O105  1  0.62594490  0.14554794  0.41920744  1
  O  O106  1  0.50652483  0.35739627  0.41878200  1
  O  O107  1  0.86129434  0.48652687  0.41780809  1
  O  O108  1  0.34480776  0.47403205  0.07999672  1
  O  O109  1  0.14548136  0.68653678  0.08093019  1
  O  O110  1  0.52759100  0.85436933  0.07792170  1
  O  O111  1  0.34480776  0.87077672  0.57999672  1
  O  O112  1  0.52759100  0.67322267  0.57792170  1
  O  O113  1  0.14548136  0.45894558  0.58093019  1
  O  O114  1  0.29765429  0.82331975  0.25287473  1
  O  O115  1  0.52123605  0.69323786  0.25247559  1
  O  O116  1  0.18956458  0.47853681  0.25109020  1
  O  O117  1  0.29765429  0.47433554  0.75287473  1
  O  O118  1  0.18956458  0.71102877  0.75109020  1
  O  O119  1  0.52123605  0.82799919  0.75247559  1
