# generated using pymatgen
data_Na3InSiSn(PO6)2
_symmetry_space_group_name_H-M   'P 1'
_cell_length_a   15.71106649
_cell_length_b   9.12054988
_cell_length_c   9.13274003
_cell_angle_alpha   90.00000000
_cell_angle_beta   125.07226724
_cell_angle_gamma   90.00000000
_symmetry_Int_Tables_number   1
_chemical_formula_structural   Na3InSiSn(PO6)2
_chemical_formula_sum   'Na12 In4 Si4 Sn4 P8 O48'
_cell_volume   1071.04626779
_cell_formula_units_Z   4
loop_
 _symmetry_equiv_pos_site_id
 _symmetry_equiv_pos_as_xyz
  1  'x, y, z'
loop_
 _atom_site_type_symbol
 _atom_site_label
 _atom_site_symmetry_multiplicity
 _atom_site_fract_x
 _atom_site_fract_y
 _atom_site_fract_z
 _atom_site_occupancy
  Na  Na0  1  0.25308853  0.72124339  0.99754990  1
  Na  Na1  1  0.75308853  0.77875661  0.49754990  1
  Na  Na2  1  0.75308853  0.22124339  0.99754990  1
  Na  Na3  1  0.25308853  0.27875661  0.49754990  1
  Na  Na4  1  0.50874772  0.10832355  0.76475320  1
  Na  Na5  1  0.50874772  0.89167645  0.26475320  1
  Na  Na6  1  0.00874772  0.60832355  0.76475320  1
  Na  Na7  1  0.00874772  0.39167645  0.26475320  1
  Na  Na8  1  0.18440021  0.93101714  0.28835713  1
  Na  Na9  1  0.18440021  0.06898286  0.78835713  1
  Na  Na10  1  0.68440021  0.43101714  0.28835713  1
  Na  Na11  1  0.68440021  0.56898286  0.78835713  1
  In  In12  1  0.10220849  0.74698063  0.55975543  1
  In  In13  1  0.10220849  0.25301937  0.05975543  1
  In  In14  1  0.60220849  0.24698063  0.55975543  1
  In  In15  1  0.60220849  0.75301937  0.05975543  1
  Si  Si16  1  0.64841521  0.89310910  0.74530355  1
  Si  Si17  1  0.64841521  0.10689090  0.24530355  1
  Si  Si18  1  0.14841521  0.39310910  0.74530355  1
  Si  Si19  1  0.14841521  0.60689090  0.24530355  1
  Sn  Sn20  1  0.89806135  0.75589656  0.94330841  1
  Sn  Sn21  1  0.89806135  0.24410344  0.44330841  1
  Sn  Sn22  1  0.39806135  0.25589656  0.94330841  1
  Sn  Sn23  1  0.39806135  0.74410344  0.44330841  1
  P  P24  1  0.99663555  0.95402886  0.75376058  1
  P  P25  1  0.99663555  0.04597114  0.25376058  1
  P  P26  1  0.49663555  0.45402886  0.75376058  1
  P  P27  1  0.49663555  0.54597114  0.25376058  1
  P  P28  1  0.35167878  0.90418278  0.75592630  1
  P  P29  1  0.35167878  0.09581722  0.25592630  1
  P  P30  1  0.85167878  0.40418278  0.75592630  1
  P  P31  1  0.85167878  0.59581722  0.25592630  1
  O  O32  1  0.15301857  0.57139841  0.74603838  1
  O  O33  1  0.85117657  0.57714000  0.75469737  1
  O  O34  1  0.85117657  0.42286000  0.25469737  1
  O  O35  1  0.15301857  0.42860159  0.24603838  1
  O  O36  1  0.65301857  0.07139841  0.74603838  1
  O  O37  1  0.35117657  0.07714000  0.75469737  1
  O  O38  1  0.35117657  0.92286000  0.25469737  1
  O  O39  1  0.65301857  0.92860159  0.24603838  1
  O  O40  1  0.43328578  0.55285044  0.58530952  1
  O  O41  1  0.56082627  0.54130976  0.92766062  1
  O  O42  1  0.56082627  0.45869024  0.42766062  1
  O  O43  1  0.43328578  0.44714956  0.08530952  1
  O  O44  1  0.93328578  0.05285044  0.58530952  1
  O  O45  1  0.06082627  0.04130976  0.92766062  1
  O  O46  1  0.06082627  0.95869024  0.42766062  1
  O  O47  1  0.93328578  0.94714956  0.08530952  1
  O  O48  1  0.25484396  0.85467474  0.74594758  1
  O  O49  1  0.74607778  0.80938537  0.75671544  1
  O  O50  1  0.74607778  0.19061463  0.25671544  1
  O  O51  1  0.25484396  0.14532526  0.24594758  1
  O  O52  1  0.75484396  0.35467474  0.74594758  1
  O  O53  1  0.24607778  0.30938537  0.75671544  1
  O  O54  1  0.24607778  0.69061463  0.25671544  1
  O  O55  1  0.75484396  0.64532526  0.24594758  1
  O  O56  1  0.34953744  0.86537532  0.58606731  1
  O  O57  1  0.64429369  0.84208413  0.90816904  1
  O  O58  1  0.64429369  0.15791587  0.40816904  1
  O  O59  1  0.34953744  0.13462468  0.08606731  1
  O  O60  1  0.84953744  0.36537532  0.58606731  1
  O  O61  1  0.14429369  0.34208413  0.90816904  1
  O  O62  1  0.14429369  0.65791587  0.40816904  1
  O  O63  1  0.84953744  0.63462468  0.08606731  1
  O  O64  1  0.44823462  0.84626249  0.92993405  1
  O  O65  1  0.54342219  0.82582355  0.55591839  1
  O  O66  1  0.54342219  0.17417645  0.05591839  1
  O  O67  1  0.44823462  0.15373751  0.42993405  1
  O  O68  1  0.94823462  0.34626249  0.92993405  1
  O  O69  1  0.04342219  0.32582355  0.55591839  1
  O  O70  1  0.04342219  0.67417645  0.05591839  1
  O  O71  1  0.94823462  0.65373751  0.42993405  1
  O  O72  1  0.07527206  0.85723781  0.74549627  1
  O  O73  1  0.91677524  0.84951254  0.74933150  1
  O  O74  1  0.91677524  0.15048746  0.24933150  1
  O  O75  1  0.07527206  0.14276219  0.24549627  1
  O  O76  1  0.57527206  0.35723781  0.74549627  1
  O  O77  1  0.41677524  0.34951254  0.74933150  1
  O  O78  1  0.41677524  0.65048746  0.24933150  1
  O  O79  1  0.57527206  0.64276219  0.24549627  1
