# generated using pymatgen
data_Na6Y4Ga4Si3(S3O16)3
_symmetry_space_group_name_H-M   'P 1'
_cell_length_a   17.87131886
_cell_length_b   8.93623634
_cell_length_c   23.26702909
_cell_angle_alpha   90.34734929
_cell_angle_beta   89.19175101
_cell_angle_gamma   119.91049972
_symmetry_Int_Tables_number   1
_chemical_formula_structural   Na6Y4Ga4Si3(S3O16)3
_chemical_formula_sum   'Na18 Y12 Ga12 Si9 S27 O144'
_cell_volume   3220.55186150
_cell_formula_units_Z   3
loop_
 _symmetry_equiv_pos_site_id
 _symmetry_equiv_pos_as_xyz
  1  'x, y, z'
loop_
 _atom_site_type_symbol
 _atom_site_label
 _atom_site_symmetry_multiplicity
 _atom_site_fract_x
 _atom_site_fract_y
 _atom_site_fract_z
 _atom_site_occupancy
  Na  Na0  1  0.00405321  0.63881945  0.25424971  1
  Na  Na1  1  0.50187483  0.36897349  0.74279425  1
  Na  Na2  1  0.16171363  0.30542923  0.91223552  1
  Na  Na3  1  0.66184220  0.30108229  0.91062253  1
  Na  Na4  1  0.16459387  0.02702565  0.41728253  1
  Na  Na5  1  0.66068747  0.01407511  0.41748718  1
  Na  Na6  1  0.99484928  0.98842309  0.49559013  1
  Na  Na7  1  0.49159360  0.00243962  0.49897629  1
  Na  Na8  1  0.99331765  0.99897489  0.99134114  1
  Na  Na9  1  0.49425358  0.00007691  0.99217877  1
  Na  Na10  1  0.33366757  0.33397779  0.82806876  1
  Na  Na11  1  0.83820741  0.33527478  0.83491539  1
  Na  Na12  1  0.33963163  0.34419203  0.33941660  1
  Na  Na13  1  0.83216832  0.33064031  0.33430599  1
  Na  Na14  1  0.17330255  0.67974700  0.17523730  1
  Na  Na15  1  0.66576757  0.68309153  0.17332127  1
  Na  Na16  1  0.16947346  0.65265355  0.67090525  1
  Na  Na17  1  0.66226644  0.65029941  0.66715071  1
  Y  Y18  1  0.00144173  0.00861019  0.64774555  1
  Y  Y19  1  0.50715904  0.01734184  0.64687253  1
  Y  Y20  1  0.00809831  0.00303542  0.14976786  1
  Y  Y21  1  0.50126700  0.99317250  0.14851865  1
  Y  Y22  1  0.82918071  0.33426613  0.69180664  1
  Y  Y23  1  0.32966903  0.32602735  0.19280957  1
  Y  Y24  1  0.15909266  0.65358441  0.01432921  1
  Y  Y25  1  0.66480306  0.65757264  0.01415151  1
  Y  Y26  1  0.16645173  0.67313532  0.51477394  1
  Y  Y27  1  0.64987092  0.64928814  0.51921670  1
  Y  Y28  1  0.66040132  0.66998869  0.31778106  1
  Y  Y29  1  0.16017232  0.64926055  0.81621174  1
  Ga  Ga30  1  0.00350692  0.99000908  0.35284357  1
  Ga  Ga31  1  0.50742157  0.98524498  0.34681754  1
  Ga  Ga32  1  0.00883517  0.03644983  0.84262987  1
  Ga  Ga33  1  0.50176033  0.01987610  0.84659823  1
  Ga  Ga34  1  0.32563773  0.33050781  0.68057077  1
  Ga  Ga35  1  0.82181810  0.31362684  0.18666995  1
  Ga  Ga36  1  0.34448310  0.33459411  0.97881321  1
  Ga  Ga37  1  0.83958633  0.33247716  0.98222053  1
  Ga  Ga38  1  0.35656425  0.36583508  0.48747447  1
  Ga  Ga39  1  0.84438323  0.35258310  0.47998503  1
  Ga  Ga40  1  0.16110327  0.67747584  0.32149681  1
  Ga  Ga41  1  0.65598377  0.64599340  0.81742481  1
  Si  Si42  1  0.14593393  0.98938473  0.25696149  1
  Si  Si43  1  0.65203356  0.00842713  0.24949358  1
  Si  Si44  1  0.15659468  0.29601636  0.74795896  1
  Si  Si45  1  0.64729220  0.30348614  0.75746679  1
  Si  Si46  1  0.47048468  0.32910255  0.58883064  1
  Si  Si47  1  0.00780692  0.34941004  0.91700937  1
  Si  Si48  1  0.51452775  0.36094718  0.91413695  1
  Si  Si49  1  0.01419787  0.66534959  0.41463538  1
  Si  Si50  1  0.50804733  0.66846112  0.41598919  1
  S  S51  1  0.34891638  0.71211485  0.25577059  1
  S  S52  1  0.85451341  0.70126031  0.24930808  1
  S  S53  1  0.00024562  0.29573599  0.25261352  1
  S  S54  1  0.50099298  0.28514439  0.25351734  1
  S  S55  1  0.00037648  0.71792887  0.75379449  1
  S  S56  1  0.50215793  0.71286885  0.75560283  1
  S  S57  1  0.35448871  0.00342886  0.75233443  1
  S  S58  1  0.84872233  0.98646250  0.75610307  1
  S  S59  1  0.97583204  0.33116178  0.57971677  1
  S  S60  1  0.19278245  0.05270267  0.58012159  1
  S  S61  1  0.69479807  0.05227067  0.57767804  1
  S  S62  1  0.33157241  0.61538364  0.58377842  1
  S  S63  1  0.83410955  0.62239325  0.57919010  1
  S  S64  1  0.47527967  0.61968280  0.07979650  1
  S  S65  1  0.96962951  0.60823475  0.08537706  1
  S  S66  1  0.33312140  0.04499013  0.07932098  1
  S  S67  1  0.83327468  0.05285586  0.08387500  1
  S  S68  1  0.19243236  0.33529140  0.07862091  1
  S  S69  1  0.69652552  0.33545893  0.08131513  1
  S  S70  1  0.32182807  0.66750461  0.91784389  1
  S  S71  1  0.81786227  0.66790288  0.91428828  1
  S  S72  1  0.16791679  0.97577764  0.91813113  1
  S  S73  1  0.66565506  0.96207248  0.91450490  1
  S  S74  1  0.31757295  0.96505915  0.41189703  1
  S  S75  1  0.82192653  0.97369308  0.41766104  1
  S  S76  1  0.16361954  0.36956084  0.41187162  1
  S  S77  1  0.66790190  0.35935232  0.41666518  1
  O  O78  1  0.09770188  0.02073695  0.31177770  1
  O  O79  1  0.60880014  0.03569848  0.30877663  1
  O  O80  1  0.40557049  0.80223903  0.30453099  1
  O  O81  1  0.90833590  0.78400070  0.30058152  1
  O  O82  1  0.49015861  0.17678339  0.30385223  1
  O  O83  1  0.98339387  0.18349426  0.30269341  1
  O  O84  1  0.11443865  0.18592700  0.80921250  1
  O  O85  1  0.60308545  0.18306473  0.81423235  1
  O  O86  1  0.48861479  0.79949554  0.80641989  1
  O  O87  1  0.98972654  0.80633202  0.80477830  1
  O  O88  1  0.40778972  0.02269469  0.80412200  1
  O  O89  1  0.90560647  0.01139628  0.80556365  1
  O  O90  1  0.39204194  0.97259652  0.70013284  1
  O  O91  1  0.88417363  0.95748078  0.70200406  1
  O  O92  1  0.09227232  0.20283002  0.69508274  1
  O  O93  1  0.58779037  0.22279509  0.70121750  1
  O  O94  1  0.00494967  0.80637843  0.69957786  1
  O  O95  1  0.51336786  0.80850572  0.70200798  1
  O  O96  1  0.38380618  0.80942462  0.20115305  1
  O  O97  1  0.89208278  0.80827794  0.19718246  1
  O  O98  1  0.01184476  0.21803394  0.19898445  1
  O  O99  1  0.50570475  0.20514228  0.19875035  1
  O  O100  1  0.08749876  0.94835416  0.19911024  1
  O  O101  1  0.59372978  0.98056713  0.19354441  1
  O  O102  1  0.42341463  0.34863774  0.64846467  1
  O  O103  1  0.93655183  0.34779576  0.63338015  1
  O  O104  1  0.24098582  0.13679120  0.63248971  1
  O  O105  1  0.74173115  0.13688412  0.63049369  1
  O  O106  1  0.31910928  0.51220754  0.63611908  1
  O  O107  1  0.82586650  0.52559230  0.63228811  1
  O  O108  1  0.43572940  0.52532340  0.13319505  1
  O  O109  1  0.92854310  0.50883070  0.13887711  1
  O  O110  1  0.32493050  0.12586212  0.13261434  1
  O  O111  1  0.82489790  0.13769246  0.13696668  1
  O  O112  1  0.23972200  0.34731409  0.13124019  1
  O  O113  1  0.74740185  0.35245847  0.13296091  1
  O  O114  1  0.23641802  0.32135403  0.02592358  1
  O  O115  1  0.73797851  0.31766125  0.02707670  1
  O  O116  1  0.42346315  0.52950525  0.02867337  1
  O  O117  1  0.91984090  0.52435388  0.03300733  1
  O  O118  1  0.34073875  0.15011850  0.02796617  1
  O  O119  1  0.84140256  0.15365452  0.03135090  1
  O  O120  1  0.23274278  0.15084640  0.52637931  1
  O  O121  1  0.73849373  0.15672385  0.52513616  1
  O  O122  1  0.33687303  0.53014347  0.52992026  1
  O  O123  1  0.84259753  0.53233409  0.52756765  1
  O  O124  1  0.41689121  0.30413734  0.53018643  1
  O  O125  1  0.92390525  0.31671256  0.52871390  1
  O  O126  1  0.28327123  0.70258870  0.96953199  1
  O  O127  1  0.78324386  0.70448448  0.96795518  1
  O  O128  1  0.07340628  0.42858438  0.97165848  1
  O  O129  1  0.57891416  0.43947129  0.96908650  1
  O  O130  1  0.15626931  0.86960667  0.96985744  1
  O  O131  1  0.65547034  0.86206463  0.96751733  1
  O  O132  1  0.28252860  0.85953821  0.46489240  1
  O  O133  1  0.78447373  0.86395142  0.46861023  1
  O  O134  1  0.15216555  0.44676473  0.46530225  1
  O  O135  1  0.65666788  0.44240370  0.46829413  1
  O  O136  1  0.08011026  0.71553573  0.46801394  1
  O  O137  1  0.57413290  0.71868990  0.46948527  1
  O  O138  1  0.05723527  0.63050971  0.35665500  1
  O  O139  1  0.54956585  0.62934948  0.35990681  1
  O  O140  1  0.25739190  0.87409278  0.36310859  1
  O  O141  1  0.76625386  0.89589587  0.36680658  1
  O  O142  1  0.17824917  0.48325804  0.36157204  1
  O  O143  1  0.68621754  0.46817150  0.36557250  1
  O  O144  1  0.05103042  0.47268374  0.86218906  1
  O  O145  1  0.55938118  0.48725582  0.85853360  1
  O  O146  1  0.18600007  0.90187552  0.86720427  1
  O  O147  1  0.68231460  0.88168023  0.86391055  1
  O  O148  1  0.26487347  0.63275342  0.86801246  1
  O  O149  1  0.75810541  0.63421934  0.86598413  1
  O  O150  1  0.00522276  0.84139726  0.40843518  1
  O  O151  1  0.50364543  0.84831881  0.40757295  1
  O  O152  1  0.40461433  0.99298548  0.40147220  1
  O  O153  1  0.91006894  0.00078470  0.40665094  1
  O  O154  1  0.08292559  0.19583028  0.40692148  1
  O  O155  1  0.58815280  0.18799988  0.41051297  1
  O  O156  1  0.00346250  0.16061184  0.90669362  1
  O  O157  1  0.50414078  0.16606725  0.90689792  1
  O  O158  1  0.08882760  0.98936824  0.91256757  1
  O  O159  1  0.58682883  0.97724714  0.90959551  1
  O  O160  1  0.40880345  0.81549021  0.90834877  1
  O  O161  1  0.90524766  0.81199492  0.90465241  1
  O  O162  1  0.48116034  0.15848526  0.58697339  1
  O  O163  1  0.98191142  0.17127079  0.58013314  1
  O  O164  1  0.10381014  0.02747911  0.58373866  1
  O  O165  1  0.60699975  0.02961103  0.57979931  1
  O  O166  1  0.41122132  0.78403127  0.58691010  1
  O  O167  1  0.91352650  0.79412553  0.58090622  1
  O  O168  1  0.48171458  0.79194975  0.08028815  1
  O  O169  1  0.97773649  0.78184010  0.08704451  1
  O  O170  1  0.41191698  0.02938547  0.08053611  1
  O  O171  1  0.91170370  0.03671605  0.08665344  1
  O  O172  1  0.10475909  0.17903865  0.08067091  1
  O  O173  1  0.60936268  0.18144471  0.08423688  1
  O  O174  1  0.35313383  0.16757914  0.74918113  1
  O  O175  1  0.84451756  0.14811793  0.75135005  1
  O  O176  1  0.25155489  0.30753523  0.73946742  1
  O  O177  1  0.74220316  0.32244335  0.75383084  1
  O  O178  1  0.42717422  0.53505216  0.75225755  1
  O  O179  1  0.92484393  0.54027799  0.75238695  1
  O  O180  1  0.34419773  0.54161115  0.25069087  1
  O  O181  1  0.85495653  0.53364573  0.24205309  1
  O  O182  1  0.42516446  0.31142040  0.25167512  1
  O  O183  1  0.92498493  0.32576648  0.24538222  1
  O  O184  1  0.24006439  0.16001076  0.25243962  1
  O  O185  1  0.74769688  0.18950941  0.24390728  1
  O  O186  1  0.32322667  0.50213398  0.92643654  1
  O  O187  1  0.81767460  0.49926209  0.92288941  1
  O  O188  1  0.41970869  0.34604570  0.92323207  1
  O  O189  1  0.91364359  0.33552985  0.92796667  1
  O  O190  1  0.24289684  0.15633623  0.92629202  1
  O  O191  1  0.74092129  0.14246606  0.92143118  1
  O  O192  1  0.31706356  0.13070359  0.41856462  1
  O  O193  1  0.82503016  0.14431847  0.42556228  1
  O  O194  1  0.23727814  0.33869904  0.41697278  1
  O  O195  1  0.74259302  0.32723150  0.42423907  1
  O  O196  1  0.41191114  0.49694691  0.42517254  1
  O  O197  1  0.91929687  0.49136827  0.42356427  1
  O  O198  1  0.18401712  0.49250954  0.07743810  1
  O  O199  1  0.68968668  0.49399726  0.07931390  1
  O  O200  1  0.05735899  0.62855006  0.08144766  1
  O  O201  1  0.56303656  0.64138651  0.07604521  1
  O  O202  1  0.25529089  0.87156737  0.07581456  1
  O  O203  1  0.75508546  0.88008167  0.08073900  1
  O  O204  1  0.18592617  0.87930883  0.57917328  1
  O  O205  1  0.69030525  0.88307802  0.57557749  1
  O  O206  1  0.25457809  0.63716357  0.58007351  1
  O  O207  1  0.75749154  0.64217115  0.57525017  1
  O  O208  1  0.06336112  0.48448559  0.57573481  1
  O  O209  1  0.56600423  0.50396453  0.58727322  1
  O  O210  1  0.15395281  0.81273674  0.26204523  1
  O  O211  1  0.66666229  0.84314084  0.25283993  1
  O  O212  1  0.26110015  0.68661904  0.26414559  1
  O  O213  1  0.76623644  0.66866158  0.25619550  1
  O  O214  1  0.07953845  0.46862463  0.25804460  1
  O  O215  1  0.58079029  0.45513960  0.25545216  1
  O  O216  1  0.16846128  0.48829284  0.75300669  1
  O  O217  1  0.65411832  0.49585454  0.76133126  1
  O  O218  1  0.08011257  0.70678860  0.75607588  1
  O  O219  1  0.58265479  0.69855678  0.76110754  1
  O  O220  1  0.26674043  0.85694414  0.75917330  1
  O  O221  1  0.76174045  0.83691438  0.76548087  1
