# generated using pymatgen
data_Na2Ta8Si9(SO16)3
_symmetry_space_group_name_H-M   'P 1'
_cell_length_a   17.76078652
_cell_length_b   8.86734413
_cell_length_c   22.92819612
_cell_angle_alpha   89.97433140
_cell_angle_beta   89.93111043
_cell_angle_gamma   119.88074723
_symmetry_Int_Tables_number   1
_chemical_formula_structural   Na2Ta8Si9(SO16)3
_chemical_formula_sum   'Na6 Ta24 Si27 S9 O144'
_cell_volume   3130.95100532
_cell_formula_units_Z   3
loop_
 _symmetry_equiv_pos_site_id
 _symmetry_equiv_pos_as_xyz
  1  'x, y, z'
loop_
 _atom_site_type_symbol
 _atom_site_label
 _atom_site_symmetry_multiplicity
 _atom_site_fract_x
 _atom_site_fract_y
 _atom_site_fract_z
 _atom_site_occupancy
  Na  Na0  1  0.00026245  0.00028241  0.50039450  1
  Na  Na1  1  0.50340520  0.00220270  0.99717207  1
  Na  Na2  1  0.33613569  0.33902440  0.83051198  1
  Na  Na3  1  0.83119806  0.32460995  0.83278288  1
  Na  Na4  1  0.33178032  0.33682270  0.33841748  1
  Na  Na5  1  0.83580691  0.33079691  0.33617848  1
  Ta  Ta6  1  0.00581703  0.01650424  0.35939841  1
  Ta  Ta7  1  0.49521259  0.99636941  0.35946898  1
  Ta  Ta8  1  0.99519774  0.99459750  0.85736781  1
  Ta  Ta9  1  0.50613755  0.99656539  0.85803626  1
  Ta  Ta10  1  0.99448714  0.98426869  0.64109966  1
  Ta  Ta11  1  0.50540795  0.00507269  0.64198390  1
  Ta  Ta12  1  0.00280598  0.00219223  0.14340085  1
  Ta  Ta13  1  0.50066398  0.00407988  0.14527060  1
  Ta  Ta14  1  0.33623899  0.34048061  0.68249677  1
  Ta  Ta15  1  0.83792439  0.34675382  0.69251103  1
  Ta  Ta16  1  0.33826997  0.34114944  0.19483578  1
  Ta  Ta17  1  0.83711121  0.33343293  0.18264734  1
  Ta  Ta18  1  0.33790498  0.34596353  0.97274467  1
  Ta  Ta19  1  0.83383590  0.32562327  0.98079683  1
  Ta  Ta20  1  0.33451258  0.34383596  0.48159925  1
  Ta  Ta21  1  0.84066204  0.34190262  0.47494061  1
  Ta  Ta22  1  0.16101498  0.66208395  0.01793225  1
  Ta  Ta23  1  0.65935023  0.66247911  0.02716414  1
  Ta  Ta24  1  0.15851615  0.65620960  0.52783701  1
  Ta  Ta25  1  0.66566471  0.65804916  0.52095678  1
  Ta  Ta26  1  0.15992462  0.64986434  0.30541310  1
  Ta  Ta27  1  0.66412259  0.65893866  0.31563371  1
  Ta  Ta28  1  0.16420100  0.66863987  0.81356185  1
  Ta  Ta29  1  0.66082009  0.67101250  0.80449525  1
  Si  Si30  1  0.14175193  0.99854026  0.25051039  1
  Si  Si31  1  0.35778726  0.72141396  0.25089703  1
  Si  Si32  1  0.99350389  0.27713869  0.24984748  1
  Si  Si33  1  0.50428768  0.28885745  0.25101883  1
  Si  Si34  1  0.64278054  0.28507464  0.75031016  1
  Si  Si35  1  0.00357864  0.72041325  0.75019426  1
  Si  Si36  1  0.49320139  0.70947005  0.74953468  1
  Si  Si37  1  0.85777030  0.00036724  0.74959475  1
  Si  Si38  1  0.47808459  0.33423089  0.58143343  1
  Si  Si39  1  0.97214230  0.32525557  0.58453461  1
  Si  Si40  1  0.19076875  0.04867053  0.58340249  1
  Si  Si41  1  0.33417773  0.62833758  0.58311830  1
  Si  Si42  1  0.82950980  0.61217533  0.58286937  1
  Si  Si43  1  0.47222875  0.61894608  0.08412853  1
  Si  Si44  1  0.97869756  0.62303416  0.08146418  1
  Si  Si45  1  0.83404450  0.04100108  0.08286292  1
  Si  Si46  1  0.69071980  0.33390857  0.08333133  1
  Si  Si47  1  0.30929299  0.67366252  0.91626110  1
  Si  Si48  1  0.02049331  0.37740536  0.91567047  1
  Si  Si49  1  0.52830823  0.38327977  0.91576347  1
  Si  Si50  1  0.16607538  0.95507825  0.91652076  1
  Si  Si51  1  0.67089614  0.95178010  0.91674306  1
  Si  Si52  1  0.80842998  0.95088619  0.41641544  1
  Si  Si53  1  0.17127133  0.39048007  0.41717126  1
  Si  Si54  1  0.66709974  0.37636307  0.41732632  1
  Si  Si55  1  0.02789300  0.67255766  0.41575557  1
  Si  Si56  1  0.52221031  0.66357317  0.41821412  1
  S  S57  1  0.64355353  0.00187342  0.25070213  1
  S  S58  1  0.85650838  0.71333012  0.25011652  1
  S  S59  1  0.14348135  0.28582759  0.75068449  1
  S  S60  1  0.35662796  0.99949651  0.75043604  1
  S  S61  1  0.69241605  0.04854785  0.58324249  1
  S  S62  1  0.33208117  0.04616428  0.08341620  1
  S  S63  1  0.19204449  0.33468450  0.08341549  1
  S  S64  1  0.80809004  0.66411217  0.91653440  1
  S  S65  1  0.30757711  0.95224887  0.41614251  1
  O  O66  1  0.09599058  0.03321114  0.30658031  1
  O  O67  1  0.60271797  0.02935748  0.30260993  1
  O  O68  1  0.42028050  0.80689588  0.30686406  1
  O  O69  1  0.91051581  0.79000806  0.30223923  1
  O  O70  1  0.48677052  0.16234391  0.30636540  1
  O  O71  1  0.98043583  0.15902198  0.30714479  1
  O  O72  1  0.10290761  0.17774961  0.80384119  1
  O  O73  1  0.59410722  0.15947685  0.80693506  1
  O  O74  1  0.48028824  0.80123106  0.80770854  1
  O  O75  1  0.98829019  0.81255290  0.80709370  1
  O  O76  1  0.41010175  0.02893488  0.80310572  1
  O  O77  1  0.91956849  0.03285043  0.80720360  1
  O  O78  1  0.39626932  0.97528399  0.69723605  1
  O  O79  1  0.90705447  0.97631166  0.69334147  1
  O  O80  1  0.09198510  0.21006629  0.69805574  1
  O  O81  1  0.58239783  0.19297020  0.69326554  1
  O  O82  1  0.01698131  0.83729334  0.69286822  1
  O  O83  1  0.50783823  0.83201384  0.69336204  1
  O  O84  1  0.40678845  0.83692741  0.19286814  1
  O  O85  1  0.89717875  0.81814332  0.19657942  1
  O  O86  1  0.00839722  0.18479420  0.19305008  1
  O  O87  1  0.51505772  0.19461885  0.19252727  1
  O  O88  1  0.08232844  0.97139465  0.19280049  1
  O  O89  1  0.58996916  0.97654744  0.19688120  1
  O  O90  1  0.43071914  0.36409385  0.63955655  1
  O  O91  1  0.92547414  0.35425863  0.64084472  1
  O  O92  1  0.25009552  0.13961088  0.64187284  1
  O  O93  1  0.74386584  0.12719445  0.63627093  1
  O  O94  1  0.31771536  0.49954181  0.63991339  1
  O  O95  1  0.81781102  0.49634420  0.64093801  1
  O  O96  1  0.42415398  0.49319155  0.13971873  1
  O  O97  1  0.93187943  0.49819113  0.13931217  1
  O  O98  1  0.31980548  0.12619838  0.13638874  1
  O  O99  1  0.81808059  0.13699949  0.13973978  1
  O  O100  1  0.24504099  0.35784278  0.13569549  1
  O  O101  1  0.74886035  0.35803615  0.14181776  1
  O  O102  1  0.23048534  0.30218835  0.03078446  1
  O  O103  1  0.73620022  0.29991148  0.02673604  1
  O  O104  1  0.41137339  0.52258252  0.02730388  1
  O  O105  1  0.91671297  0.52922110  0.02566094  1
  O  O106  1  0.34629603  0.15535177  0.03102744  1
  O  O107  1  0.85159674  0.16925603  0.02671936  1
  O  O108  1  0.23694955  0.17330102  0.52655197  1
  O  O109  1  0.72971346  0.15663849  0.53071875  1
  O  O110  1  0.35199795  0.53564809  0.52681477  1
  O  O111  1  0.84474663  0.51877548  0.52614766  1
  O  O112  1  0.41507191  0.30049588  0.52557029  1
  O  O113  1  0.91337148  0.29573145  0.52624058  1
  O  O114  1  0.26362834  0.69419342  0.97528650  1
  O  O115  1  0.77134048  0.69453984  0.96939833  1
  O  O116  1  0.08266113  0.46979621  0.97318629  1
  O  O117  1  0.58490783  0.46975420  0.97429463  1
  O  O118  1  0.15156100  0.83152501  0.97363535  1
  O  O119  1  0.65576018  0.83203976  0.97410860  1
  O  O120  1  0.27139845  0.84887421  0.46916323  1
  O  O121  1  0.76273918  0.83187534  0.47343026  1
  O  O122  1  0.15638516  0.48102315  0.47394223  1
  O  O123  1  0.64992230  0.46689165  0.47325246  1
  O  O124  1  0.08521370  0.70082991  0.47381796  1
  O  O125  1  0.58359291  0.69770974  0.47396788  1
  O  O126  1  0.07235488  0.64035413  0.35888190  1
  O  O127  1  0.56975140  0.63659363  0.35956686  1
  O  O128  1  0.25685647  0.87481021  0.36330082  1
  O  O129  1  0.74956989  0.86167968  0.35744299  1
  O  O130  1  0.18322552  0.50403764  0.35853011  1
  O  O131  1  0.68353744  0.50233750  0.35966623  1
  O  O132  1  0.07032776  0.50387620  0.85960632  1
  O  O133  1  0.57034357  0.50458793  0.85926010  1
  O  O134  1  0.18495129  0.86496575  0.86009741  1
  O  O135  1  0.68301314  0.86165922  0.85891087  1
  O  O136  1  0.24967127  0.63797595  0.85872652  1
  O  O137  1  0.75643911  0.63730756  0.86375517  1
  O  O138  1  0.01137222  0.83663331  0.40657464  1
  O  O139  1  0.51234911  0.83392150  0.40424368  1
  O  O140  1  0.39750554  0.97187441  0.40889734  1
  O  O141  1  0.90436720  0.97059553  0.40694565  1
  O  O142  1  0.08287104  0.19531030  0.41059446  1
  O  O143  1  0.58191614  0.18936068  0.40337219  1
  O  O144  1  0.01328239  0.19054566  0.90517863  1
  O  O145  1  0.51034328  0.18539677  0.90750083  1
  O  O146  1  0.08247287  0.97557425  0.90429499  1
  O  O147  1  0.58287133  0.97147412  0.91047738  1
  O  O148  1  0.40527695  0.84056288  0.90913315  1
  O  O149  1  0.89750974  0.82286178  0.90889221  1
  O  O150  1  0.48675038  0.16389573  0.59526849  1
  O  O151  1  0.98790057  0.16100233  0.59250158  1
  O  O152  1  0.09576865  0.03100273  0.59275645  1
  O  O153  1  0.60328930  0.02998120  0.59090590  1
  O  O154  1  0.41940434  0.81362838  0.59611713  1
  O  O155  1  0.91813380  0.80486469  0.58936818  1
  O  O156  1  0.48468775  0.81312608  0.09200571  1
  O  O157  1  0.98809657  0.81103486  0.09498527  1
  O  O158  1  0.41284736  0.03072086  0.08962344  1
  O  O159  1  0.91933762  0.02523561  0.09586752  1
  O  O160  1  0.10368312  0.17879639  0.09085857  1
  O  O161  1  0.59370567  0.16108705  0.09258043  1
  O  O162  1  0.34463353  0.15494043  0.74430283  1
  O  O163  1  0.84489259  0.16885182  0.74109439  1
  O  O164  1  0.23169867  0.30366515  0.74582426  1
  O  O165  1  0.73736052  0.29994976  0.74181494  1
  O  O166  1  0.40870143  0.51210340  0.74406920  1
  O  O167  1  0.91669280  0.52685273  0.74450704  1
  O  O168  1  0.34568032  0.52441756  0.24114686  1
  O  O169  1  0.84509505  0.53453725  0.24280349  1
  O  O170  1  0.41601412  0.30569966  0.24175872  1
  O  O171  1  0.90870133  0.30510355  0.24333519  1
  O  O172  1  0.23765164  0.17069917  0.23727949  1
  O  O173  1  0.73040195  0.15969468  0.24382295  1
  O  O174  1  0.31841128  0.49669136  0.92483192  1
  O  O175  1  0.82131497  0.51131492  0.92286498  1
  O  O176  1  0.42913298  0.35998619  0.92639229  1
  O  O177  1  0.92678547  0.36397911  0.92321735  1
  O  O178  1  0.25159848  0.14439626  0.92924679  1
  O  O179  1  0.75304097  0.15017211  0.92405030  1
  O  O180  1  0.32096152  0.13125276  0.42166685  1
  O  O181  1  0.81825605  0.14292010  0.42443415  1
  O  O182  1  0.25329148  0.35572109  0.42327618  1
  O  O183  1  0.75150506  0.35415369  0.42519721  1
  O  O184  1  0.42679968  0.48977897  0.42310997  1
  O  O185  1  0.93056044  0.49749011  0.42288915  1
  O  O186  1  0.18272109  0.49010495  0.07582693  1
  O  O187  1  0.68173677  0.50335524  0.07193919  1
  O  O188  1  0.07424126  0.64134933  0.07321893  1
  O  O189  1  0.56714347  0.63758896  0.07579236  1
  O  O190  1  0.25659907  0.87113399  0.07590971  1
  O  O191  1  0.75016433  0.85435014  0.07114095  1
  O  O192  1  0.18276806  0.86177225  0.57164834  1
  O  O193  1  0.68037415  0.87312084  0.57585635  1
  O  O194  1  0.25004996  0.64599896  0.57109845  1
  O  O195  1  0.74814217  0.64271224  0.57299282  1
  O  O196  1  0.06702723  0.49955912  0.57588813  1
  O  O197  1  0.57109031  0.50646227  0.57279899  1
  O  O198  1  0.15639600  0.83613043  0.26255973  1
  O  O199  1  0.65242084  0.84596146  0.25664659  1
  O  O200  1  0.26383447  0.70027081  0.26060056  1
  O  O201  1  0.76969954  0.69696181  0.25666796  1
  O  O202  1  0.08004394  0.46813348  0.25695743  1
  O  O203  1  0.58729437  0.48168009  0.25935113  1
  O  O204  1  0.15444209  0.46250113  0.75939064  1
  O  O205  1  0.65518602  0.47547656  0.76321876  1
  O  O206  1  0.08759875  0.69476111  0.76042467  1
  O  O207  1  0.58035083  0.69297833  0.75712143  1
  O  O208  1  0.26946433  0.84186671  0.75788368  1
  O  O209  1  0.76444813  0.82840540  0.76178166  1
