# generated using pymatgen
data_Na6Hf4Mg4Si3(S3O16)3
_symmetry_space_group_name_H-M   'P 1'
_cell_length_a   17.78927538
_cell_length_b   8.83950794
_cell_length_c   22.96776232
_cell_angle_alpha   90.02010629
_cell_angle_beta   90.25722826
_cell_angle_gamma   119.87027439
_symmetry_Int_Tables_number   1
_chemical_formula_structural   Na6Hf4Mg4Si3(S3O16)3
_chemical_formula_sum   'Na18 Hf12 Mg12 Si9 S27 O144'
_cell_volume   3131.81127668
_cell_formula_units_Z   3
loop_
 _symmetry_equiv_pos_site_id
 _symmetry_equiv_pos_as_xyz
  1  'x, y, z'
loop_
 _atom_site_type_symbol
 _atom_site_label
 _atom_site_symmetry_multiplicity
 _atom_site_fract_x
 _atom_site_fract_y
 _atom_site_fract_z
 _atom_site_occupancy
  Na  Na0  1  0.99912160  0.63405656  0.25242853  1
  Na  Na1  1  0.49768289  0.62370561  0.24144906  1
  Na  Na2  1  0.00359145  0.36829154  0.74132855  1
  Na  Na3  1  0.49953332  0.36773344  0.75200545  1
  Na  Na4  1  0.67364313  0.32155290  0.90911389  1
  Na  Na5  1  0.17158750  0.02959899  0.41411671  1
  Na  Na6  1  0.99117661  0.01337244  0.50201244  1
  Na  Na7  1  0.50640115  0.01486399  0.49969785  1
  Na  Na8  1  0.00381133  0.99318610  0.99174879  1
  Na  Na9  1  0.49118679  0.96806108  0.99489627  1
  Na  Na10  1  0.30524690  0.30065814  0.82973056  1
  Na  Na11  1  0.83648320  0.35944838  0.83621012  1
  Na  Na12  1  0.33131253  0.30972471  0.33935428  1
  Na  Na13  1  0.81840629  0.32893091  0.33827929  1
  Na  Na14  1  0.17669992  0.65080948  0.16461379  1
  Na  Na15  1  0.66439408  0.66157617  0.16414080  1
  Na  Na16  1  0.16312103  0.64974915  0.67365452  1
  Na  Na17  1  0.67967422  0.70649105  0.66763615  1
  Hf  Hf18  1  0.50029081  0.01314470  0.36008132  1
  Hf  Hf19  1  0.00723185  0.99567088  0.85669343  1
  Hf  Hf20  1  0.00349116  0.01931450  0.64806188  1
  Hf  Hf21  1  0.50350513  0.99582845  0.64667716  1
  Hf  Hf22  1  0.00364562  0.01053208  0.14549759  1
  Hf  Hf23  1  0.49895298  0.99196739  0.14420913  1
  Hf  Hf24  1  0.32629310  0.33594415  0.98283563  1
  Hf  Hf25  1  0.82591148  0.31773483  0.48507404  1
  Hf  Hf26  1  0.16522542  0.66400490  0.01636966  1
  Hf  Hf27  1  0.66836245  0.67241594  0.01658656  1
  Hf  Hf28  1  0.16874408  0.66443961  0.51902569  1
  Hf  Hf29  1  0.66521483  0.66114127  0.51870734  1
  Mg  Mg30  1  0.99597210  0.00041479  0.35063024  1
  Mg  Mg31  1  0.49624331  0.99097902  0.84952512  1
  Mg  Mg32  1  0.32193666  0.32741886  0.68779560  1
  Mg  Mg33  1  0.83493025  0.32275008  0.67906412  1
  Mg  Mg34  1  0.33268412  0.34351523  0.17802554  1
  Mg  Mg35  1  0.83018752  0.32953075  0.18338678  1
  Mg  Mg36  1  0.83869681  0.34275456  0.98030245  1
  Mg  Mg37  1  0.33755945  0.33341462  0.48234380  1
  Mg  Mg38  1  0.17346762  0.67374035  0.31835365  1
  Mg  Mg39  1  0.67334885  0.66311816  0.31732318  1
  Mg  Mg40  1  0.17158036  0.67597591  0.81289064  1
  Mg  Mg41  1  0.67655005  0.67753932  0.81697194  1
  Si  Si42  1  0.15179286  0.30690166  0.75323318  1
  Si  Si43  1  0.98103221  0.33781613  0.58591666  1
  Si  Si44  1  0.68588633  0.03452008  0.58724449  1
  Si  Si45  1  0.48236891  0.61876859  0.08734998  1
  Si  Si46  1  0.18706571  0.34033607  0.08723152  1
  Si  Si47  1  0.81331279  0.66107848  0.91538536  1
  Si  Si48  1  0.17325226  0.96043142  0.91399747  1
  Si  Si49  1  0.31034168  0.96579051  0.41572760  1
  Si  Si50  1  0.67386419  0.38149201  0.41381813  1
  S  S51  1  0.14692453  0.99967541  0.25218057  1
  S  S52  1  0.64756116  0.00093006  0.25048702  1
  S  S53  1  0.35370608  0.70732252  0.25126839  1
  S  S54  1  0.85333471  0.70744450  0.24907690  1
  S  S55  1  0.99881531  0.29529074  0.25141286  1
  S  S56  1  0.49899723  0.29397210  0.24997702  1
  S  S57  1  0.64687257  0.29436077  0.75239002  1
  S  S58  1  0.99555067  0.70226534  0.74879978  1
  S  S59  1  0.50195913  0.70519943  0.75156798  1
  S  S60  1  0.35638675  0.00230062  0.74910259  1
  S  S61  1  0.85209823  0.99901242  0.75135694  1
  S  S62  1  0.47711381  0.33368615  0.58652338  1
  S  S63  1  0.18794163  0.04262900  0.58206535  1
  S  S64  1  0.33424795  0.61929385  0.58310111  1
  S  S65  1  0.83330209  0.62386134  0.58461897  1
  S  S66  1  0.97793662  0.62116631  0.08673172  1
  S  S67  1  0.33276914  0.04283687  0.08490422  1
  S  S68  1  0.83287289  0.04726362  0.08431102  1
  S  S69  1  0.68869781  0.33373391  0.08379343  1
  S  S70  1  0.31529768  0.67335189  0.91452407  1
  S  S71  1  0.01798205  0.37347959  0.91439425  1
  S  S72  1  0.51949733  0.37187127  0.91341438  1
  S  S73  1  0.66461768  0.96094236  0.91490583  1
  S  S74  1  0.81402446  0.95712724  0.41419353  1
  S  S75  1  0.16485968  0.36964163  0.41456539  1
  S  S76  1  0.01997408  0.66746003  0.41279153  1
  S  S77  1  0.52001338  0.66256853  0.41293295  1
  O  O78  1  0.10508559  0.01814714  0.30536835  1
  O  O79  1  0.60468951  0.02232555  0.30223409  1
  O  O80  1  0.41065798  0.80245427  0.30162326  1
  O  O81  1  0.90863398  0.78967143  0.30105479  1
  O  O82  1  0.49473804  0.18935895  0.30221436  1
  O  O83  1  0.98796569  0.18857025  0.30278916  1
  O  O84  1  0.09573771  0.17928892  0.80755539  1
  O  O85  1  0.60517653  0.19240020  0.80573611  1
  O  O86  1  0.49045304  0.78956271  0.80293212  1
  O  O87  1  0.98706347  0.79017654  0.80180666  1
  O  O88  1  0.41131345  0.02869555  0.80109216  1
  O  O89  1  0.90561034  0.01280706  0.80254883  1
  O  O90  1  0.40159049  0.98116875  0.69690911  1
  O  O91  1  0.89410176  0.97732891  0.69725107  1
  O  O92  1  0.08753570  0.20395875  0.69481708  1
  O  O93  1  0.58812059  0.19424589  0.70096868  1
  O  O94  1  0.00180609  0.80764451  0.69647736  1
  O  O95  1  0.51129579  0.81381988  0.69813486  1
  O  O96  1  0.39844741  0.81462110  0.19753095  1
  O  O97  1  0.89887978  0.81462589  0.19658393  1
  O  O98  1  0.00784707  0.20615949  0.19794512  1
  O  O99  1  0.50792809  0.20397130  0.19750443  1
  O  O100  1  0.08787251  0.98203364  0.20078578  1
  O  O101  1  0.59062724  0.97818416  0.19783983  1
  O  O102  1  0.44021867  0.35850980  0.64020262  1
  O  O103  1  0.94659266  0.36622178  0.64709277  1
  O  O104  1  0.24213013  0.12536721  0.63327359  1
  O  O105  1  0.73992501  0.11783594  0.64482264  1
  O  O106  1  0.32513069  0.51828294  0.63528266  1
  O  O107  1  0.81892158  0.51926763  0.63665163  1
  O  O108  1  0.44755007  0.52475522  0.14921034  1
  O  O109  1  0.94097591  0.52324250  0.14127375  1
  O  O110  1  0.32053762  0.11954462  0.13758219  1
  O  O111  1  0.82235326  0.12771394  0.13720107  1
  O  O112  1  0.24006897  0.36506189  0.14551441  1
  O  O113  1  0.74108002  0.35662663  0.13593908  1
  O  O114  1  0.22922213  0.30798965  0.02821670  1
  O  O115  1  0.72283291  0.29991492  0.03060506  1
  O  O116  1  0.42098741  0.52390428  0.03106941  1
  O  O117  1  0.92454593  0.53737248  0.03560619  1
  O  O118  1  0.34639315  0.14758181  0.03211582  1
  O  O119  1  0.84581371  0.15007942  0.03183751  1
  O  O120  1  0.22274186  0.14372133  0.52814999  1
  O  O121  1  0.72678642  0.14991730  0.52754740  1
  O  O122  1  0.34716177  0.54464528  0.52983553  1
  O  O123  1  0.84342436  0.54098927  0.53110354  1
  O  O124  1  0.42544715  0.31141118  0.53434635  1
  O  O125  1  0.92070221  0.31612330  0.52891617  1
  O  O126  1  0.27171586  0.68860144  0.96862957  1
  O  O127  1  0.76559815  0.68844027  0.97445012  1
  O  O128  1  0.07497573  0.46117753  0.96732212  1
  O  O129  1  0.57837430  0.46505290  0.96491599  1
  O  O130  1  0.16117841  0.84893628  0.97493907  1
  O  O131  1  0.65020188  0.84966679  0.96844871  1
  O  O132  1  0.26486368  0.84220055  0.47320342  1
  O  O133  1  0.76962516  0.85234639  0.46719278  1
  O  O134  1  0.15132682  0.45284212  0.46751726  1
  O  O135  1  0.65878416  0.46964486  0.47261570  1
  O  O136  1  0.07861848  0.69222351  0.46369296  1
  O  O137  1  0.57686072  0.69037940  0.46488985  1
  O  O138  1  0.05619924  0.64018304  0.35845663  1
  O  O139  1  0.55918458  0.64250340  0.35919960  1
  O  O140  1  0.24837771  0.88140288  0.35976495  1
  O  O141  1  0.76179652  0.88142387  0.36142409  1
  O  O142  1  0.17299247  0.47131648  0.36217547  1
  O  O143  1  0.68241252  0.48622754  0.35588867  1
  O  O144  1  0.05687226  0.47425550  0.86168810  1
  O  O145  1  0.55589563  0.47216370  0.85967499  1
  O  O146  1  0.18107358  0.86538996  0.85840049  1
  O  O147  1  0.67229847  0.87412565  0.86308028  1
  O  O148  1  0.26345028  0.64695345  0.86248650  1
  O  O149  1  0.74585696  0.61324742  0.86189732  1
  O  O150  1  0.01651229  0.83282070  0.40965573  1
  O  O151  1  0.51307046  0.82472279  0.40911069  1
  O  O152  1  0.40649934  0.97809606  0.41002648  1
  O  O153  1  0.90040011  0.97074642  0.41078474  1
  O  O154  1  0.08787931  0.18942568  0.41085723  1
  O  O155  1  0.58709852  0.18196192  0.41158354  1
  O  O156  1  0.01057147  0.19804608  0.91253876  1
  O  O157  1  0.51651428  0.20000097  0.91093784  1
  O  O158  1  0.08635801  0.98363062  0.91347975  1
  O  O159  1  0.58785825  0.98734745  0.91148551  1
  O  O160  1  0.40222167  0.83208607  0.91195278  1
  O  O161  1  0.90661647  0.84016086  0.90942539  1
  O  O162  1  0.48755705  0.17424027  0.59194816  1
  O  O163  1  0.98791682  0.15608898  0.58650145  1
  O  O164  1  0.09769670  0.01391122  0.59025918  1
  O  O165  1  0.58690535  0.01185553  0.59002095  1
  O  O166  1  0.41072404  0.80190599  0.59021302  1
  O  O167  1  0.91211874  0.79902278  0.58869869  1
  O  O168  1  0.49161232  0.81904950  0.09031506  1
  O  O169  1  0.98716472  0.80012686  0.09263243  1
  O  O170  1  0.41273041  0.02393279  0.09047012  1
  O  O171  1  0.90957423  0.01994697  0.09209735  1
  O  O172  1  0.08762865  0.16464139  0.09085203  1
  O  O173  1  0.59814257  0.18005438  0.09292673  1
  O  O174  1  0.35336086  0.16638373  0.74149328  1
  O  O175  1  0.84917133  0.16337273  0.74792522  1
  O  O176  1  0.24420816  0.31927549  0.74774549  1
  O  O177  1  0.73354652  0.31864834  0.74542863  1
  O  O178  1  0.42641818  0.52916387  0.74324934  1
  O  O179  1  0.91728782  0.52704921  0.74635823  1
  O  O180  1  0.34997408  0.53680438  0.24817496  1
  O  O181  1  0.84672359  0.53230670  0.24253790  1
  O  O182  1  0.41871857  0.30364747  0.24820811  1
  O  O183  1  0.92156770  0.31755534  0.24400069  1
  O  O184  1  0.23375906  0.14914944  0.24514093  1
  O  O185  1  0.73361728  0.15492807  0.24305013  1
  O  O186  1  0.32702976  0.51765748  0.92172738  1
  O  O187  1  0.82221033  0.48818560  0.92463288  1
  O  O188  1  0.43326919  0.34917409  0.92405240  1
  O  O189  1  0.93191734  0.35258994  0.92435448  1
  O  O190  1  0.25904149  0.15611713  0.92226126  1
  O  O191  1  0.74335209  0.13243864  0.92355424  1
  O  O192  1  0.32152460  0.15781842  0.42434735  1
  O  O193  1  0.82577162  0.13612346  0.42090347  1
  O  O194  1  0.24366178  0.35513425  0.42249987  1
  O  O195  1  0.75888869  0.35819017  0.42154412  1
  O  O196  1  0.43346881  0.51251361  0.42203735  1
  O  O197  1  0.93307178  0.51656132  0.42199924  1
  O  O198  1  0.17222128  0.50739440  0.07734490  1
  O  O199  1  0.67747411  0.49026856  0.07837325  1
  O  O200  1  0.06722418  0.64706026  0.08016207  1
  O  O201  1  0.58082255  0.65285028  0.07674839  1
  O  O202  1  0.25798996  0.86290555  0.07754710  1
  O  O203  1  0.75455955  0.86873037  0.07881919  1
  O  O204  1  0.17763908  0.86389808  0.57599263  1
  O  O205  1  0.67116722  0.83796063  0.57551409  1
  O  O206  1  0.25551295  0.63990474  0.57764570  1
  O  O207  1  0.75694471  0.65133227  0.57649348  1
  O  O208  1  0.07897226  0.50227691  0.57375070  1
  O  O209  1  0.56712379  0.48747090  0.57926826  1
  O  O210  1  0.14623910  0.83002481  0.25186516  1
  O  O211  1  0.65080881  0.83634907  0.25383810  1
  O  O212  1  0.26785320  0.69146599  0.25446150  1
  O  O213  1  0.76775405  0.69440058  0.25190784  1
  O  O214  1  0.07759121  0.47102423  0.25453422  1
  O  O215  1  0.57585613  0.47140914  0.25295270  1
  O  O216  1  0.15136951  0.48986286  0.75566457  1
  O  O217  1  0.64599941  0.46244974  0.75219190  1
  O  O218  1  0.07435943  0.68736851  0.75214882  1
  O  O219  1  0.58168307  0.69070065  0.75498968  1
  O  O220  1  0.27022390  0.84801954  0.75174108  1
  O  O221  1  0.76438554  0.84466525  0.75417839  1
