# generated using pymatgen
data_Mn2GeO4
_symmetry_space_group_name_H-M   'P 1'
_cell_length_a   5.06389547
_cell_length_b   6.29508148
_cell_length_c   10.69068556
_cell_angle_alpha   89.99993852
_cell_angle_beta   90.00015959
_cell_angle_gamma   90.00011354
_symmetry_Int_Tables_number   1
_chemical_formula_structural   Mn2GeO4
_chemical_formula_sum   'Mn8 Ge4 O16'
_cell_volume   340.79376780
_cell_formula_units_Z   4
loop_
 _symmetry_equiv_pos_site_id
 _symmetry_equiv_pos_as_xyz
  1  'x, y, z'
loop_
 _atom_site_type_symbol
 _atom_site_label
 _atom_site_symmetry_multiplicity
 _atom_site_fract_x
 _atom_site_fract_y
 _atom_site_fract_z
 _atom_site_occupancy
  Mn  Mn0  1  0.50000191  0.00000319  0.49999777  1
  Mn  Mn1  1  0.49999899  0.50000366  0.50000335  1
  Mn  Mn2  1  0.48930401  0.74999888  0.22099062  1
  Mn  Mn3  1  0.51069359  0.24999658  0.77900997  1
  Mn  Mn4  1  0.00000052  0.99999932  0.99999887  1
  Mn  Mn5  1  0.99999896  0.49999959  0.00000096  1
  Mn  Mn6  1  0.98931242  0.25000357  0.27900733  1
  Mn  Mn7  1  0.01068868  0.74999837  0.72099241  1
  Ge  Ge8  1  0.56493592  0.74999858  0.90315785  1
  Ge  Ge9  1  0.06493740  0.24999931  0.59684691  1
  Ge  Ge10  1  0.43506393  0.24999883  0.09684192  1
  Ge  Ge11  1  0.93506307  0.75000111  0.40315268  1
  O  O12  1  0.77956883  0.75000148  0.55410686  1
  O  O13  1  0.27956502  0.25000022  0.94588889  1
  O  O14  1  0.22043217  0.25000132  0.44589319  1
  O  O15  1  0.72043401  0.74999937  0.05411074  1
  O  O16  1  0.22013901  0.74999920  0.90656709  1
  O  O17  1  0.72013708  0.25000042  0.59343548  1
  O  O18  1  0.77986183  0.24999942  0.09343232  1
  O  O19  1  0.27986379  0.75000081  0.40656475  1
  O  O20  1  0.22568632  0.47147812  0.66524059  1
  O  O21  1  0.72568976  0.52851928  0.83476307  1
  O  O22  1  0.77431404  0.97148126  0.33475945  1
  O  O23  1  0.27430899  0.02851891  0.16523616  1
  O  O24  1  0.77431024  0.52852321  0.33475952  1
  O  O25  1  0.27430890  0.47147830  0.16523683  1
  O  O26  1  0.22568910  0.02852074  0.66524025  1
  O  O27  1  0.72569049  0.97147896  0.83476318  1
