# generated using pymatgen
data_Na7La2Ta2Si5PO24
_symmetry_space_group_name_H-M   'P 1'
_cell_length_a   9.47730461
_cell_length_b   9.49154013
_cell_length_c   22.49923009
_cell_angle_alpha   90.22823490
_cell_angle_beta   89.79552132
_cell_angle_gamma   119.91817524
_symmetry_Int_Tables_number   1
_chemical_formula_structural   Na7La2Ta2Si5PO24
_chemical_formula_sum   'Na21 La6 Ta6 Si15 P3 O72'
_cell_volume   1754.17590871
_cell_formula_units_Z   3
loop_
 _symmetry_equiv_pos_site_id
 _symmetry_equiv_pos_as_xyz
  1  'x, y, z'
loop_
 _atom_site_type_symbol
 _atom_site_label
 _atom_site_symmetry_multiplicity
 _atom_site_fract_x
 _atom_site_fract_y
 _atom_site_fract_z
 _atom_site_occupancy
  Na  Na0  1  0.65685097  0.01895485  0.24885604  1
  Na  Na1  1  0.36808861  0.35812382  0.24654966  1
  Na  Na2  1  0.98467184  0.63221518  0.24602536  1
  Na  Na3  1  0.63946832  0.62877871  0.74757926  1
  Na  Na4  1  0.98398222  0.34867785  0.74668746  1
  Na  Na5  1  0.36506199  0.01699529  0.74599146  1
  Na  Na6  1  0.31470020  0.34379067  0.58098166  1
  Na  Na7  1  0.03482437  0.69370133  0.57852486  1
  Na  Na8  1  0.65318624  0.96205782  0.57925972  1
  Na  Na9  1  0.30131324  0.96453273  0.07435316  1
  Na  Na10  1  0.03198578  0.34630173  0.07952625  1
  Na  Na11  1  0.98855635  0.68036679  0.91267831  1
  Na  Na12  1  0.31541080  0.29060719  0.91166521  1
  Na  Na13  1  0.32207171  0.01902056  0.41217499  1
  Na  Na14  1  0.70776724  0.68097622  0.41128917  1
  Na  Na15  1  0.98876531  0.00226031  0.49740664  1
  Na  Na16  1  0.98341452  0.00077392  0.99906778  1
  Na  Na17  1  0.66760028  0.31976938  0.83124282  1
  Na  Na18  1  0.67887145  0.33315479  0.33204427  1
  Na  Na19  1  0.33790278  0.65240126  0.16313394  1
  Na  Na20  1  0.33611959  0.66622080  0.66215540  1
  La  La21  1  0.99984274  0.00877277  0.34723507  1
  La  La22  1  0.99168478  0.00092152  0.84907030  1
  La  La23  1  0.66677948  0.33410598  0.67627225  1
  La  La24  1  0.66551674  0.34141796  0.17519510  1
  La  La25  1  0.34191365  0.66731116  0.01436154  1
  La  La26  1  0.32895877  0.66334410  0.50866789  1
  Ta  Ta27  1  0.99869248  0.99864845  0.64788066  1
  Ta  Ta28  1  0.00283257  0.99597387  0.14897970  1
  Ta  Ta29  1  0.66542432  0.33331123  0.98198219  1
  Ta  Ta30  1  0.67528256  0.33257148  0.48285345  1
  Ta  Ta31  1  0.32824413  0.66937352  0.31439012  1
  Ta  Ta32  1  0.32879929  0.67047426  0.81339587  1
  Si  Si33  1  0.29750732  0.98696610  0.25140815  1
  Si  Si34  1  0.69251635  0.70794211  0.25188531  1
  Si  Si35  1  0.01181184  0.30915936  0.24657923  1
  Si  Si36  1  0.29272458  0.30753919  0.75124306  1
  Si  Si37  1  0.01278375  0.70576095  0.75139259  1
  Si  Si38  1  0.68924721  0.98637868  0.74775491  1
  Si  Si39  1  0.96537071  0.31730872  0.58529327  1
  Si  Si40  1  0.35574704  0.03652375  0.58330321  1
  Si  Si41  1  0.68052300  0.64320952  0.58402643  1
  Si  Si42  1  0.96163291  0.64536003  0.08361952  1
  Si  Si43  1  0.35040075  0.31526065  0.08583516  1
  Si  Si44  1  0.02453972  0.37627212  0.91943479  1
  Si  Si45  1  0.35132482  0.97570618  0.91884760  1
  Si  Si46  1  0.62604421  0.97696976  0.41934507  1
  Si  Si47  1  0.02040416  0.64998897  0.41836647  1
  P  P48  1  0.68834348  0.04787319  0.08406288  1
  P  P49  1  0.62252049  0.64058079  0.91471671  1
  P  P50  1  0.35863358  0.37587766  0.41659866  1
  O  O51  1  0.23566807  0.02301474  0.31228998  1
  O  O52  1  0.79246040  0.76838131  0.31241681  1
  O  O53  1  0.96137438  0.19286326  0.30294642  1
  O  O54  1  0.22847863  0.20504555  0.81101078  1
  O  O55  1  0.98491811  0.77187288  0.81261759  1
  O  O56  1  0.80714124  0.03677743  0.80353386  1
  O  O57  1  0.79868535  0.96503988  0.69031702  1
  O  O58  1  0.15959489  0.19247502  0.69491393  1
  O  O59  1  0.03055186  0.83718034  0.69546605  1
  O  O60  1  0.81126303  0.84479649  0.19769453  1
  O  O61  1  0.03376716  0.20007028  0.18945249  1
  O  O62  1  0.16197962  0.96836974  0.19612360  1
  O  O63  1  0.90701572  0.35566417  0.64695572  1
  O  O64  1  0.45129862  0.09845866  0.64490174  1
  O  O65  1  0.64616479  0.55064421  0.64626733  1
  O  O66  1  0.90517212  0.54866269  0.14516948  1
  O  O67  1  0.66806373  0.10726370  0.14447952  1
  O  O68  1  0.43107916  0.32922693  0.14937063  1
  O  O69  1  0.47419556  0.30492733  0.03091768  1
  O  O70  1  0.82911483  0.52550533  0.02861445  1
  O  O71  1  0.70025801  0.17686587  0.03412466  1
  O  O72  1  0.47303124  0.17141318  0.52852324  1
  O  O73  1  0.69556320  0.52328166  0.52941096  1
  O  O74  1  0.82715651  0.30340015  0.53156825  1
  O  O75  1  0.55881012  0.66809154  0.97146129  1
  O  O76  1  0.11498872  0.45138290  0.98059325  1
  O  O77  1  0.31831452  0.87719231  0.97904933  1
  O  O78  1  0.55615926  0.89075686  0.48183364  1
  O  O79  1  0.33619924  0.43456114  0.47679901  1
  O  O80  1  0.11188850  0.68056193  0.48054109  1
  O  O81  1  0.13993068  0.63647574  0.36284297  1
  O  O82  1  0.48873322  0.85533976  0.36426780  1
  O  O83  1  0.36297255  0.49446996  0.36477383  1
  O  O84  1  0.14332290  0.51046160  0.86309964  1
  O  O85  1  0.36536846  0.85878245  0.86208122  1
  O  O86  1  0.51062313  0.62937532  0.85996475  1
  O  O87  1  0.99137206  0.80246123  0.41092280  1
  O  O88  1  0.80185442  0.99287856  0.41321403  1
  O  O89  1  0.22339646  0.19889098  0.40976294  1
  O  O90  1  0.00896720  0.20038432  0.91438647  1
  O  O91  1  0.20008780  0.00772052  0.91152047  1
  O  O92  1  0.80302854  0.77095051  0.90896096  1
  O  O93  1  0.95278417  0.13542652  0.58738351  1
  O  O94  1  0.18206526  0.04479679  0.58799231  1
  O  O95  1  0.86258381  0.81526689  0.58740924  1
  O  O96  1  0.95976904  0.82141980  0.09010735  1
  O  O97  1  0.85533780  0.05051952  0.08265467  1
  O  O98  1  0.17629993  0.13314463  0.08604175  1
  O  O99  1  0.64228178  0.12764656  0.74279982  1
  O  O100  1  0.47856599  0.34755796  0.74383548  1
  O  O101  1  0.86988498  0.51953529  0.74485893  1
  O  O102  1  0.65131457  0.52223064  0.24369286  1
  O  O103  1  0.86973934  0.35517563  0.24155259  1
  O  O104  1  0.48441410  0.12503634  0.24192094  1
  O  O105  1  0.61373565  0.46760762  0.91892372  1
  O  O106  1  0.84718048  0.37784224  0.92205600  1
  O  O107  1  0.52435349  0.15564608  0.92525779  1
  O  O108  1  0.62160777  0.15228285  0.42128611  1
  O  O109  1  0.52981649  0.38536967  0.41615563  1
  O  O110  1  0.84202793  0.47580786  0.42294023  1
  O  O111  1  0.30806868  0.45918357  0.08103237  1
  O  O112  1  0.14814780  0.68675849  0.07653457  1
  O  O113  1  0.54153761  0.88148384  0.07438034  1
  O  O114  1  0.31543034  0.85066749  0.57698928  1
  O  O115  1  0.53366611  0.68097866  0.57595348  1
  O  O116  1  0.15090358  0.45952571  0.57625561  1
  O  O117  1  0.28517383  0.80227135  0.25663514  1
  O  O118  1  0.51690670  0.71289392  0.25716848  1
  O  O119  1  0.19470479  0.48030493  0.25678724  1
  O  O120  1  0.28653997  0.48208943  0.75637265  1
  O  O121  1  0.19645291  0.71313605  0.75562451  1
  O  O122  1  0.51869692  0.80390301  0.75637765  1
