# generated using pymatgen
data_MgCr2O4
_symmetry_space_group_name_H-M   'P 1'
_cell_length_a   2.98228838
_cell_length_b   5.24953835
_cell_length_c   5.13162493
_cell_angle_alpha   74.45184249
_cell_angle_beta   90.02392334
_cell_angle_gamma   90.01946591
_symmetry_Int_Tables_number   1
_chemical_formula_structural   MgCr2O4
_chemical_formula_sum   'Mg1 Cr2 O4'
_cell_volume   77.39888885
_cell_formula_units_Z   1
loop_
 _symmetry_equiv_pos_site_id
 _symmetry_equiv_pos_as_xyz
  1  'x, y, z'
loop_
 _atom_site_type_symbol
 _atom_site_label
 _atom_site_symmetry_multiplicity
 _atom_site_fract_x
 _atom_site_fract_y
 _atom_site_fract_z
 _atom_site_occupancy
  Mg  Mg0  1  0.49974592  0.12670943  0.27794145  1
  Cr  Cr1  1  0.50018563  0.52834420  0.52218141  1
  Cr  Cr2  1  0.99965992  0.94884377  0.89035756  1
  O  O3  1  0.49980719  0.78780275  0.14623895  1
  O  O4  1  0.50022765  0.22584941  0.85499821  1
  O  O5  1  0.00043694  0.74800427  0.61962537  1
  O  O6  1  0.99993676  0.31500216  0.39699006  1
