# generated using pymatgen
data_BrF3
_symmetry_space_group_name_H-M   'P 1'
_cell_length_a   4.62311058
_cell_length_b   4.62311079
_cell_length_c   6.22369746
_cell_angle_alpha   90.00000000
_cell_angle_beta   90.00000000
_cell_angle_gamma   109.89323583
_symmetry_Int_Tables_number   1
_chemical_formula_structural   BrF3
_chemical_formula_sum   'Br2 F6'
_cell_volume   125.08250317
_cell_formula_units_Z   2
loop_
 _symmetry_equiv_pos_site_id
 _symmetry_equiv_pos_as_xyz
  1  'x, y, z'
loop_
 _atom_site_type_symbol
 _atom_site_label
 _atom_site_symmetry_multiplicity
 _atom_site_fract_x
 _atom_site_fract_y
 _atom_site_fract_z
 _atom_site_occupancy
  Br  Br0  1  0.83880454  0.16119546  0.25736027  1
  Br  Br1  1  0.16119546  0.83880454  0.75736027  1
  F  F2  1  0.07097323  0.92902677  0.09074423  1
  F  F3  1  0.92902677  0.07097323  0.59074423  1
  F  F4  1  0.26493775  0.73506225  0.50169156  1
  F  F5  1  0.73506225  0.26493775  0.00169156  1
  F  F6  1  0.37600987  0.62399013  0.88020394  1
  F  F7  1  0.62399013  0.37600987  0.38020394  1
