# generated using pymatgen
data_Hg3TeCl4
_symmetry_space_group_name_H-M   'P 1'
_cell_length_a   11.75653193
_cell_length_b   12.38052312
_cell_length_c   12.85802962
_cell_angle_alpha   90.00000000
_cell_angle_beta   90.00000000
_cell_angle_gamma   90.00000000
_symmetry_Int_Tables_number   1
_chemical_formula_structural   Hg3TeCl4
_chemical_formula_sum   'Hg24 Te8 Cl32'
_cell_volume   1871.51212488
_cell_formula_units_Z   8
loop_
 _symmetry_equiv_pos_site_id
 _symmetry_equiv_pos_as_xyz
  1  'x, y, z'
loop_
 _atom_site_type_symbol
 _atom_site_label
 _atom_site_symmetry_multiplicity
 _atom_site_fract_x
 _atom_site_fract_y
 _atom_site_fract_z
 _atom_site_occupancy
  Hg  Hg0  1  0.59045503  0.09383311  0.17969039  1
  Hg  Hg1  1  0.31469105  0.31879305  0.22522249  1
  Hg  Hg2  1  0.18530895  0.68120695  0.72522249  1
  Hg  Hg3  1  0.68530895  0.81879305  0.27477751  1
  Hg  Hg4  1  0.18530895  0.81879305  0.22522249  1
  Hg  Hg5  1  0.68530895  0.68120695  0.77477751  1
  Hg  Hg6  1  0.81469105  0.31879305  0.27477751  1
  Hg  Hg7  1  0.31469105  0.18120695  0.72522249  1
  Hg  Hg8  1  0.81469105  0.18120695  0.77477751  1
  Hg  Hg9  1  0.09045503  0.40616689  0.82030961  1
  Hg  Hg10  1  0.40954497  0.59383311  0.32030961  1
  Hg  Hg11  1  0.90954497  0.90616689  0.67969039  1
  Hg  Hg12  1  0.40954497  0.90616689  0.82030961  1
  Hg  Hg13  1  0.90954497  0.59383311  0.17969039  1
  Hg  Hg14  1  0.59045503  0.40616689  0.67969039  1
  Hg  Hg15  1  0.09045503  0.09383311  0.32030961  1
  Hg  Hg16  1  0.21620176  0.08369297  0.01147808  1
  Hg  Hg17  1  0.71620176  0.41630703  0.98852192  1
  Hg  Hg18  1  0.78379824  0.58369297  0.48852192  1
  Hg  Hg19  1  0.28379824  0.91630703  0.51147808  1
  Hg  Hg20  1  0.78379824  0.91630703  0.98852192  1
  Hg  Hg21  1  0.28379824  0.58369297  0.01147808  1
  Hg  Hg22  1  0.21620176  0.41630703  0.51147808  1
  Hg  Hg23  1  0.71620176  0.08369297  0.48852192  1
  Te  Te24  1  0.40681737  0.10491738  0.90058689  1
  Te  Te25  1  0.90681737  0.39508262  0.09941311  1
  Te  Te26  1  0.59318263  0.60491738  0.59941311  1
  Te  Te27  1  0.09318263  0.89508262  0.40058689  1
  Te  Te28  1  0.59318263  0.89508262  0.09941311  1
  Te  Te29  1  0.09318263  0.60491738  0.90058689  1
  Te  Te30  1  0.40681737  0.39508262  0.40058689  1
  Te  Te31  1  0.90681737  0.10491738  0.59941311  1
  Cl  Cl32  1  0.32172161  0.10007221  0.22059728  1
  Cl  Cl33  1  0.82172161  0.39992779  0.77940272  1
  Cl  Cl34  1  0.67827839  0.60007221  0.27940272  1
  Cl  Cl35  1  0.17827839  0.89992779  0.72059728  1
  Cl  Cl36  1  0.67827839  0.89992779  0.77940272  1
  Cl  Cl37  1  0.17827839  0.60007221  0.22059728  1
  Cl  Cl38  1  0.32172161  0.39992779  0.72059728  1
  Cl  Cl39  1  0.82172161  0.10007221  0.27940272  1
  Cl  Cl40  1  0.04032323  0.08190119  0.10442679  1
  Cl  Cl41  1  0.54032323  0.41809881  0.89557321  1
  Cl  Cl42  1  0.95967677  0.58190119  0.39557321  1
  Cl  Cl43  1  0.45967677  0.91809881  0.60442679  1
  Cl  Cl44  1  0.95967677  0.91809881  0.89557321  1
  Cl  Cl45  1  0.45967677  0.58190119  0.10442679  1
  Cl  Cl46  1  0.04032323  0.41809881  0.60442679  1
  Cl  Cl47  1  0.58054601  0.21034137  0.67669110  1
  Cl  Cl48  1  0.74696301  0.16178062  0.95170385  1
  Cl  Cl49  1  0.24696301  0.33821938  0.04829615  1
  Cl  Cl50  1  0.25303699  0.66178062  0.54829615  1
  Cl  Cl51  1  0.75303699  0.83821938  0.45170385  1
  Cl  Cl52  1  0.25303699  0.83821938  0.04829615  1
  Cl  Cl53  1  0.75303699  0.66178062  0.95170385  1
  Cl  Cl54  1  0.74696301  0.33821938  0.45170385  1
  Cl  Cl55  1  0.24696301  0.16178062  0.54829615  1
  Cl  Cl56  1  0.08054601  0.21034137  0.82330890  1
  Cl  Cl57  1  0.58054601  0.28965863  0.17669110  1
  Cl  Cl58  1  0.91945399  0.71034137  0.67669110  1
  Cl  Cl59  1  0.41945399  0.78965863  0.32330890  1
  Cl  Cl60  1  0.91945399  0.78965863  0.17669110  1
  Cl  Cl61  1  0.41945399  0.71034137  0.82330890  1
  Cl  Cl62  1  0.08054601  0.28965863  0.32330890  1
  Cl  Cl63  1  0.54032323  0.08190119  0.39557321  1
