# generated using pymatgen
data_FeAsO4
_symmetry_space_group_name_H-M   'P 1'
_cell_length_a   8.14368873
_cell_length_b   5.04649881
_cell_length_c   7.96661374
_cell_angle_alpha   66.72335501
_cell_angle_beta   90.00000000
_cell_angle_gamma   90.00000000
_symmetry_Int_Tables_number   1
_chemical_formula_structural   FeAsO4
_chemical_formula_sum   'Fe4 As4 O16'
_cell_volume   300.75655830
_cell_formula_units_Z   4
loop_
 _symmetry_equiv_pos_site_id
 _symmetry_equiv_pos_as_xyz
  1  'x, y, z'
loop_
 _atom_site_type_symbol
 _atom_site_label
 _atom_site_symmetry_multiplicity
 _atom_site_fract_x
 _atom_site_fract_y
 _atom_site_fract_z
 _atom_site_occupancy
  Fe  Fe0  1  0.95974031  0.40906283  0.32653762  1
  Fe  Fe1  1  0.45974031  0.59093717  0.17346238  1
  Fe  Fe2  1  0.04025969  0.59093717  0.67346238  1
  Fe  Fe3  1  0.54025969  0.40906283  0.82653762  1
  As  As4  1  0.20152092  0.15148607  0.07353199  1
  As  As5  1  0.70152092  0.84851393  0.42646801  1
  As  As6  1  0.79847908  0.84851393  0.92646801  1
  As  As7  1  0.29847908  0.15148607  0.57353199  1
  O  O8  1  0.26439723  0.80757916  0.13228054  1
  O  O9  1  0.76439723  0.19242084  0.36771946  1
  O  O10  1  0.73560277  0.19242084  0.86771946  1
  O  O11  1  0.23560277  0.80757916  0.63228054  1
  O  O12  1  0.07591773  0.26441026  0.89023142  1
  O  O13  1  0.57591773  0.73558974  0.60976858  1
  O  O14  1  0.92408227  0.73558974  0.10976858  1
  O  O15  1  0.42408227  0.26441026  0.39023142  1
  O  O16  1  0.39754521  0.17252113  0.75331814  1
  O  O17  1  0.89754521  0.82747887  0.74668186  1
  O  O18  1  0.60245479  0.82747887  0.24668186  1
  O  O19  1  0.10245479  0.17252113  0.25331814  1
  O  O20  1  0.12733097  0.36928437  0.52225077  1
  O  O21  1  0.62733097  0.63071563  0.97774923  1
  O  O22  1  0.87266903  0.63071563  0.47774923  1
  O  O23  1  0.37266903  0.36928437  0.02225077  1
