# generated using pymatgen
data_Na12Ta2Zn10Si3(S5O24)3
_symmetry_space_group_name_H-M   'P 1'
_cell_length_a   8.85838496
_cell_length_b   8.92666303
_cell_length_c   22.55282921
_cell_angle_alpha   89.68542796
_cell_angle_beta   90.63435279
_cell_angle_gamma   119.74237055
_symmetry_Int_Tables_number   1
_chemical_formula_structural   Na12Ta2Zn10Si3(S5O24)3
_chemical_formula_sum   'Na12 Ta2 Zn10 Si3 S15 O72'
_cell_volume   1548.35428175
_cell_formula_units_Z   1
loop_
 _symmetry_equiv_pos_site_id
 _symmetry_equiv_pos_as_xyz
  1  'x, y, z'
loop_
 _atom_site_type_symbol
 _atom_site_label
 _atom_site_symmetry_multiplicity
 _atom_site_fract_x
 _atom_site_fract_y
 _atom_site_fract_z
 _atom_site_occupancy
  Na  Na0  1  0.30129033  0.33595619  0.57934664  1
  Na  Na1  1  0.67098614  0.96942186  0.59078134  1
  Na  Na2  1  0.29656419  0.96871954  0.09025842  1
  Na  Na3  1  0.03031295  0.33296201  0.08340969  1
  Na  Na4  1  0.33067512  0.04500457  0.40989843  1
  Na  Na5  1  0.69356904  0.65683702  0.41550074  1
  Na  Na6  1  0.00928173  0.01345517  0.49789614  1
  Na  Na7  1  0.98800904  0.99062353  0.99600785  1
  Na  Na8  1  0.67102690  0.32071316  0.82911252  1
  Na  Na9  1  0.65267063  0.32201103  0.32786132  1
  Na  Na10  1  0.34348235  0.67681886  0.16514941  1
  Na  Na11  1  0.32893793  0.67256345  0.66473658  1
  Ta  Ta12  1  0.33259795  0.66161316  0.31202096  1
  Ta  Ta13  1  0.34097863  0.67227303  0.81247692  1
  Zn  Zn14  1  0.03056391  0.03099101  0.34642533  1
  Zn  Zn15  1  0.99353970  0.00353047  0.84639490  1
  Zn  Zn16  1  0.98583477  0.98773231  0.65989789  1
  Zn  Zn17  1  0.00062244  0.98602350  0.15865110  1
  Zn  Zn18  1  0.67205910  0.32418453  0.68706113  1
  Zn  Zn19  1  0.64952245  0.32166056  0.18646436  1
  Zn  Zn20  1  0.66855948  0.33586286  0.98149521  1
  Zn  Zn21  1  0.65959363  0.33629922  0.48317078  1
  Zn  Zn22  1  0.33851557  0.66654581  0.01277171  1
  Zn  Zn23  1  0.32140324  0.65237933  0.51369153  1
  Si  Si24  1  0.30114663  0.00725204  0.24953945  1
  Si  Si25  1  0.71538690  0.01371241  0.74901225  1
  Si  Si26  1  0.32909847  0.36656004  0.42136115  1
  S  S27  1  0.70975381  0.70858427  0.25235622  1
  S  S28  1  0.99677310  0.29476340  0.24898274  1
  S  S29  1  0.29564754  0.29519491  0.75087142  1
  S  S30  1  0.99881790  0.70699388  0.75187886  1
  S  S31  1  0.95928545  0.33717572  0.58259685  1
  S  S32  1  0.36672229  0.03416228  0.58245216  1
  S  S33  1  0.67268544  0.62928708  0.58372125  1
  S  S34  1  0.95506792  0.62430026  0.08264246  1
  S  S35  1  0.66881206  0.03850375  0.08256383  1
  S  S36  1  0.37448046  0.33779894  0.08132055  1
  S  S37  1  0.62793995  0.66518728  0.91821421  1
  S  S38  1  0.04068558  0.37338203  0.91841569  1
  S  S39  1  0.33037646  0.95899920  0.91734502  1
  S  S40  1  0.62666852  0.95676396  0.41732903  1
  S  S41  1  0.04126633  0.66343024  0.41672730  1
  O  O42  1  0.21774574  0.02264593  0.31069412  1
  O  O43  1  0.80518605  0.78828760  0.30733911  1
  O  O44  1  0.96887761  0.18902506  0.30179557  1
  O  O45  1  0.21752405  0.18843223  0.80307665  1
  O  O46  1  0.98197307  0.78884351  0.80523487  1
  O  O47  1  0.82260821  0.03062160  0.80790999  1
  O  O48  1  0.76895065  0.95961718  0.68714264  1
  O  O49  1  0.19219781  0.22949893  0.69538552  1
  O  O50  1  0.04470889  0.81429399  0.69779427  1
  O  O51  1  0.77569593  0.81674968  0.19901152  1
  O  O52  1  0.03241366  0.22751293  0.19443913  1
  O  O53  1  0.18948614  0.96121834  0.18773193  1
  O  O54  1  0.87763970  0.35631202  0.63604887  1
  O  O55  1  0.48124695  0.11834938  0.63418546  1
  O  O56  1  0.64574918  0.51533128  0.63490026  1
  O  O57  1  0.87608828  0.51627127  0.13568308  1
  O  O58  1  0.63824197  0.11768852  0.13518973  1
  O  O59  1  0.47841573  0.36320426  0.13560905  1
  O  O60  1  0.45455830  0.30768887  0.02852220  1
  O  O61  1  0.85441186  0.54229257  0.02785848  1
  O  O62  1  0.69889151  0.14700923  0.02859954  1
  O  O63  1  0.44114076  0.13743691  0.52684866  1
  O  O64  1  0.68963459  0.55269897  0.52722962  1
  O  O65  1  0.84999881  0.30931372  0.52848567  1
  O  O66  1  0.54678765  0.69064548  0.97099856  1
  O  O67  1  0.13968716  0.45337470  0.97420572  1
  O  O68  1  0.30753741  0.85873004  0.97246909  1
  O  O69  1  0.55024656  0.85644152  0.47215563  1
  O  O70  1  0.31129852  0.45234128  0.48146844  1
  O  O71  1  0.15385931  0.70285491  0.46954352  1
  O  O72  1  0.13582886  0.64839525  0.36321480  1
  O  O73  1  0.50547773  0.86509470  0.36457387  1
  O  O74  1  0.35592563  0.50261447  0.36430298  1
  O  O75  1  0.13734262  0.48809687  0.86636516  1
  O  O76  1  0.34934239  0.85857244  0.86528904  1
  O  O77  1  0.51085931  0.64781268  0.86437968  1
  O  O78  1  0.01079983  0.81120913  0.40971429  1
  O  O79  1  0.79403653  0.96363133  0.40806486  1
  O  O80  1  0.16114135  0.17486137  0.41549968  1
  O  O81  1  0.02921733  0.20390681  0.91300217  1
  O  O82  1  0.17432346  0.97437861  0.90790596  1
  O  O83  1  0.79994753  0.81710194  0.91119066  1
  O  O84  1  0.98245520  0.18066310  0.58598387  1
  O  O85  1  0.19350653  0.02164323  0.58950727  1
  O  O86  1  0.82853169  0.80445218  0.58757739  1
  O  O87  1  0.97723426  0.80068515  0.08585160  1
  O  O88  1  0.82856192  0.02302512  0.09000970  1
  O  O89  1  0.19597571  0.18104132  0.08550616  1
  O  O90  1  0.67173450  0.16837398  0.74553207  1
  O  O91  1  0.47541802  0.33326167  0.74443259  1
  O  O92  1  0.84869185  0.53501049  0.74444541  1
  O  O93  1  0.68733069  0.53567260  0.24519346  1
  O  O94  1  0.85427848  0.33211593  0.24283335  1
  O  O95  1  0.49613375  0.16962914  0.24574830  1
  O  O96  1  0.63185087  0.50204403  0.91896644  1
  O  O97  1  0.86774393  0.36195657  0.91928766  1
  O  O98  1  0.49217590  0.12750157  0.91870683  1
  O  O99  1  0.63853728  0.12725850  0.41897542  1
  O  O100  1  0.51248375  0.35821735  0.41893133  1
  O  O101  1  0.87350613  0.50171700  0.41940202  1
  O  O102  1  0.34854543  0.49137207  0.07601393  1
  O  O103  1  0.13637671  0.64446512  0.07871092  1
  O  O104  1  0.50818627  0.86492209  0.07597712  1
  O  O105  1  0.35434281  0.86116570  0.57669217  1
  O  O106  1  0.51361841  0.65138243  0.58124827  1
  O  O107  1  0.13678207  0.49256828  0.57958299  1
  O  O108  1  0.31653524  0.82370458  0.26123433  1
  O  O109  1  0.52443725  0.68674622  0.25844182  1
  O  O110  1  0.16396487  0.47234459  0.25847385  1
  O  O111  1  0.30547775  0.47327632  0.76083447  1
  O  O112  1  0.15991475  0.68220197  0.76117012  1
  O  O113  1  0.51074527  0.82630634  0.76252375  1
