# generated using pymatgen
data_Na21Nb8Zn4Si15(PO24)3
_symmetry_space_group_name_H-M   'P 1'
_cell_length_a   9.12783838
_cell_length_b   9.14809317
_cell_length_c   22.36111146
_cell_angle_alpha   89.89721945
_cell_angle_beta   89.89200167
_cell_angle_gamma   120.05352197
_symmetry_Int_Tables_number   1
_chemical_formula_structural   Na21Nb8Zn4Si15(PO24)3
_chemical_formula_sum   'Na21 Nb8 Zn4 Si15 P3 O72'
_cell_volume   1616.16284078
_cell_formula_units_Z   1
loop_
 _symmetry_equiv_pos_site_id
 _symmetry_equiv_pos_as_xyz
  1  'x, y, z'
loop_
 _atom_site_type_symbol
 _atom_site_label
 _atom_site_symmetry_multiplicity
 _atom_site_fract_x
 _atom_site_fract_y
 _atom_site_fract_z
 _atom_site_occupancy
  Na  Na0  1  0.64048336  0.02295744  0.24091981  1
  Na  Na1  1  0.38004763  0.35580150  0.24311510  1
  Na  Na2  1  0.98109965  0.62259083  0.24039813  1
  Na  Na3  1  0.63910581  0.61889252  0.74345330  1
  Na  Na4  1  0.97741490  0.35632825  0.74552062  1
  Na  Na5  1  0.38371362  0.02654273  0.74654704  1
  Na  Na6  1  0.31219149  0.33794719  0.58821081  1
  Na  Na7  1  0.66415645  0.97420179  0.58803465  1
  Na  Na8  1  0.31332115  0.97289182  0.08556387  1
  Na  Na9  1  0.96694238  0.68623799  0.91207928  1
  Na  Na10  1  0.72082314  0.03419140  0.90944953  1
  Na  Na11  1  0.31322508  0.27618294  0.90960951  1
  Na  Na12  1  0.96455458  0.27891270  0.41136154  1
  Na  Na13  1  0.31378215  0.03677325  0.40887701  1
  Na  Na14  1  0.71856775  0.68547007  0.41131179  1
  Na  Na15  1  0.00109043  0.99199727  0.49461924  1
  Na  Na16  1  0.99188056  0.00086727  0.99225209  1
  Na  Na17  1  0.66136282  0.32759263  0.82483182  1
  Na  Na18  1  0.66140435  0.32878588  0.32443990  1
  Na  Na19  1  0.33437575  0.65576306  0.16069706  1
  Na  Na20  1  0.32241670  0.66747777  0.66676892  1
  Nb  Nb21  1  0.99834443  0.99995242  0.64677822  1
  Nb  Nb22  1  0.00088583  0.99763379  0.14297276  1
  Nb  Nb23  1  0.66758958  0.33246334  0.98172744  1
  Nb  Nb24  1  0.66629446  0.33402986  0.48100389  1
  Nb  Nb25  1  0.33284383  0.66376337  0.02124202  1
  Nb  Nb26  1  0.33074137  0.66593056  0.52066898  1
  Nb  Nb27  1  0.33275061  0.66989600  0.31269916  1
  Nb  Nb28  1  0.33732290  0.66604745  0.81310322  1
  Zn  Zn29  1  0.00454112  0.00250619  0.35079754  1
  Zn  Zn30  1  0.00212152  0.00578140  0.85070916  1
  Zn  Zn31  1  0.66118985  0.32783963  0.68009761  1
  Zn  Zn32  1  0.66113991  0.32809638  0.17531334  1
  Si  Si33  1  0.29443337  0.00262428  0.25301467  1
  Si  Si34  1  0.29397281  0.29342367  0.75317257  1
  Si  Si35  1  0.70662444  0.00154212  0.75362058  1
  Si  Si36  1  0.95891191  0.33598936  0.58673962  1
  Si  Si37  1  0.37149394  0.03766780  0.58533983  1
  Si  Si38  1  0.66969844  0.62695080  0.58527518  1
  Si  Si39  1  0.95668689  0.62110277  0.08706233  1
  Si  Si40  1  0.66738597  0.03980070  0.08584337  1
  Si  Si41  1  0.37636376  0.33791246  0.08681716  1
  Si  Si42  1  0.62462715  0.66340687  0.91770187  1
  Si  Si43  1  0.03994214  0.37778295  0.91687192  1
  Si  Si44  1  0.33541246  0.95893599  0.91753831  1
  Si  Si45  1  0.62495145  0.96010222  0.41710026  1
  Si  Si46  1  0.33611397  0.37667308  0.41660616  1
  Si  Si47  1  0.03884968  0.66288440  0.41668423  1
  P  P48  1  0.71020307  0.71321779  0.25343115  1
  P  P49  1  0.00326352  0.28967527  0.25298956  1
  P  P50  1  0.00317517  0.71205621  0.75294227  1
  O  O51  1  0.21219236  0.02797132  0.31271610  1
  O  O52  1  0.80688164  0.78988412  0.31079598  1
  O  O53  1  0.97569057  0.19059118  0.31067574  1
  O  O54  1  0.21488028  0.18056849  0.81202837  1
  O  O55  1  0.97790117  0.78691201  0.81015798  1
  O  O56  1  0.81529396  0.02468012  0.81248832  1
  O  O57  1  0.80192983  0.96965239  0.69317052  1
  O  O58  1  0.16732113  0.19433917  0.69308928  1
  O  O59  1  0.02641470  0.83203803  0.69752078  1
  O  O60  1  0.80162455  0.83115323  0.19842306  1
  O  O61  1  0.02694790  0.19555947  0.19854706  1
  O  O62  1  0.16760415  0.97100616  0.19408955  1
  O  O63  1  0.88548119  0.36641305  0.64672791  1
  O  O64  1  0.48659895  0.10408112  0.64375198  1
  O  O65  1  0.61892733  0.50912649  0.64315516  1
  O  O66  1  0.88413952  0.51822483  0.14770234  1
  O  O67  1  0.61810425  0.10524671  0.14475491  1
  O  O68  1  0.47609555  0.36696797  0.14792843  1
  O  O69  1  0.46919589  0.30164813  0.02839597  1
  O  O70  1  0.83510563  0.52641302  0.02761370  1
  O  O71  1  0.69393733  0.16368653  0.02670357  1
  O  O72  1  0.46834128  0.16561163  0.52623962  1
  O  O73  1  0.69295762  0.52896373  0.52544684  1
  O  O74  1  0.83315165  0.30398648  0.52729151  1
  O  O75  1  0.51906007  0.68596075  0.97231643  1
  O  O76  1  0.16435442  0.48593251  0.97201950  1
  O  O77  1  0.31696488  0.84122351  0.97519445  1
  O  O78  1  0.52621648  0.83972663  0.47459593  1
  O  O79  1  0.32045841  0.47885983  0.47421418  1
  O  O80  1  0.16577476  0.68227560  0.47164411  1
  O  O81  1  0.13354697  0.63288294  0.35721951  1
  O  O82  1  0.49715836  0.86290586  0.35847369  1
  O  O83  1  0.36586698  0.50172777  0.35779573  1
  O  O84  1  0.13219854  0.50007656  0.85680690  1
  O  O85  1  0.36562315  0.86346980  0.85830023  1
  O  O86  1  0.49982956  0.63244425  0.85756624  1
  O  O87  1  0.01859041  0.82622195  0.41642948  1
  O  O88  1  0.80861077  0.97879424  0.41440919  1
  O  O89  1  0.16941332  0.19390604  0.41734942  1
  O  O90  1  0.02206825  0.19475774  0.91820305  1
  O  O91  1  0.16895154  0.97593889  0.91676650  1
  O  O92  1  0.80886261  0.82719715  0.91598211  1
  O  O93  1  0.97347632  0.16041859  0.58855643  1
  O  O94  1  0.18796983  0.03042016  0.58844136  1
  O  O95  1  0.83585235  0.81844778  0.58800242  1
  O  O96  1  0.97777584  0.81492195  0.09055341  1
  O  O97  1  0.83858424  0.02331487  0.09150928  1
  O  O98  1  0.18838533  0.15810865  0.09054242  1
  O  O99  1  0.68057539  0.16266550  0.74768605  1
  O  O100  1  0.48454614  0.32729312  0.74639118  1
  O  O101  1  0.85177428  0.53436168  0.74534034  1
  O  O102  1  0.68388548  0.53400953  0.24769928  1
  O  O103  1  0.85413525  0.32214384  0.24671760  1
  O  O104  1  0.48546583  0.16147868  0.24795209  1
  O  O105  1  0.62874945  0.48570287  0.92259775  1
  O  O106  1  0.85555684  0.37035960  0.92171814  1
  O  O107  1  0.51266216  0.14378033  0.92171736  1
  O  O108  1  0.63049378  0.14302782  0.42148080  1
  O  O109  1  0.51312809  0.36872119  0.42093052  1
  O  O110  1  0.85654689  0.48488285  0.42131625  1
  O  O111  1  0.34508609  0.49643853  0.07523170  1
  O  O112  1  0.15254721  0.66205749  0.07666299  1
  O  O113  1  0.49990307  0.85321187  0.07418618  1
  O  O114  1  0.35080435  0.85064091  0.57357891  1
  O  O115  1  0.50492447  0.65504220  0.57449734  1
  O  O116  1  0.15487111  0.49113050  0.57596801  1
  O  O117  1  0.30164599  0.81913891  0.25423870  1
  O  O118  1  0.52894069  0.70075867  0.25408564  1
  O  O119  1  0.17551474  0.46813697  0.25414937  1
  O  O120  1  0.29478582  0.47853873  0.75357330  1
  O  O121  1  0.17332966  0.70631760  0.75267037  1
  O  O122  1  0.51737904  0.82080683  0.75337913  1
