# generated using pymatgen
data_Nb2Te3O11
_symmetry_space_group_name_H-M   'P 1'
_cell_length_a   4.04108615
_cell_length_b   7.81850259
_cell_length_c   15.80393990
_cell_angle_alpha   90.00000000
_cell_angle_beta   90.00000000
_cell_angle_gamma   90.00000000
_symmetry_Int_Tables_number   1
_chemical_formula_structural   Nb2Te3O11
_chemical_formula_sum   'Nb4 Te6 O22'
_cell_volume   499.32931407
_cell_formula_units_Z   2
loop_
 _symmetry_equiv_pos_site_id
 _symmetry_equiv_pos_as_xyz
  1  'x, y, z'
loop_
 _atom_site_type_symbol
 _atom_site_label
 _atom_site_symmetry_multiplicity
 _atom_site_fract_x
 _atom_site_fract_y
 _atom_site_fract_z
 _atom_site_occupancy
  Nb  Nb0  1  0.74667583  0.12909629  0.60255581  1
  Nb  Nb1  1  0.74667583  0.87090371  0.39744419  1
  Nb  Nb2  1  0.25332417  0.62909629  0.89744419  1
  Nb  Nb3  1  0.25332417  0.37090371  0.10255581  1
  Te  Te4  1  0.86441889  0.00000000  -0.00000000  1
  Te  Te5  1  0.13558111  0.50000000  0.50000000  1
  Te  Te6  1  0.14099564  0.18919886  0.79721266  1
  Te  Te7  1  0.14099564  0.81080114  0.20278734  1
  Te  Te8  1  0.85900436  0.68919886  0.70278734  1
  Te  Te9  1  0.85900436  0.31080114  0.29721266  1
  O  O10  1  0.84338444  0.13782605  0.88614730  1
  O  O11  1  0.84338444  0.86217395  0.11385270  1
  O  O12  1  0.15661556  0.63782605  0.61385270  1
  O  O13  1  0.15661556  0.36217395  0.38614730  1
  O  O14  1  0.78521486  0.91670059  0.67329022  1
  O  O15  1  0.78521486  0.08329941  0.32670978  1
  O  O16  1  0.21478514  0.41670059  0.82670978  1
  O  O17  1  0.21478514  0.58329941  0.17329022  1
  O  O18  1  0.80372221  0.35640389  0.54422572  1
  O  O19  1  0.80372221  0.64359611  0.45577428  1
  O  O20  1  0.70315641  0.34954625  0.10795205  1
  O  O21  1  0.70315641  0.65045375  0.89204795  1
  O  O22  1  0.29684359  0.84954625  0.39204795  1
  O  O23  1  0.29684359  0.15045375  0.60795205  1
  O  O24  1  0.19140332  0.24904731  0.22001470  1
  O  O25  1  0.19140332  0.75095269  0.77998530  1
  O  O26  1  0.80859668  0.74904731  0.27998530  1
  O  O27  1  0.80859668  0.25095269  0.72001470  1
  O  O28  1  0.19977447  0.50000000  -0.00000000  1
  O  O29  1  0.80022553  0.00000000  0.50000000  1
  O  O30  1  0.19627779  0.14359611  0.04422572  1
  O  O31  1  0.19627779  0.85640389  0.95577428  1
