# generated using pymatgen
data_Na3Zr2Ta2Si3(PO8)3
_symmetry_space_group_name_H-M   'P 1'
_cell_length_a   8.95741433
_cell_length_b   8.91425903
_cell_length_c   22.96699302
_cell_angle_alpha   90.02362978
_cell_angle_beta   90.00048754
_cell_angle_gamma   119.80360729
_symmetry_Int_Tables_number   1
_chemical_formula_structural   Na3Zr2Ta2Si3(PO8)3
_chemical_formula_sum   'Na9 Zr6 Ta6 Si9 P9 O72'
_cell_volume   1591.32430737
_cell_formula_units_Z   3
loop_
 _symmetry_equiv_pos_site_id
 _symmetry_equiv_pos_as_xyz
  1  'x, y, z'
loop_
 _atom_site_type_symbol
 _atom_site_label
 _atom_site_symmetry_multiplicity
 _atom_site_fract_x
 _atom_site_fract_y
 _atom_site_fract_z
 _atom_site_occupancy
  Na  Na0  1  0.99969025  0.63290208  0.25176838  1
  Na  Na1  1  0.66542054  0.96202294  0.58466395  1
  Na  Na2  1  0.66694247  0.70075188  0.08150837  1
  Na  Na3  1  0.01383944  0.99981158  0.50049471  1
  Na  Na4  1  0.00996366  0.00942355  0.99807087  1
  Na  Na5  1  0.66791747  0.33458259  0.83317585  1
  Na  Na6  1  0.65924697  0.32619820  0.33401017  1
  Na  Na7  1  0.33329802  0.66664977  0.16664422  1
  Na  Na8  1  0.32385435  0.66265452  0.66786112  1
  Zr  Zr9  1  0.00712606  0.99593602  0.64780710  1
  Zr  Zr10  1  0.00082595  0.00137520  0.14462494  1
  Zr  Zr11  1  0.66584766  0.33191820  0.18833430  1
  Zr  Zr12  1  0.32466495  0.66358727  0.01708832  1
  Zr  Zr13  1  0.32875188  0.66961394  0.51934047  1
  Zr  Zr14  1  0.34133719  0.67031721  0.31654388  1
  Ta  Ta15  1  0.99406931  0.99482377  0.35507559  1
  Ta  Ta16  1  0.99040772  0.99398808  0.85284225  1
  Ta  Ta17  1  0.66575033  0.33055039  0.69032508  1
  Ta  Ta18  1  0.67277021  0.33832523  0.97662063  1
  Ta  Ta19  1  0.66462666  0.33337940  0.47821713  1
  Ta  Ta20  1  0.33322282  0.66581208  0.81372452  1
  Si  Si21  1  0.70566536  0.71064047  0.24882764  1
  Si  Si22  1  0.00168635  0.70688396  0.75085851  1
  Si  Si23  1  0.70751803  0.99622551  0.74845725  1
  Si  Si24  1  0.37803168  0.04940923  0.58347923  1
  Si  Si25  1  0.95984118  0.62195109  0.08394751  1
  Si  Si26  1  0.62287827  0.66708391  0.91775466  1
  Si  Si27  1  0.04324757  0.37275847  0.91518286  1
  Si  Si28  1  0.62830555  0.96136010  0.41887547  1
  Si  Si29  1  0.03857907  0.66536486  0.41490042  1
  P  P30  1  0.28647634  0.00080592  0.25172527  1
  P  P31  1  0.00165027  0.28832664  0.25115878  1
  P  P32  1  0.28921668  0.28953831  0.75139798  1
  P  P33  1  0.94951903  0.33577711  0.58398963  1
  P  P34  1  0.66523348  0.61605943  0.58409012  1
  P  P35  1  0.66559457  0.04615106  0.08158785  1
  P  P36  1  0.38096735  0.33224753  0.08096083  1
  P  P37  1  0.33280657  0.95930460  0.91497025  1
  P  P38  1  0.33190866  0.37135557  0.41738839  1
  O  O39  1  0.19528144  0.02261789  0.30559351  1
  O  O40  1  0.83653730  0.81572630  0.30426736  1
  O  O41  1  0.98631192  0.17761439  0.30509789  1
  O  O42  1  0.20408111  0.17431269  0.80443813  1
  O  O43  1  0.97611650  0.80586069  0.80648015  1
  O  O44  1  0.83544920  0.02723945  0.80418864  1
  O  O45  1  0.78717977  0.96865445  0.68891579  1
  O  O46  1  0.18054133  0.21312234  0.69623479  1
  O  O47  1  0.03711783  0.82541502  0.69336132  1
  O  O48  1  0.79661617  0.82024042  0.18977765  1
  O  O49  1  0.02368050  0.20445916  0.19588107  1
  O  O50  1  0.17647034  0.97570801  0.19681052  1
  O  O51  1  0.85861618  0.35544570  0.63908922  1
  O  O52  1  0.50205742  0.14888312  0.64015295  1
  O  O53  1  0.65161278  0.50783829  0.63857983  1
  O  O54  1  0.86939433  0.51276411  0.14304485  1
  O  O55  1  0.64293504  0.12927700  0.13700179  1
  O  O56  1  0.49066252  0.35733075  0.13604310  1
  O  O57  1  0.47249186  0.31076201  0.02691667  1
  O  O58  1  0.82934313  0.51659137  0.02796881  1
  O  O59  1  0.68058322  0.15690518  0.02749455  1
  O  O60  1  0.48230335  0.16711841  0.52707285  1
  O  O61  1  0.68607932  0.52781110  0.52924100  1
  O  O62  1  0.83723722  0.31617804  0.52989567  1
  O  O63  1  0.55077469  0.70193425  0.97746725  1
  O  O64  1  0.15624523  0.45702065  0.97291282  1
  O  O65  1  0.29974777  0.84868754  0.96948446  1
  O  O66  1  0.55075173  0.84609054  0.47748701  1
  O  O67  1  0.30066468  0.45179389  0.47161001  1
  O  O68  1  0.16078246  0.69805164  0.47133813  1
  O  O69  1  0.11351063  0.62945192  0.35568160  1
  O  O70  1  0.50850071  0.87530279  0.36250743  1
  O  O71  1  0.36626735  0.48414720  0.36336694  1
  O  O72  1  0.13714541  0.50035175  0.85983779  1
  O  O73  1  0.36099156  0.86878296  0.86172674  1
  O  O74  1  0.49872341  0.64232781  0.86230144  1
  O  O75  1  0.02141837  0.84051398  0.40729828  1
  O  O76  1  0.82215346  0.99011888  0.40687525  1
  O  O77  1  0.17502753  0.18958851  0.40744557  1
  O  O78  1  0.02342877  0.18298616  0.90537644  1
  O  O79  1  0.17561897  0.98310542  0.90506493  1
  O  O80  1  0.81722057  0.83216350  0.90596426  1
  O  O81  1  0.95431522  0.16551953  0.58743975  1
  O  O82  1  0.19034249  0.03335350  0.58535860  1
  O  O83  1  0.82439939  0.79988442  0.58728163  1
  O  O84  1  0.96269985  0.80747864  0.08446334  1
  O  O85  1  0.83128113  0.03157826  0.08457024  1
  O  O86  1  0.20123369  0.17331348  0.08534823  1
  O  O87  1  0.68761531  0.17078959  0.74260015  1
  O  O88  1  0.47181538  0.31142161  0.74254201  1
  O  O89  1  0.82675745  0.51844351  0.74231646  1
  O  O90  1  0.70291467  0.52505787  0.24845875  1
  O  O91  1  0.83583893  0.30291547  0.24835581  1
  O  O92  1  0.46640756  0.15968931  0.24757640  1
  O  O93  1  0.64009600  0.49098790  0.92386137  1
  O  O94  1  0.84883000  0.34898774  0.92453098  1
  O  O95  1  0.49612449  0.13829119  0.92310886  1
  O  O96  1  0.65222712  0.15516380  0.42695870  1
  O  O97  1  0.49383393  0.35122585  0.42586179  1
  O  O98  1  0.84530735  0.50338588  0.42742041  1
  O  O99  1  0.37321933  0.50112243  0.07671568  1
  O  O100  1  0.14989001  0.64607983  0.07930698  1
  O  O101  1  0.51132467  0.86154785  0.07729765  1
  O  O102  1  0.37344626  0.86297567  0.58086442  1
  O  O103  1  0.50256309  0.63319190  0.58057646  1
  O  O104  1  0.12859798  0.49424017  0.57988270  1
  O  O105  1  0.29433485  0.83217685  0.25632666  1
  O  O106  1  0.51594394  0.68736669  0.25416461  1
  O  O107  1  0.15598853  0.47272543  0.25564180  1
  O  O108  1  0.31360395  0.47301337  0.76034852  1
  O  O109  1  0.16858888  0.68242079  0.76069800  1
  O  O110  1  0.51741956  0.83085449  0.76120011  1
