# generated using pymatgen
data_Na6La5Ta3(PO4)12
_symmetry_space_group_name_H-M   'P 1'
_cell_length_a   18.60100451
_cell_length_b   9.30058144
_cell_length_c   23.66104986
_cell_angle_alpha   90.06220097
_cell_angle_beta   89.92302723
_cell_angle_gamma   119.95062087
_symmetry_Int_Tables_number   1
_chemical_formula_structural   Na6La5Ta3(PO4)12
_chemical_formula_sum   'Na18 La15 Ta9 P36 O144'
_cell_volume   3546.71734575
_cell_formula_units_Z   3
loop_
 _symmetry_equiv_pos_site_id
 _symmetry_equiv_pos_as_xyz
  1  'x, y, z'
loop_
 _atom_site_type_symbol
 _atom_site_label
 _atom_site_symmetry_multiplicity
 _atom_site_fract_x
 _atom_site_fract_y
 _atom_site_fract_z
 _atom_site_occupancy
  Na  Na0  1  0.67892480  0.37010324  0.25146696  1
  Na  Na1  1  0.00455342  0.63879607  0.25244972  1
  Na  Na2  1  0.00224413  0.37120909  0.74936952  1
  Na  Na3  1  0.50235883  0.37129489  0.74963078  1
  Na  Na4  1  0.18125523  0.99144345  0.74880562  1
  Na  Na5  1  0.68130417  0.99161277  0.74910381  1
  Na  Na6  1  0.00055738  0.99991194  0.50208759  1
  Na  Na7  1  0.50007823  0.00051809  0.50249263  1
  Na  Na8  1  0.99801492  0.99479350  0.00271767  1
  Na  Na9  1  0.50296166  0.00704512  0.00138960  1
  Na  Na10  1  0.33357838  0.34460902  0.83370302  1
  Na  Na11  1  0.83311603  0.34420090  0.83462548  1
  Na  Na12  1  0.33283176  0.33263123  0.33474039  1
  Na  Na13  1  0.83320666  0.32121436  0.33488449  1
  Na  Na14  1  0.17238432  0.66333264  0.16661919  1
  Na  Na15  1  0.66789400  0.68464907  0.16635407  1
  Na  Na16  1  0.17412225  0.66713417  0.66016830  1
  Na  Na17  1  0.67403203  0.66688396  0.66073962  1
  La  La18  1  0.99713870  0.99430442  0.64302066  1
  La  La19  1  0.49727390  0.99416838  0.64301014  1
  La  La20  1  0.99727421  0.00154443  0.14523862  1
  La  La21  1  0.50039391  0.99988699  0.14410000  1
  La  La22  1  0.33293782  0.34560759  0.67661578  1
  La  La23  1  0.83308952  0.34566476  0.67670188  1
  La  La24  1  0.83288555  0.31801213  0.18039354  1
  La  La25  1  0.33289118  0.33053521  0.97938225  1
  La  La26  1  0.83365876  0.33262326  0.98157563  1
  La  La27  1  0.33301039  0.33175402  0.48115988  1
  La  La28  1  0.83350209  0.33367561  0.47979537  1
  La  La29  1  0.17413232  0.67037174  0.31563279  1
  La  La30  1  0.66527888  0.67424408  0.31736068  1
  La  La31  1  0.17189837  0.66601650  0.82093232  1
  La  La32  1  0.67210871  0.66702474  0.82131269  1
  Ta  Ta33  1  0.00290350  0.00679322  0.35453538  1
  Ta  Ta34  1  0.49554846  0.99392847  0.35375059  1
  Ta  Ta35  1  0.99803865  0.99674715  0.85738880  1
  Ta  Ta36  1  0.49843840  0.99681380  0.85649602  1
  Ta  Ta37  1  0.33365665  0.33486254  0.18418938  1
  Ta  Ta38  1  0.16964478  0.67117040  0.01707423  1
  Ta  Ta39  1  0.66306801  0.66085709  0.01481286  1
  Ta  Ta40  1  0.16539298  0.66652085  0.51234122  1
  Ta  Ta41  1  0.66590156  0.66776229  0.51203704  1
  P  P42  1  0.15007898  0.01913883  0.25037603  1
  P  P43  1  0.64488882  0.01248063  0.25475667  1
  P  P44  1  0.35968585  0.69560953  0.24986502  1
  P  P45  1  0.85890598  0.70653363  0.25554749  1
  P  P46  1  0.99560337  0.28717332  0.25551012  1
  P  P47  1  0.48938594  0.27896549  0.25112187  1
  P  P48  1  0.14203938  0.27690640  0.75563976  1
  P  P49  1  0.64232520  0.27774435  0.75537748  1
  P  P50  1  0.99695549  0.70931075  0.75668085  1
  P  P51  1  0.49705124  0.70873007  0.75645604  1
  P  P52  1  0.35832750  0.01063529  0.75560789  1
  P  P53  1  0.85842130  0.01042705  0.75574246  1
  P  P54  1  0.49493737  0.35233280  0.58060053  1
  P  P55  1  0.99434717  0.35221580  0.58057288  1
  P  P56  1  0.18131276  0.01092523  0.58100806  1
  P  P57  1  0.68193497  0.01214846  0.58060060  1
  P  P58  1  0.32352964  0.63821089  0.57712864  1
  P  P59  1  0.82354095  0.63778943  0.57700713  1
  P  P60  1  0.48462692  0.61248002  0.08323125  1
  P  P61  1  0.99405226  0.63761804  0.08081276  1
  P  P62  1  0.32190871  0.03051958  0.08383057  1
  P  P63  1  0.82366675  0.00837527  0.07708736  1
  P  P64  1  0.19378783  0.35889499  0.08395540  1
  P  P65  1  0.68088525  0.34824487  0.08036624  1
  P  P66  1  0.32228133  0.68830654  0.91913166  1
  P  P67  1  0.82047557  0.68559743  0.91895298  1
  P  P68  1  0.02508663  0.36249966  0.91700380  1
  P  P69  1  0.52239123  0.35861829  0.91441162  1
  P  P70  1  0.15615125  0.95130638  0.91606692  1
  P  P71  1  0.65606136  0.95321529  0.91583895  1
  P  P72  1  0.31973996  0.95423540  0.41658139  1
  P  P73  1  0.82147106  0.95392962  0.41589497  1
  P  P74  1  0.15699508  0.36025513  0.41656859  1
  P  P75  1  0.65545457  0.35885142  0.41283396  1
  P  P76  1  0.02446520  0.68685813  0.41269528  1
  P  P77  1  0.52159811  0.68701436  0.41627154  1
  O  O78  1  0.10288867  0.03736382  0.30440602  1
  O  O79  1  0.58702354  0.01338666  0.30582506  1
  O  O80  1  0.41381864  0.79143460  0.30437525  1
  O  O81  1  0.91763529  0.82222444  0.30643726  1
  O  O82  1  0.47826816  0.15948852  0.30385611  1
  O  O83  1  0.99683935  0.17699599  0.30765912  1
  O  O84  1  0.08818121  0.16577177  0.80858071  1
  O  O85  1  0.58833055  0.16607521  0.80817175  1
  O  O86  1  0.49425569  0.81539840  0.80925967  1
  O  O87  1  0.99420900  0.81601335  0.80955765  1
  O  O88  1  0.41227876  0.00650267  0.80850843  1
  O  O89  1  0.91236796  0.00668784  0.80881580  1
  O  O90  1  0.39840195  0.99677671  0.70172883  1
  O  O91  1  0.89843540  0.99640608  0.70190495  1
  O  O92  1  0.09503780  0.19701081  0.70165310  1
  O  O93  1  0.59507862  0.19744721  0.70151811  1
  O  O94  1  0.00651478  0.80659837  0.70304145  1
  O  O95  1  0.50657033  0.80623267  0.70288937  1
  O  O96  1  0.39786296  0.79824756  0.19769327  1
  O  O97  1  0.89711205  0.79826864  0.20078165  1
  O  O98  1  0.00091933  0.20702585  0.20098604  1
  O  O99  1  0.50677087  0.20835360  0.19861523  1
  O  O100  1  0.09614069  0.98624878  0.19864412  1
  O  O101  1  0.60168876  0.00538877  0.19968858  1
  O  O102  1  0.46391734  0.38302724  0.63869319  1
  O  O103  1  0.96341635  0.38244571  0.63881323  1
  O  O104  1  0.22703636  0.07383956  0.63916769  1
  O  O105  1  0.72728396  0.07439141  0.63892956  1
  O  O106  1  0.30844089  0.54220532  0.63405686  1
  O  O107  1  0.80842211  0.54205992  0.63397002  1
  O  O108  1  0.43282104  0.49331277  0.13644343  1
  O  O109  1  0.96337566  0.54430374  0.13812339  1
  O  O110  1  0.31348606  0.13348998  0.13645607  1
  O  O111  1  0.80836529  0.07422244  0.13352506  1
  O  O112  1  0.25405736  0.37460011  0.13685685  1
  O  O113  1  0.72604269  0.37820343  0.13813068  1
  O  O114  1  0.22898928  0.32831487  0.03124614  1
  O  O115  1  0.72877959  0.32558801  0.03290050  1
  O  O116  1  0.43420474  0.53999165  0.03072505  1
  O  O117  1  0.93561551  0.54442908  0.03284989  1
  O  O118  1  0.33658202  0.12961776  0.03080442  1
  O  O119  1  0.83682521  0.12294024  0.02825753  1
  O  O120  1  0.22921549  0.13209789  0.53421365  1
  O  O121  1  0.72996281  0.13332208  0.53386057  1
  O  O122  1  0.33702415  0.54780401  0.52909705  1
  O  O123  1  0.83721208  0.54752046  0.52899343  1
  O  O124  1  0.43443979  0.32703708  0.53381707  1
  O  O125  1  0.93384752  0.32719639  0.53381063  1
  O  O126  1  0.26961263  0.70524927  0.96938637  1
  O  O127  1  0.76462908  0.69902656  0.96736110  1
  O  O128  1  0.08879398  0.47162132  0.96625387  1
  O  O129  1  0.58356755  0.46802445  0.96385977  1
  O  O130  1  0.15205962  0.82913771  0.96550796  1
  O  O131  1  0.64682052  0.82750595  0.96507469  1
  O  O132  1  0.26766649  0.83297204  0.46653650  1
  O  O133  1  0.76835208  0.83281480  0.46624247  1
  O  O134  1  0.14873503  0.46490041  0.46696807  1
  O  O135  1  0.64737926  0.46696605  0.46239491  1
  O  O136  1  0.08566418  0.70262611  0.46290025  1
  O  O137  1  0.58309678  0.70551251  0.46641485  1
  O  O138  1  0.05737063  0.66118473  0.35687303  1
  O  O139  1  0.55550863  0.65865798  0.36203744  1
  O  O140  1  0.27253507  0.89032985  0.36178944  1
  O  O141  1  0.77373373  0.88422223  0.36159515  1
  O  O142  1  0.16877477  0.45473655  0.36223358  1
  O  O143  1  0.66888567  0.44857395  0.35667071  1
  O  O144  1  0.05580176  0.45009582  0.86018721  1
  O  O145  1  0.55415304  0.44689432  0.85787184  1
  O  O146  1  0.16767033  0.88778984  0.85923088  1
  O  O147  1  0.66798999  0.88979408  0.85907022  1
  O  O148  1  0.27597948  0.66006475  0.86381020  1
  O  O149  1  0.77629497  0.65803644  0.86263583  1
  O  O150  1  0.02291075  0.85644543  0.40749807  1
  O  O151  1  0.51863478  0.85499885  0.40949662  1
  O  O152  1  0.40495666  0.95396505  0.40926694  1
  O  O153  1  0.90882726  0.96118148  0.40959385  1
  O  O154  1  0.07318026  0.18637046  0.41123338  1
  O  O155  1  0.57040638  0.18474955  0.40635515  1
  O  O156  1  0.02125080  0.18751897  0.91208383  1
  O  O157  1  0.52063855  0.18626467  0.91121973  1
  O  O158  1  0.07175397  0.95571770  0.91279214  1
  O  O159  1  0.57220650  0.95978519  0.91175963  1
  O  O160  1  0.40763304  0.85730280  0.91353582  1
  O  O161  1  0.90624468  0.85552614  0.91369910  1
  O  O162  1  0.51249275  0.20802677  0.58203446  1
  O  O163  1  0.01237590  0.20855516  0.58201488  1
  O  O164  1  0.09164624  0.97592100  0.58197148  1
  O  O165  1  0.59207747  0.97652687  0.58165445  1
  O  O166  1  0.39559649  0.81713258  0.57983129  1
  O  O167  1  0.89538068  0.81680388  0.57986583  1
  O  O168  1  0.50201598  0.78881987  0.09224508  1
  O  O169  1  0.01420492  0.81859317  0.08167089  1
  O  O170  1  0.39147183  0.99280683  0.09324759  1
  O  O171  1  0.89526040  0.97153040  0.07911846  1
  O  O172  1  0.10554404  0.22003221  0.09431972  1
  O  O173  1  0.59081997  0.20447713  0.07952668  1
  O  O174  1  0.35920122  0.17897242  0.75842241  1
  O  O175  1  0.85929306  0.17884388  0.75849406  1
  O  O176  1  0.22618580  0.27998351  0.75751029  1
  O  O177  1  0.72623285  0.28010057  0.75736998  1
  O  O178  1  0.41894186  0.53430781  0.75735116  1
  O  O179  1  0.91888595  0.53455598  0.75744662  1
  O  O180  1  0.35584003  0.51958360  0.24057600  1
  O  O181  1  0.86047563  0.54060011  0.25808388  1
  O  O182  1  0.40825217  0.29272793  0.24115974  1
  O  O183  1  0.91436201  0.29595859  0.25874128  1
  O  O184  1  0.23817302  0.18262034  0.24036598  1
  O  O185  1  0.72738549  0.18173428  0.25903331  1
  O  O186  1  0.34012651  0.54808280  0.92634076  1
  O  O187  1  0.83926089  0.54659501  0.92684405  1
  O  O188  1  0.43485158  0.32460081  0.92312564  1
  O  O189  1  0.93777347  0.33035954  0.92599524  1
  O  O190  1  0.22658795  0.12676933  0.92433428  1
  O  O191  1  0.72722654  0.12818455  0.92458836  1
  O  O192  1  0.34012157  0.13204011  0.42509866  1
  O  O193  1  0.83853239  0.12997440  0.42424682  1
  O  O194  1  0.22735005  0.32405608  0.42422545  1
  O  O195  1  0.72536051  0.32282201  0.42336459  1
  O  O196  1  0.43362351  0.54614390  0.42497047  1
  O  O197  1  0.93683597  0.54620734  0.42284222  1
  O  O198  1  0.19083906  0.52709338  0.07513292  1
  O  O199  1  0.67639462  0.51172924  0.06522203  1
  O  O200  1  0.07988024  0.64056405  0.06567743  1
  O  O201  1  0.57181839  0.62161493  0.07490594  1
  O  O202  1  0.23876742  0.85635037  0.07442365  1
  O  O203  1  0.73959896  0.83722973  0.06519833  1
  O  O204  1  0.17694252  0.83970233  0.56652531  1
  O  O205  1  0.67773407  0.84047932  0.56629431  1
  O  O206  1  0.24180278  0.64633755  0.56564049  1
  O  O207  1  0.74158378  0.64502089  0.56508843  1
  O  O208  1  0.07973209  0.51599859  0.56634422  1
  O  O209  1  0.58053595  0.51500646  0.56593498  1
  O  O210  1  0.16224779  0.86832922  0.25735288  1
  O  O211  1  0.65872297  0.86432631  0.25671292  1
  O  O212  1  0.27005933  0.65671849  0.25556239  1
  O  O213  1  0.76811300  0.66725358  0.25816004  1
  O  O214  1  0.06919057  0.46721435  0.25690018  1
  O  O215  1  0.56519507  0.45207889  0.25977887  1
  O  O216  1  0.14960080  0.44950999  0.75827429  1
  O  O217  1  0.64993645  0.45025528  0.75815984  1
  O  O218  1  0.07550714  0.69066241  0.75977485  1
  O  O219  1  0.57564706  0.69044003  0.75959703  1
  O  O220  1  0.26738408  0.86784980  0.75708197  1
  O  O221  1  0.76738006  0.86753898  0.75710353  1
