# generated using pymatgen
data_Na12Ta2Zn4Si3(PO6)6
_symmetry_space_group_name_H-M   'P 1'
_cell_length_a   9.11584322
_cell_length_b   9.11584290
_cell_length_c   22.06731187
_cell_angle_alpha   90.00000000
_cell_angle_beta   90.00000000
_cell_angle_gamma   120.00000115
_symmetry_Int_Tables_number   1
_chemical_formula_structural   Na12Ta2Zn4Si3(PO6)6
_chemical_formula_sum   'Na24 Ta4 Zn8 Si6 P12 O72'
_cell_volume   1588.08498275
_cell_formula_units_Z   2
loop_
 _symmetry_equiv_pos_site_id
 _symmetry_equiv_pos_as_xyz
  1  'x, y, z'
loop_
 _atom_site_type_symbol
 _atom_site_label
 _atom_site_symmetry_multiplicity
 _atom_site_fract_x
 _atom_site_fract_y
 _atom_site_fract_z
 _atom_site_occupancy
  Na  Na0  1  0.64789652  0.01350701  0.24392296  1
  Na  Na1  1  0.36561049  0.35210348  0.24392296  1
  Na  Na2  1  0.98649299  0.63438951  0.24392296  1
  Na  Na3  1  0.64789652  0.63438951  0.74392296  1
  Na  Na4  1  0.98649299  0.35210348  0.74392296  1
  Na  Na5  1  0.36561049  0.01350701  0.74392296  1
  Na  Na6  1  0.29112754  0.33731523  0.58119995  1
  Na  Na7  1  0.04618869  0.70887246  0.58119995  1
  Na  Na8  1  0.66268477  0.95381131  0.58119995  1
  Na  Na9  1  0.29112754  0.95381131  0.08119995  1
  Na  Na10  1  0.66268477  0.70887246  0.08119995  1
  Na  Na11  1  0.04618869  0.33731523  0.08119995  1
  Na  Na12  1  0.97876746  0.69035665  0.91422223  1
  Na  Na13  1  0.71158819  0.02123254  0.91422223  1
  Na  Na14  1  0.30964335  0.28841181  0.91422223  1
  Na  Na15  1  0.97876746  0.28841181  0.41422223  1
  Na  Na16  1  0.30964335  0.02123254  0.41422223  1
  Na  Na17  1  0.71158819  0.69035665  0.41422223  1
  Na  Na18  1  0.00000000  0.00000000  0.49629335  1
  Na  Na19  1  0.00000000  0.00000000  0.99629335  1
  Na  Na20  1  0.66666700  0.33333300  0.82696059  1
  Na  Na21  1  0.66666700  0.33333300  0.32696059  1
  Na  Na22  1  0.33333300  0.66666700  0.15821736  1
  Na  Na23  1  0.33333300  0.66666700  0.65821736  1
  Ta  Ta24  1  0.66666700  0.33333300  0.97917014  1
  Ta  Ta25  1  0.66666700  0.33333300  0.47917014  1
  Ta  Ta26  1  0.33333300  0.66666700  0.31717324  1
  Ta  Ta27  1  0.33333300  0.66666700  0.81717324  1
  Zn  Zn28  1  0.00000000  0.00000000  0.35067022  1
  Zn  Zn29  1  0.00000000  0.00000000  0.85067022  1
  Zn  Zn30  1  0.00000000  0.00000000  0.65212441  1
  Zn  Zn31  1  0.00000000  0.00000000  0.15212441  1
  Zn  Zn32  1  0.66666700  0.33333300  0.67964626  1
  Zn  Zn33  1  0.66666700  0.33333300  0.17964626  1
  Zn  Zn34  1  0.33333300  0.66666700  0.01048444  1
  Zn  Zn35  1  0.33333300  0.66666700  0.51048444  1
  Si  Si36  1  0.62882748  0.66805943  0.92049899  1
  Si  Si37  1  0.03923095  0.37117252  0.92049899  1
  Si  Si38  1  0.33194057  0.96076905  0.92049899  1
  Si  Si39  1  0.62882748  0.96076905  0.42049899  1
  Si  Si40  1  0.33194057  0.37117252  0.42049899  1
  Si  Si41  1  0.03923095  0.66805943  0.42049899  1
  P  P42  1  0.29549270  0.99616237  0.25012132  1
  P  P43  1  0.70066966  0.70450730  0.25012132  1
  P  P44  1  0.00383763  0.29933034  0.25012132  1
  P  P45  1  0.29549270  0.29933034  0.75012132  1
  P  P46  1  0.00383763  0.70450730  0.75012132  1
  P  P47  1  0.70066966  0.99616237  0.75012132  1
  P  P48  1  0.95928698  0.33231116  0.58578352  1
  P  P49  1  0.37302518  0.04071302  0.58578352  1
  P  P50  1  0.66768884  0.62697482  0.58578352  1
  P  P51  1  0.95928698  0.62697482  0.08578352  1
  P  P52  1  0.66768884  0.04071302  0.08578352  1
  P  P53  1  0.37302518  0.33231116  0.08578352  1
  O  O54  1  0.21417977  0.02130759  0.30683860  1
  O  O55  1  0.80712781  0.78582023  0.30683860  1
  O  O56  1  0.97869241  0.19287219  0.30683860  1
  O  O57  1  0.21417977  0.19287219  0.80683860  1
  O  O58  1  0.97869241  0.78582023  0.80683860  1
  O  O59  1  0.80712781  0.02130759  0.80683860  1
  O  O60  1  0.77508384  0.96122384  0.69244188  1
  O  O61  1  0.18614000  0.22491616  0.69244188  1
  O  O62  1  0.03877616  0.81386000  0.69244188  1
  O  O63  1  0.77508384  0.81386000  0.19244188  1
  O  O64  1  0.03877616  0.22491616  0.19244188  1
  O  O65  1  0.18614000  0.96122384  0.19244188  1
  O  O66  1  0.87621973  0.35246552  0.64318425  1
  O  O67  1  0.47624680  0.12378027  0.64318425  1
  O  O68  1  0.64753448  0.52375320  0.64318425  1
  O  O69  1  0.87621973  0.52375320  0.14318425  1
  O  O70  1  0.64753448  0.12378027  0.14318425  1
  O  O71  1  0.47624680  0.35246552  0.14318425  1
  O  O72  1  0.47662619  0.31857940  0.02908850  1
  O  O73  1  0.84195421  0.52337381  0.02908850  1
  O  O74  1  0.68142060  0.15804579  0.02908850  1
  O  O75  1  0.47662619  0.15804579  0.52908850  1
  O  O76  1  0.68142060  0.52337381  0.52908850  1
  O  O77  1  0.84195421  0.31857940  0.52908850  1
  O  O78  1  0.55154306  0.70243637  0.97997466  1
  O  O79  1  0.15089231  0.44845694  0.97997466  1
  O  O80  1  0.29756363  0.84910769  0.97997466  1
  O  O81  1  0.55154306  0.84910769  0.47997466  1
  O  O82  1  0.29756363  0.44845694  0.47997466  1
  O  O83  1  0.15089231  0.70243637  0.47997466  1
  O  O84  1  0.13584589  0.63338446  0.36103037  1
  O  O85  1  0.49753757  0.86415411  0.36103037  1
  O  O86  1  0.36661554  0.50246243  0.36103037  1
  O  O87  1  0.13584589  0.50246243  0.86103037  1
  O  O88  1  0.36661554  0.86415411  0.86103037  1
  O  O89  1  0.49753757  0.63338446  0.86103037  1
  O  O90  1  0.00616952  0.82310251  0.41024009  1
  O  O91  1  0.81693299  0.99383048  0.41024009  1
  O  O92  1  0.17689749  0.18306701  0.41024009  1
  O  O93  1  0.00616952  0.18306701  0.91024009  1
  O  O94  1  0.17689749  0.99383048  0.91024009  1
  O  O95  1  0.81693299  0.82310251  0.91024009  1
  O  O96  1  0.96618509  0.16606642  0.58344937  1
  O  O97  1  0.19988133  0.03381491  0.58344937  1
  O  O98  1  0.83393358  0.80011867  0.58344937  1
  O  O99  1  0.96618509  0.80011867  0.08344937  1
  O  O100  1  0.83393358  0.03381491  0.08344937  1
  O  O101  1  0.19988133  0.16606642  0.08344937  1
  O  O102  1  0.67232808  0.15025867  0.74628411  1
  O  O103  1  0.47793159  0.32767192  0.74628411  1
  O  O104  1  0.84974133  0.52206841  0.74628411  1
  O  O105  1  0.67232808  0.52206841  0.24628411  1
  O  O106  1  0.84974133  0.32767192  0.24628411  1
  O  O107  1  0.47793159  0.15025867  0.24628411  1
  O  O108  1  0.63391832  0.48628036  0.92342753  1
  O  O109  1  0.85236304  0.36608168  0.92342753  1
  O  O110  1  0.51371964  0.14763696  0.92342753  1
  O  O111  1  0.63391832  0.14763696  0.42342753  1
  O  O112  1  0.51371964  0.36608168  0.42342753  1
  O  O113  1  0.85236304  0.48628036  0.42342753  1
  O  O114  1  0.35547565  0.49129346  0.08164995  1
  O  O115  1  0.13581680  0.64452435  0.08164995  1
  O  O116  1  0.50870654  0.86418320  0.08164995  1
  O  O117  1  0.35547565  0.86418320  0.58164995  1
  O  O118  1  0.50870654  0.64452435  0.58164995  1
  O  O119  1  0.13581680  0.49129346  0.58164995  1
  O  O120  1  0.31192167  0.82942572  0.25639506  1
  O  O121  1  0.51750305  0.68807833  0.25639506  1
  O  O122  1  0.17057428  0.48249695  0.25639506  1
  O  O123  1  0.31192167  0.48249695  0.75639506  1
  O  O124  1  0.17057428  0.68807833  0.75639506  1
  O  O125  1  0.51750305  0.82942572  0.75639506  1
