# generated using pymatgen
data_Na2Y2Sc2SiS5O24
_symmetry_space_group_name_H-M   'P 1'
_cell_length_a   9.01900171
_cell_length_b   9.00665008
_cell_length_c   23.91195491
_cell_angle_alpha   89.97225349
_cell_angle_beta   90.01592647
_cell_angle_gamma   119.96325879
_symmetry_Int_Tables_number   1
_chemical_formula_structural   Na2Y2Sc2SiS5O24
_chemical_formula_sum   'Na6 Y6 Sc6 Si3 S15 O72'
_cell_volume   1682.78290876
_cell_formula_units_Z   3
loop_
 _symmetry_equiv_pos_site_id
 _symmetry_equiv_pos_as_xyz
  1  'x, y, z'
loop_
 _atom_site_type_symbol
 _atom_site_label
 _atom_site_symmetry_multiplicity
 _atom_site_fract_x
 _atom_site_fract_y
 _atom_site_fract_z
 _atom_site_occupancy
  Na  Na0  1  0.98457340  0.98039588  0.50786944  1
  Na  Na1  1  0.99972790  0.99973227  0.99808652  1
  Na  Na2  1  0.66837356  0.32093336  0.82513624  1
  Na  Na3  1  0.65062272  0.32025289  0.33298935  1
  Na  Na4  1  0.33149652  0.67720257  0.17335899  1
  Na  Na5  1  0.37544873  0.68194781  0.66543270  1
  Y  Y6  1  0.01028616  0.00206473  0.34801786  1
  Y  Y7  1  0.98119374  0.98781534  0.64858027  1
  Y  Y8  1  0.66564452  0.33239166  0.68624865  1
  Y  Y9  1  0.66735811  0.34247624  0.48188935  1
  Y  Y10  1  0.34526903  0.66707281  0.52072450  1
  Y  Y11  1  0.34207678  0.67338129  0.81503823  1
  Sc  Sc12  1  0.98842323  0.00244742  0.84820177  1
  Sc  Sc13  1  0.01140109  0.99547170  0.15191138  1
  Sc  Sc14  1  0.65844556  0.32423285  0.18550337  1
  Sc  Sc15  1  0.66714942  0.33233246  0.98435051  1
  Sc  Sc16  1  0.33316434  0.66743886  0.01813483  1
  Sc  Sc17  1  0.33250224  0.67773873  0.31164113  1
  Si  Si18  1  0.30040718  0.99795177  0.24797206  1
  Si  Si19  1  0.70414921  0.00863382  0.75246036  1
  Si  Si20  1  0.66932183  0.63354660  0.58428879  1
  S  S21  1  0.70325482  0.70261687  0.24667201  1
  S  S22  1  0.00059525  0.29645949  0.24649598  1
  S  S23  1  0.28994080  0.28725415  0.75315004  1
  S  S24  1  0.99768514  0.70842950  0.75430586  1
  S  S25  1  0.96393383  0.33369128  0.58227343  1
  S  S26  1  0.36792266  0.03782907  0.58257185  1
  S  S27  1  0.95817026  0.62400710  0.08237656  1
  S  S28  1  0.66605517  0.04084006  0.08226955  1
  S  S29  1  0.37572196  0.33488335  0.08243476  1
  S  S30  1  0.63009843  0.66497518  0.92169168  1
  S  S31  1  0.03675351  0.37036394  0.92140622  1
  S  S32  1  0.33373176  0.96437512  0.92173730  1
  S  S33  1  0.62523187  0.96040108  0.41220342  1
  S  S34  1  0.33369415  0.37750562  0.41204549  1
  S  S35  1  0.04112036  0.66243070  0.41339993  1
  O  O36  1  0.22204508  0.03490153  0.30316809  1
  O  O37  1  0.80416876  0.77695650  0.29793667  1
  O  O38  1  0.96510396  0.19304494  0.29781330  1
  O  O39  1  0.19970222  0.18292476  0.80387847  1
  O  O40  1  0.98931914  0.80268614  0.80464661  1
  O  O41  1  0.81716454  0.01319593  0.80930798  1
  O  O42  1  0.79145903  0.98803761  0.69675186  1
  O  O43  1  0.19850721  0.20801104  0.70135354  1
  O  O44  1  0.02546588  0.80680412  0.70272081  1
  O  O45  1  0.78829167  0.81520612  0.19725681  1
  O  O46  1  0.02191467  0.20684996  0.19731784  1
  O  O47  1  0.17531785  0.97150402  0.19318780  1
  O  O48  1  0.87810761  0.34451682  0.63312358  1
  O  O49  1  0.47143462  0.11628690  0.63318880  1
  O  O50  1  0.65650565  0.52545921  0.64001494  1
  O  O51  1  0.88017687  0.52013327  0.13272621  1
  O  O52  1  0.64017978  0.12076821  0.13253818  1
  O  O53  1  0.48126511  0.36125127  0.13272475  1
  O  O54  1  0.45941062  0.31073070  0.03228134  1
  O  O55  1  0.85135184  0.53905292  0.03200605  1
  O  O56  1  0.68719882  0.14841353  0.03207930  1
  O  O57  1  0.45670184  0.13357557  0.53109003  1
  O  O58  1  0.67647664  0.53845799  0.52617280  1
  O  O59  1  0.86039614  0.31087030  0.53116931  1
  O  O60  1  0.53892497  0.68699729  0.97068111  1
  O  O61  1  0.14879894  0.46322920  0.97061467  1
  O  O62  1  0.31499161  0.85200510  0.97093072  1
  O  O63  1  0.54475546  0.86605723  0.46390355  1
  O  O64  1  0.32104764  0.45803237  0.46395265  1
  O  O65  1  0.13604364  0.67844419  0.46490047  1
  O  O66  1  0.13564722  0.65588846  0.36299291  1
  O  O67  1  0.52004252  0.86530863  0.36234701  1
  O  O68  1  0.34425435  0.47999221  0.36207832  1
  O  O69  1  0.10716161  0.47087539  0.87020676  1
  O  O70  1  0.36331179  0.89240648  0.87065383  1
  O  O71  1  0.52845851  0.63386013  0.87062229  1
  O  O72  1  0.01687629  0.81414414  0.40970905  1
  O  O73  1  0.79678515  0.97718343  0.40793688  1
  O  O74  1  0.17641246  0.20544295  0.41000293  1
  O  O75  1  0.02217286  0.19917835  0.91771531  1
  O  O76  1  0.18028218  0.98180402  0.91795447  1
  O  O77  1  0.80223699  0.81861764  0.91712348  1
  O  O78  1  0.99486874  0.18743701  0.58461351  1
  O  O79  1  0.20195122  0.03129315  0.58574368  1
  O  O80  1  0.84012031  0.82180666  0.58158164  1
  O  O81  1  0.97464246  0.79693273  0.08741581  1
  O  O82  1  0.81911919  0.02214467  0.08776181  1
  O  O83  1  0.20232266  0.18143393  0.08847361  1
  O  O84  1  0.68915590  0.17976581  0.75344377  1
  O  O85  1  0.46327570  0.30945350  0.75312396  1
  O  O86  1  0.83905416  0.54097971  0.75251190  1
  O  O87  1  0.68886693  0.53215461  0.23794974  1
  O  O88  1  0.85248992  0.32330153  0.23714791  1
  O  O89  1  0.49126464  0.16644219  0.23660588  1
  O  O90  1  0.64840317  0.51054828  0.93124537  1
  O  O91  1  0.86309424  0.34956028  0.93104775  1
  O  O92  1  0.48908479  0.13709877  0.93085925  1
  O  O93  1  0.63948390  0.13137281  0.41298247  1
  O  O94  1  0.48672634  0.35588404  0.41317507  1
  O  O95  1  0.87100522  0.50385178  0.41326047  1
  O  O96  1  0.35772997  0.49027417  0.07455193  1
  O  O97  1  0.13256654  0.64474732  0.07433777  1
  O  O98  1  0.50960360  0.86781049  0.07466825  1
  O  O99  1  0.34086301  0.86138520  0.57895060  1
  O  O100  1  0.49798960  0.65422495  0.58329597  1
  O  O101  1  0.13019851  0.49515409  0.57815440  1
  O  O102  1  0.31840083  0.82563500  0.25454508  1
  O  O103  1  0.52959379  0.68056142  0.25269826  1
  O  O104  1  0.15843533  0.46574232  0.25302512  1
  O  O105  1  0.30177990  0.45762921  0.75842267  1
  O  O106  1  0.14588808  0.68071689  0.76043416  1
  O  O107  1  0.51520634  0.83402737  0.75632035  1
