# generated using pymatgen
data_MgV4Zn2O12
_symmetry_space_group_name_H-M   'P 1'
_cell_length_a   5.15778319
_cell_length_b   5.25644156
_cell_length_c   7.39615027
_cell_angle_alpha   90.03773787
_cell_angle_beta   89.22395200
_cell_angle_gamma   89.90690562
_symmetry_Int_Tables_number   1
_chemical_formula_structural   MgV4Zn2O12
_chemical_formula_sum   'Mg1 V4 Zn2 O12'
_cell_volume   200.50265883
_cell_formula_units_Z   1
loop_
 _symmetry_equiv_pos_site_id
 _symmetry_equiv_pos_as_xyz
  1  'x, y, z'
loop_
 _atom_site_type_symbol
 _atom_site_label
 _atom_site_symmetry_multiplicity
 _atom_site_fract_x
 _atom_site_fract_y
 _atom_site_fract_z
 _atom_site_occupancy
  Mg  Mg0  1  0.00577100  0.92888700  0.27493300  1
  V  V1  1  0.52409400  0.02762800  0.00815200  1
  V  V2  1  0.01450400  0.51662800  0.99664500  1
  V  V3  1  0.02684200  0.47906700  0.50743400  1
  V  V4  1  0.51245800  0.98601600  0.51602200  1
  Zn  Zn5  1  0.51973800  0.46644500  0.27386400  1
  Zn  Zn6  1  0.00520100  0.01813600  0.75053800  1
  O  O7  1  0.83462700  0.19777400  0.44582000  1
  O  O8  1  0.34398500  0.28992300  0.53485200  1
  O  O9  1  0.71595200  0.65777400  0.06494500  1
  O  O10  1  0.18080100  0.80150100  0.94363100  1
  O  O11  1  0.18013800  0.80364300  0.55628300  1
  O  O12  1  0.71544500  0.70370800  0.43708600  1
  O  O13  1  0.34644100  0.29312500  0.96107100  1
  O  O14  1  0.82955500  0.15930300  0.07490600  1
  O  O15  1  0.13963300  0.53146200  0.24492900  1
  O  O16  1  0.62426000  0.95421600  0.76455100  1
  O  O17  1  0.39644400  0.00238300  0.24297300  1
  O  O18  1  0.95351500  0.40744000  0.76792500  1
