# generated using pymatgen
data_Na6Ca3GeP4(SO12)2
_symmetry_space_group_name_H-M   'P 1'
_cell_length_a   9.23333450
_cell_length_b   9.24373479
_cell_length_c   22.64119551
_cell_angle_alpha   90.45823236
_cell_angle_beta   89.73057529
_cell_angle_gamma   119.95983364
_symmetry_Int_Tables_number   1
_chemical_formula_structural   Na6Ca3GeP4(SO12)2
_chemical_formula_sum   'Na18 Ca9 Ge3 P12 S6 O72'
_cell_volume   1674.16258919
_cell_formula_units_Z   3
loop_
 _symmetry_equiv_pos_site_id
 _symmetry_equiv_pos_as_xyz
  1  'x, y, z'
loop_
 _atom_site_type_symbol
 _atom_site_label
 _atom_site_symmetry_multiplicity
 _atom_site_fract_x
 _atom_site_fract_y
 _atom_site_fract_z
 _atom_site_occupancy
  Na  Na0  1  0.36220488  0.36139479  0.25674198  1
  Na  Na1  1  0.65391454  0.65738966  0.74723116  1
  Na  Na2  1  0.99765233  0.34983351  0.75472608  1
  Na  Na3  1  0.29523664  0.34756207  0.57985643  1
  Na  Na4  1  0.02781346  0.69157434  0.57873520  1
  Na  Na5  1  0.66969010  0.95539650  0.57839946  1
  Na  Na6  1  0.29249016  0.96137944  0.07459027  1
  Na  Na7  1  0.65717215  0.68794126  0.07793220  1
  Na  Na8  1  0.04743121  0.34416727  0.07703250  1
  Na  Na9  1  0.32129011  0.30005895  0.91024175  1
  Na  Na10  1  0.99018894  0.31717724  0.41547409  1
  Na  Na11  1  0.67491331  0.66616491  0.41525468  1
  Na  Na12  1  0.00763648  0.00008549  0.49432435  1
  Na  Na13  1  0.98971892  0.97930980  0.99092422  1
  Na  Na14  1  0.65392668  0.30323338  0.83303343  1
  Na  Na15  1  0.66058149  0.30946064  0.33677854  1
  Na  Na16  1  0.32328040  0.67230586  0.17321688  1
  Na  Na17  1  0.33861240  0.67336745  0.67392997  1
  Ca  Ca18  1  0.00168392  0.99304227  0.35170316  1
  Ca  Ca19  1  0.99965651  0.99777908  0.85194870  1
  Ca  Ca20  1  0.99289071  0.00725905  0.65455980  1
  Ca  Ca21  1  0.99965165  0.99264538  0.14793421  1
  Ca  Ca22  1  0.65492581  0.32456457  0.68863116  1
  Ca  Ca23  1  0.67693184  0.33765755  0.18569608  1
  Ca  Ca24  1  0.33528444  0.67008282  0.01061223  1
  Ca  Ca25  1  0.33156979  0.66987724  0.50926095  1
  Ca  Ca26  1  0.33722526  0.68203865  0.32492019  1
  Ge  Ge27  1  0.67017059  0.34733102  0.97304613  1
  Ge  Ge28  1  0.67395082  0.33971202  0.48176716  1
  Ge  Ge29  1  0.34542714  0.67213736  0.82765122  1
  P  P30  1  0.30649474  0.33000669  0.75831915  1
  P  P31  1  0.67460462  0.98041591  0.75423294  1
  P  P32  1  0.95329923  0.32986636  0.58161700  1
  P  P33  1  0.66963253  0.62421800  0.58150873  1
  P  P34  1  0.94894010  0.61988358  0.07494846  1
  P  P35  1  0.37927677  0.32872492  0.07718965  1
  P  P36  1  0.63175504  0.65400522  0.91990398  1
  P  P37  1  0.02513860  0.37887370  0.91852147  1
  P  P38  1  0.35497054  0.97756443  0.92074749  1
  P  P39  1  0.64527121  0.99176772  0.42524799  1
  P  P40  1  0.34972174  0.35648046  0.42139623  1
  P  P41  1  0.01044523  0.65405490  0.42475941  1
  S  S42  1  0.30702221  0.99772610  0.24597335  1
  S  S43  1  0.68349665  0.69146930  0.24981890  1
  S  S44  1  0.00874107  0.30979287  0.25091149  1
  S  S45  1  0.01621203  0.69750385  0.75010062  1
  S  S46  1  0.37163775  0.04564706  0.57951966  1
  S  S47  1  0.67284317  0.04655205  0.07820021  1
  O  O48  1  0.20500116  0.00384524  0.29484386  1
  O  O49  1  0.77509434  0.78489881  0.30308553  1
  O  O50  1  0.00758127  0.21490355  0.30368499  1
  O  O51  1  0.22157650  0.22073231  0.81138426  1
  O  O52  1  0.99221458  0.78655919  0.79872544  1
  O  O53  1  0.80504357  0.00596538  0.79995444  1
  O  O54  1  0.72531263  0.93583111  0.69361719  1
  O  O55  1  0.20245572  0.26110930  0.70060333  1
  O  O56  1  0.02993274  0.78158473  0.69255842  1
  O  O57  1  0.77071359  0.77708324  0.19466159  1
  O  O58  1  0.01268826  0.22257665  0.19549302  1
  O  O59  1  0.22597491  0.98991963  0.18813015  1
  O  O60  1  0.87258972  0.34010499  0.63909788  1
  O  O61  1  0.46454220  0.11996333  0.63427210  1
  O  O62  1  0.65225744  0.52929636  0.63831807  1
  O  O63  1  0.87010285  0.51572576  0.12956334  1
  O  O64  1  0.65529160  0.12075441  0.13346854  1
  O  O65  1  0.47353411  0.34087725  0.13384538  1
  O  O66  1  0.47674554  0.31346570  0.01988121  1
  O  O67  1  0.83428605  0.52555125  0.01831446  1
  O  O68  1  0.69003685  0.15024622  0.02560930  1
  O  O69  1  0.46098429  0.15017567  0.52674643  1
  O  O70  1  0.68356751  0.52373786  0.52527960  1
  O  O71  1  0.83988354  0.31645773  0.52601610  1
  O  O72  1  0.56333486  0.67186499  0.97865731  1
  O  O73  1  0.11516738  0.44704874  0.97692870  1
  O  O74  1  0.33620841  0.89694292  0.98071700  1
  O  O75  1  0.57600480  0.89151701  0.48226865  1
  O  O76  1  0.32271779  0.43796086  0.47659440  1
  O  O77  1  0.10148221  0.68052110  0.48347115  1
  O  O78  1  0.10101776  0.62073407  0.37414624  1
  O  O79  1  0.53400380  0.90456720  0.37205865  1
  O  O80  1  0.38710453  0.47122494  0.36680881  1
  O  O81  1  0.13035449  0.50263296  0.86453149  1
  O  O82  1  0.37688665  0.87051185  0.86909658  1
  O  O83  1  0.50305725  0.62716079  0.86727447  1
  O  O84  1  0.96742011  0.79263263  0.41557037  1
  O  O85  1  0.82522520  0.02282139  0.41698917  1
  O  O86  1  0.19578110  0.18346217  0.41398801  1
  O  O87  1  0.00946932  0.20834211  0.90889797  1
  O  O88  1  0.20957773  0.00710052  0.90978820  1
  O  O89  1  0.80672925  0.79523457  0.90972011  1
  O  O90  1  0.96927583  0.17000934  0.57869894  1
  O  O91  1  0.20476194  0.03369852  0.58143349  1
  O  O92  1  0.83320669  0.79622286  0.58015030  1
  O  O93  1  0.95415696  0.79060115  0.07581796  1
  O  O94  1  0.82599605  0.02992066  0.07937795  1
  O  O95  1  0.20333223  0.16883427  0.07458281  1
  O  O96  1  0.65515245  0.13531383  0.75252536  1
  O  O97  1  0.48870194  0.37008343  0.75362366  1
  O  O98  1  0.86809475  0.52399020  0.74941085  1
  O  O99  1  0.66299015  0.52092325  0.25336748  1
  O  O100  1  0.86206922  0.33188194  0.25349535  1
  O  O101  1  0.47145834  0.15540407  0.25014902  1
  O  O102  1  0.62726742  0.47768584  0.91745974  1
  O  O103  1  0.84599270  0.36416592  0.91834305  1
  O  O104  1  0.52196000  0.15841742  0.92041050  1
  O  O105  1  0.66021540  0.17074087  0.42956972  1
  O  O106  1  0.51521562  0.34472305  0.42812584  1
  O  O107  1  0.83330049  0.48347646  0.42627234  1
  O  O108  1  0.35788237  0.48456329  0.07515563  1
  O  O109  1  0.12940917  0.65110818  0.07224289  1
  O  O110  1  0.52429704  0.87455406  0.07585331  1
  O  O111  1  0.34876641  0.87481520  0.57583341  1
  O  O112  1  0.51583805  0.64788367  0.57645038  1
  O  O113  1  0.12956510  0.48608493  0.57714719  1
  O  O114  1  0.32968785  0.85095029  0.24943547  1
  O  O115  1  0.51289327  0.67066412  0.24844547  1
  O  O116  1  0.16772178  0.47424830  0.25084783  1
  O  O117  1  0.30989732  0.50657808  0.76710173  1
  O  O118  1  0.17019338  0.68305210  0.75704352  1
  O  O119  1  0.49912157  0.81397450  0.76789494  1
