# generated using pymatgen
data_Na10Ca3Si6Ge5(SO8)6
_symmetry_space_group_name_H-M   'P 1'
_cell_length_a   17.91392150
_cell_length_b   9.00712912
_cell_length_c   22.35825703
_cell_angle_alpha   89.25233840
_cell_angle_beta   88.93669363
_cell_angle_gamma   119.80131028
_symmetry_Int_Tables_number   1
_chemical_formula_structural   Na10Ca3Si6Ge5(SO8)6
_chemical_formula_sum   'Na30 Ca9 Si18 Ge15 S18 O144'
_cell_volume   3128.91480955
_cell_formula_units_Z   3
loop_
 _symmetry_equiv_pos_site_id
 _symmetry_equiv_pos_as_xyz
  1  'x, y, z'
loop_
 _atom_site_type_symbol
 _atom_site_label
 _atom_site_symmetry_multiplicity
 _atom_site_fract_x
 _atom_site_fract_y
 _atom_site_fract_z
 _atom_site_occupancy
  Na  Na0  1  0.31715596  0.00418866  0.24807520  1
  Na  Na1  1  0.18941391  0.36395030  0.24689813  1
  Na  Na2  1  0.69133519  0.37617858  0.24332005  1
  Na  Na3  1  0.99764140  0.63095975  0.25126115  1
  Na  Na4  1  0.31333724  0.61668057  0.75596533  1
  Na  Na5  1  0.81504957  0.61785493  0.75324689  1
  Na  Na6  1  0.99017510  0.36165489  0.75226087  1
  Na  Na7  1  0.49416057  0.37818339  0.74206612  1
  Na  Na8  1  0.18715175  0.01187384  0.75347075  1
  Na  Na9  1  0.69021672  0.01678361  0.75476803  1
  Na  Na10  1  0.65178562  0.34351842  0.57507571  1
  Na  Na11  1  0.32237247  0.68076173  0.07707787  1
  Na  Na12  1  0.82374630  0.68250056  0.08580976  1
  Na  Na13  1  0.16183786  0.31064816  0.92196831  1
  Na  Na14  1  0.99994280  0.31199233  0.42037906  1
  Na  Na15  1  0.16246673  0.02404896  0.42161653  1
  Na  Na16  1  0.66411501  0.02032012  0.41517025  1
  Na  Na17  1  0.84685190  0.67808907  0.42179976  1
  Na  Na18  1  0.00160451  0.00251870  0.50398931  1
  Na  Na19  1  0.49166458  0.00532019  0.49909600  1
  Na  Na20  1  0.00174449  0.01488204  0.99934825  1
  Na  Na21  1  0.50172448  0.02536095  0.99488960  1
  Na  Na22  1  0.34100459  0.35028594  0.83636548  1
  Na  Na23  1  0.83365831  0.33521061  0.83440300  1
  Na  Na24  1  0.34185224  0.36981092  0.32979423  1
  Na  Na25  1  0.83307884  0.33411291  0.33035468  1
  Na  Na26  1  0.16492088  0.65547151  0.15963252  1
  Na  Na27  1  0.65899319  0.66300448  0.16186983  1
  Na  Na28  1  0.16392895  0.66388541  0.66245478  1
  Na  Na29  1  0.65656657  0.66026300  0.65994080  1
  Ca  Ca30  1  0.49819261  0.99942472  0.35279240  1
  Ca  Ca31  1  0.33468403  0.34286300  0.68528133  1
  Ca  Ca32  1  0.83579000  0.33949253  0.69064260  1
  Ca  Ca33  1  0.33101962  0.33022785  0.18521847  1
  Ca  Ca34  1  0.83518050  0.33066749  0.18530267  1
  Ca  Ca35  1  0.16201127  0.65134771  0.00933993  1
  Ca  Ca36  1  0.65919468  0.64561575  0.00999556  1
  Ca  Ca37  1  0.16008692  0.65177718  0.51522961  1
  Ca  Ca38  1  0.66984258  0.67279155  0.51716358  1
  Si  Si39  1  0.14269868  0.98362561  0.25590147  1
  Si  Si40  1  0.35142574  0.71161802  0.25123190  1
  Si  Si41  1  0.86072968  0.73214507  0.25205643  1
  Si  Si42  1  0.13875349  0.28963389  0.75474040  1
  Si  Si43  1  0.63781650  0.28856631  0.75419737  1
  Si  Si44  1  0.00898169  0.72777259  0.75845381  1
  Si  Si45  1  0.50284352  0.73390199  0.75160734  1
  Si  Si46  1  0.85141810  0.98086546  0.75482753  1
  Si  Si47  1  0.47774701  0.31884692  0.58788256  1
  Si  Si48  1  0.17943451  0.31818829  0.08597327  1
  Si  Si49  1  0.68160659  0.31984370  0.08851145  1
  Si  Si50  1  0.31829748  0.67824371  0.91506132  1
  Si  Si51  1  0.00505111  0.34269118  0.91796350  1
  Si  Si52  1  0.51194082  0.35683409  0.91478972  1
  Si  Si53  1  0.82222349  0.97138313  0.41495981  1
  Si  Si54  1  0.17021744  0.36820181  0.41455491  1
  Si  Si55  1  0.66844718  0.36805582  0.42139597  1
  Si  Si56  1  0.02398737  0.67413170  0.41380891  1
  Ge  Ge57  1  0.00293490  0.99569797  0.35351821  1
  Ge  Ge58  1  0.99454769  0.00411374  0.84993513  1
  Ge  Ge59  1  0.49845051  0.99957495  0.85376178  1
  Ge  Ge60  1  0.00404718  0.00360603  0.66259383  1
  Ge  Ge61  1  0.50715734  0.02741607  0.65292019  1
  Ge  Ge62  1  0.01172520  0.98608614  0.15054367  1
  Ge  Ge63  1  0.49554892  0.00431792  0.14469514  1
  Ge  Ge64  1  0.33667565  0.36355214  0.97635888  1
  Ge  Ge65  1  0.82335190  0.30470145  0.98161619  1
  Ge  Ge66  1  0.33722063  0.34486600  0.48601449  1
  Ge  Ge67  1  0.83801486  0.33902199  0.47011518  1
  Ge  Ge68  1  0.17301154  0.66848725  0.31628364  1
  Ge  Ge69  1  0.69047683  0.68963202  0.32036581  1
  Ge  Ge70  1  0.14785420  0.62489074  0.82042147  1
  Ge  Ge71  1  0.65041193  0.64933468  0.80580398  1
  S  S72  1  0.64405916  0.97723983  0.25073246  1
  S  S73  1  0.00556582  0.28579788  0.25107207  1
  S  S74  1  0.50948388  0.30589890  0.24801811  1
  S  S75  1  0.35447081  0.98761109  0.75136669  1
  S  S76  1  0.97782728  0.30992917  0.58386303  1
  S  S77  1  0.17772704  0.04044668  0.58600735  1
  S  S78  1  0.68380800  0.04754243  0.58416942  1
  S  S79  1  0.33999165  0.64126721  0.58241847  1
  S  S80  1  0.84402897  0.64354274  0.58244584  1
  S  S81  1  0.47974295  0.64203049  0.08228271  1
  S  S82  1  0.98098944  0.63996643  0.08340310  1
  S  S83  1  0.33892063  0.03987480  0.08399573  1
  S  S84  1  0.83869683  0.03944114  0.08082786  1
  S  S85  1  0.82140755  0.66486558  0.91437344  1
  S  S86  1  0.16432708  0.96645349  0.91198473  1
  S  S87  1  0.66677493  0.97252125  0.91319347  1
  S  S88  1  0.31223403  0.97301927  0.41696492  1
  S  S89  1  0.51543960  0.64750990  0.41547123  1
  O  O90  1  0.09435317  0.02269143  0.31004807  1
  O  O91  1  0.60953367  0.00430029  0.30691591  1
  O  O92  1  0.40089354  0.80098691  0.30820837  1
  O  O93  1  0.91686987  0.83081726  0.30877702  1
  O  O94  1  0.49897559  0.21009252  0.30327073  1
  O  O95  1  0.99653034  0.19132913  0.30772420  1
  O  O96  1  0.09363786  0.16977793  0.81352559  1
  O  O97  1  0.58785170  0.15511528  0.80803906  1
  O  O98  1  0.48979869  0.82604405  0.80813481  1
  O  O99  1  0.99126763  0.82322410  0.81241628  1
  O  O100  1  0.40786071  0.01638646  0.80349836  1
  O  O101  1  0.91575894  0.02652103  0.80938007  1
  O  O102  1  0.39642135  0.96418959  0.69531255  1
  O  O103  1  0.89641609  0.93641910  0.69498477  1
  O  O104  1  0.07502928  0.20831906  0.69564175  1
  O  O105  1  0.58269373  0.21785343  0.69119234  1
  O  O106  1  0.03316561  0.85480802  0.69627087  1
  O  O107  1  0.51891542  0.85822479  0.68964585  1
  O  O108  1  0.40154861  0.84750880  0.18793825  1
  O  O109  1  0.90518292  0.84415761  0.18746394  1
  O  O110  1  0.01415787  0.19876071  0.19752787  1
  O  O111  1  0.52368209  0.21785109  0.19398383  1
  O  O112  1  0.07937331  0.94016189  0.19668176  1
  O  O113  1  0.59123643  0.96399944  0.19825263  1
  O  O114  1  0.44007754  0.32704964  0.65135437  1
  O  O115  1  0.93313282  0.31900672  0.63765487  1
  O  O116  1  0.22452888  0.12241161  0.63986423  1
  O  O117  1  0.73039228  0.12972511  0.63781248  1
  O  O118  1  0.32609688  0.54673617  0.63922073  1
  O  O119  1  0.83306519  0.53873201  0.63628861  1
  O  O120  1  0.44257834  0.54078769  0.13679276  1
  O  O121  1  0.94799968  0.55211706  0.14199843  1
  O  O122  1  0.33411261  0.10842038  0.14209553  1
  O  O123  1  0.83022346  0.11823906  0.13472019  1
  O  O124  1  0.22773713  0.33651103  0.14582767  1
  O  O125  1  0.73167668  0.34601934  0.14903404  1
  O  O126  1  0.23737266  0.30365825  0.02146041  1
  O  O127  1  0.73786600  0.29468310  0.02724265  1
  O  O128  1  0.42450255  0.55607991  0.02803064  1
  O  O129  1  0.92382709  0.54731286  0.03371749  1
  O  O130  1  0.34995376  0.15103701  0.03187574  1
  O  O131  1  0.85031306  0.15201451  0.02497026  1
  O  O132  1  0.22172796  0.14654049  0.52920635  1
  O  O133  1  0.72844124  0.15400557  0.52708679  1
  O  O134  1  0.34692203  0.54165266  0.52867228  1
  O  O135  1  0.85071599  0.55532186  0.52583430  1
  O  O136  1  0.41049724  0.30099219  0.52884840  1
  O  O137  1  0.92986660  0.30101285  0.52670870  1
  O  O138  1  0.29013796  0.71088004  0.97824356  1
  O  O139  1  0.78670336  0.69350216  0.97014689  1
  O  O140  1  0.07218017  0.41302215  0.96926232  1
  O  O141  1  0.56617387  0.41605887  0.97244136  1
  O  O142  1  0.15296964  0.86942690  0.96684657  1
  O  O143  1  0.65766791  0.87553403  0.96746150  1
  O  O144  1  0.27063652  0.87048069  0.47031415  1
  O  O145  1  0.79206719  0.84534836  0.47063121  1
  O  O146  1  0.13441577  0.42412190  0.46964315  1
  O  O147  1  0.65932166  0.44378495  0.48173105  1
  O  O148  1  0.08335488  0.73914905  0.46928250  1
  O  O149  1  0.56469093  0.67250053  0.46913622  1
  O  O150  1  0.06742042  0.61817274  0.35723390  1
  O  O151  1  0.55870952  0.62475537  0.36083493  1
  O  O152  1  0.25911509  0.88972374  0.36112688  1
  O  O153  1  0.74950619  0.88783152  0.35983233  1
  O  O154  1  0.18773339  0.49548216  0.35281851  1
  O  O155  1  0.68913477  0.50682605  0.35970752  1
  O  O156  1  0.04584502  0.46852939  0.85485501  1
  O  O157  1  0.55878183  0.49834202  0.85352419  1
  O  O158  1  0.17594354  0.87859670  0.85804031  1
  O  O159  1  0.68083624  0.89550262  0.85800488  1
  O  O160  1  0.24249271  0.62961407  0.85832458  1
  O  O161  1  0.76770925  0.64387646  0.86148904  1
  O  O162  1  0.99687036  0.82320330  0.40356768  1
  O  O163  1  0.50336486  0.79632913  0.40963816  1
  O  O164  1  0.39973610  0.00383447  0.41250029  1
  O  O165  1  0.92101984  0.01620806  0.40022043  1
  O  O166  1  0.08827871  0.17140048  0.40254637  1
  O  O167  1  0.59769069  0.17174122  0.41542011  1
  O  O168  1  0.99672726  0.15183126  0.90734946  1
  O  O169  1  0.49681450  0.16638844  0.89900972  1
  O  O170  1  0.08706306  0.99046286  0.90811178  1
  O  O171  1  0.59008673  0.99547275  0.90878834  1
  O  O172  1  0.41504130  0.83648390  0.90181607  1
  O  O173  1  0.90977006  0.81890193  0.90723413  1
  O  O174  1  0.48512830  0.13288745  0.59019744  1
  O  O175  1  0.98266799  0.14805031  0.58590113  1
  O  O176  1  0.09050544  0.03280311  0.58826248  1
  O  O177  1  0.59828108  0.04274867  0.58517362  1
  O  O178  1  0.42244077  0.80325716  0.58139659  1
  O  O179  1  0.92475570  0.81072673  0.58423630  1
  O  O180  1  0.47671333  0.80739751  0.08506068  1
  O  O181  1  0.97766614  0.80838391  0.08567749  1
  O  O182  1  0.42200857  0.02432675  0.08354926  1
  O  O183  1  0.91729527  0.02431048  0.08026919  1
  O  O184  1  0.08265365  0.13173152  0.09172961  1
  O  O185  1  0.58459542  0.13558684  0.09325259  1
  O  O186  1  0.34059079  0.13611140  0.74777227  1
  O  O187  1  0.83717796  0.14218342  0.74982358  1
  O  O188  1  0.23328478  0.31242027  0.75267486  1
  O  O189  1  0.73320571  0.31614344  0.75329064  1
  O  O190  1  0.42283671  0.54182521  0.75208782  1
  O  O191  1  0.92762472  0.53886665  0.75372512  1
  O  O192  1  0.33150785  0.51984915  0.24635428  1
  O  O193  1  0.84817846  0.54018281  0.25365211  1
  O  O194  1  0.43213371  0.31994795  0.24168045  1
  O  O195  1  0.93117982  0.31512063  0.24983966  1
  O  O196  1  0.23890410  0.14097341  0.25568246  1
  O  O197  1  0.73225442  0.12578947  0.24478106  1
  O  O198  1  0.31929063  0.49021453  0.91758558  1
  O  O199  1  0.82892910  0.50539502  0.91927891  1
  O  O200  1  0.41306601  0.34318454  0.92522630  1
  O  O201  1  0.91066238  0.33856462  0.92888127  1
  O  O202  1  0.24211477  0.14163508  0.91152706  1
  O  O203  1  0.74743045  0.15026566  0.91623383  1
  O  O204  1  0.31350521  0.14196565  0.41841864  1
  O  O205  1  0.82580833  0.15950765  0.42329759  1
  O  O206  1  0.25818696  0.34771624  0.42907456  1
  O  O207  1  0.76544157  0.36983403  0.42122000  1
  O  O208  1  0.42677000  0.48579159  0.42092896  1
  O  O209  1  0.92991958  0.49009971  0.42283821  1
  O  O210  1  0.16958304  0.48404992  0.07884657  1
  O  O211  1  0.67606821  0.49087628  0.07932282  1
  O  O212  1  0.06961238  0.67901566  0.07544643  1
  O  O213  1  0.56835264  0.68025337  0.07428119  1
  O  O214  1  0.26436850  0.86596510  0.08001161  1
  O  O215  1  0.76254332  0.86847700  0.07484683  1
  O  O216  1  0.16772080  0.86937803  0.58206506  1
  O  O217  1  0.67106451  0.87495991  0.58083119  1
  O  O218  1  0.26609611  0.66750887  0.57581576  1
  O  O219  1  0.76684682  0.66190687  0.58121715  1
  O  O220  1  0.06386416  0.46214624  0.58247228  1
  O  O221  1  0.57447814  0.47462319  0.58128722  1
  O  O222  1  0.14394527  0.80118711  0.26330172  1
  O  O223  1  0.64701862  0.81141264  0.25410305  1
  O  O224  1  0.25366065  0.70698178  0.25335914  1
  O  O225  1  0.76117313  0.70851376  0.25755855  1
  O  O226  1  0.08600242  0.45836659  0.25080198  1
  O  O227  1  0.58957848  0.47628656  0.24870290  1
  O  O228  1  0.14709298  0.48386078  0.75800531  1
  O  O229  1  0.64382871  0.47948314  0.75692698  1
  O  O230  1  0.09940891  0.71327724  0.76401334  1
  O  O231  1  0.59424977  0.72258039  0.75404540  1
  O  O232  1  0.26974653  0.82857076  0.75487548  1
  O  O233  1  0.75547561  0.80149798  0.76353625  1
