# generated using pymatgen
data_MgMn2(CO3)4
_symmetry_space_group_name_H-M   'P 1'
_cell_length_a   6.45494279
_cell_length_b   7.99173807
_cell_length_c   5.20097386
_cell_angle_alpha   88.64240278
_cell_angle_beta   70.76658625
_cell_angle_gamma   88.17645919
_symmetry_Int_Tables_number   1
_chemical_formula_structural   MgMn2(CO3)4
_chemical_formula_sum   'Mg1 Mn2 C4 O12'
_cell_volume   253.17020519
_cell_formula_units_Z   1
loop_
 _symmetry_equiv_pos_site_id
 _symmetry_equiv_pos_as_xyz
  1  'x, y, z'
loop_
 _atom_site_type_symbol
 _atom_site_label
 _atom_site_symmetry_multiplicity
 _atom_site_fract_x
 _atom_site_fract_y
 _atom_site_fract_z
 _atom_site_occupancy
  Mg  Mg0  1  0.18292000  0.45629400  0.21504100  1
  Mn  Mn1  1  0.97823700  0.00729300  0.00797900  1
  Mn  Mn2  1  0.53960100  0.50863000  0.52687900  1
  C  C3  1  0.11803500  0.27629200  0.75284400  1
  C  C4  1  0.35653800  0.75807400  0.77960300  1
  C  C5  1  0.61909500  0.25530300  0.26039300  1
  C  C6  1  0.88375100  0.73499300  0.21578100  1
  O  O7  1  0.11864600  0.27012400  0.00416400  1
  O  O8  1  0.05757100  0.14248000  0.66500000  1
  O  O9  1  0.17368100  0.40781400  0.60199100  1
  O  O10  1  0.28909200  0.89534200  0.89024000  1
  O  O11  1  0.36920400  0.61636900  0.91382000  1
  O  O12  1  0.43281600  0.73851400  0.51469800  1
  O  O13  1  0.64094100  0.27430900  0.50005900  1
  O  O14  1  0.53150900  0.38849800  0.17528500  1
  O  O15  1  0.67811300  0.12601400  0.11973400  1
  O  O16  1  0.87615500  0.58719900  0.33503400  1
  O  O17  1  0.91365200  0.86786600  0.33934800  1
  O  O18  1  0.87470100  0.75555700  0.97585900  1
