# generated using pymatgen
data_Na7Sc3ZnSi3(SO8)3
_symmetry_space_group_name_H-M   'P 1'
_cell_length_a   9.18937984
_cell_length_b   9.14490369
_cell_length_c   22.42367037
_cell_angle_alpha   90.20821990
_cell_angle_beta   89.93455652
_cell_angle_gamma   119.61984746
_symmetry_Int_Tables_number   1
_chemical_formula_structural   Na7Sc3ZnSi3(SO8)3
_chemical_formula_sum   'Na21 Sc9 Zn3 Si9 S9 O72'
_cell_volume   1638.13845766
_cell_formula_units_Z   3
loop_
 _symmetry_equiv_pos_site_id
 _symmetry_equiv_pos_as_xyz
  1  'x, y, z'
loop_
 _atom_site_type_symbol
 _atom_site_label
 _atom_site_symmetry_multiplicity
 _atom_site_fract_x
 _atom_site_fract_y
 _atom_site_fract_z
 _atom_site_occupancy
  Na  Na0  1  0.63842832  0.99823108  0.24009398  1
  Na  Na1  1  0.38483473  0.37369989  0.23890113  1
  Na  Na2  1  0.98022951  0.62989131  0.25430670  1
  Na  Na3  1  0.62620100  0.62568509  0.73855201  1
  Na  Na4  1  0.99385122  0.34918391  0.74813814  1
  Na  Na5  1  0.38427936  0.01899729  0.75537122  1
  Na  Na6  1  0.01789471  0.69460630  0.57508644  1
  Na  Na7  1  0.66817120  0.95666220  0.58447817  1
  Na  Na8  1  0.31885921  0.98507030  0.07960387  1
  Na  Na9  1  0.65345452  0.69071468  0.09292683  1
  Na  Na10  1  0.68931116  0.03349814  0.91594488  1
  Na  Na11  1  0.33441442  0.29034864  0.91875208  1
  Na  Na12  1  0.96176788  0.29735606  0.41016498  1
  Na  Na13  1  0.33044702  0.01995091  0.41419956  1
  Na  Na14  1  0.71935066  0.68456772  0.41534032  1
  Na  Na15  1  0.98866996  0.98651033  0.49600909  1
  Na  Na16  1  0.01346901  0.01150227  0.00397805  1
  Na  Na17  1  0.65683541  0.32151779  0.82907974  1
  Na  Na18  1  0.67783527  0.34586420  0.32973900  1
  Na  Na19  1  0.34359536  0.65348065  0.16200799  1
  Na  Na20  1  0.35173486  0.64518879  0.66639164  1
  Sc  Sc21  1  0.01056428  0.00958825  0.85018347  1
  Sc  Sc22  1  0.99411760  0.00461469  0.65057356  1
  Sc  Sc23  1  0.98598024  0.00309193  0.14553163  1
  Sc  Sc24  1  0.65265302  0.31569158  0.98551040  1
  Sc  Sc25  1  0.67770303  0.34908476  0.48075566  1
  Sc  Sc26  1  0.33389465  0.67626105  0.02104971  1
  Sc  Sc27  1  0.34878133  0.67369012  0.51640506  1
  Sc  Sc28  1  0.34393601  0.67962713  0.31734238  1
  Sc  Sc29  1  0.34379214  0.68013021  0.81322315  1
  Zn  Zn30  1  0.97097009  0.96484422  0.35244966  1
  Zn  Zn31  1  0.64255154  0.33025209  0.68540116  1
  Zn  Zn32  1  0.65289842  0.33695428  0.17319146  1
  Si  Si33  1  0.69913048  0.69217843  0.24972823  1
  Si  Si34  1  0.29444362  0.29784390  0.75118620  1
  Si  Si35  1  0.70506115  0.00541795  0.75010742  1
  Si  Si36  1  0.66721308  0.63133381  0.58639289  1
  Si  Si37  1  0.66680891  0.03885756  0.08554220  1
  Si  Si38  1  0.36141494  0.33231266  0.08357152  1
  Si  Si39  1  0.32816967  0.96462016  0.91728178  1
  Si  Si40  1  0.63471740  0.97083691  0.41680699  1
  Si  Si41  1  0.04336402  0.66868948  0.41755310  1
  S  S42  1  0.28922730  0.99713634  0.25235667  1
  S  S43  1  0.00559468  0.29599902  0.25348811  1
  S  S44  1  0.00313374  0.70776997  0.74961651  1
  S  S45  1  0.96375099  0.33502731  0.58404442  1
  S  S46  1  0.36886030  0.03577931  0.58324314  1
  S  S47  1  0.96101408  0.62546373  0.08510250  1
  S  S48  1  0.63000223  0.66735693  0.91678238  1
  S  S49  1  0.03834823  0.37664986  0.91530890  1
  S  S50  1  0.33390535  0.37250027  0.41580520  1
  O  O51  1  0.21005053  0.01848768  0.30674688  1
  O  O52  1  0.80714729  0.76656889  0.31095915  1
  O  O53  1  0.99268658  0.20194172  0.30864760  1
  O  O54  1  0.20836779  0.18517569  0.81148765  1
  O  O55  1  0.98165811  0.79607891  0.80133352  1
  O  O56  1  0.81931595  0.02741779  0.80947759  1
  O  O57  1  0.78946419  0.96887617  0.69111684  1
  O  O58  1  0.16987681  0.19680997  0.69547867  1
  O  O59  1  0.02679342  0.80593576  0.69413229  1
  O  O60  1  0.79420732  0.81908563  0.19308584  1
  O  O61  1  0.02527038  0.20839426  0.20063620  1
  O  O62  1  0.19084312  0.98328941  0.19814585  1
  O  O63  1  0.88541140  0.35582520  0.63827976  1
  O  O64  1  0.47003401  0.11041899  0.63764545  1
  O  O65  1  0.65453994  0.52795826  0.64663334  1
  O  O66  1  0.89227980  0.53434218  0.14143367  1
  O  O67  1  0.64189595  0.12721144  0.14500730  1
  O  O68  1  0.47843260  0.37942462  0.14294350  1
  O  O69  1  0.45818673  0.30509919  0.02565751  1
  O  O70  1  0.85210668  0.53931215  0.03351999  1
  O  O71  1  0.68696496  0.14609634  0.02452990  1
  O  O72  1  0.45270697  0.13506581  0.52935646  1
  O  O73  1  0.68960085  0.53783765  0.52667366  1
  O  O74  1  0.85804803  0.31317203  0.53024304  1
  O  O75  1  0.54516409  0.68756484  0.96995728  1
  O  O76  1  0.14727865  0.46258288  0.96677171  1
  O  O77  1  0.31700917  0.85600020  0.97632905  1
  O  O78  1  0.54493885  0.84793695  0.47455003  1
  O  O79  1  0.31145966  0.45678853  0.46844185  1
  O  O80  1  0.15450107  0.68299800  0.47691758  1
  O  O81  1  0.12916275  0.63509269  0.35832227  1
  O  O82  1  0.51670460  0.87962325  0.35786789  1
  O  O83  1  0.36174747  0.47588161  0.36131404  1
  O  O84  1  0.11798984  0.46650967  0.85915470  1
  O  O85  1  0.35293809  0.87183067  0.85798806  1
  O  O86  1  0.52439616  0.64076049  0.86262846  1
  O  O87  1  0.03303258  0.84257173  0.41603196  1
  O  O88  1  0.82478535  0.99925594  0.41367259  1
  O  O89  1  0.18489382  0.20441819  0.41084072  1
  O  O90  1  0.01716199  0.20185143  0.91445721  1
  O  O91  1  0.16481510  0.99321690  0.91525268  1
  O  O92  1  0.79442701  0.82371595  0.91182680  1
  O  O93  1  0.97730682  0.17859429  0.58549998  1
  O  O94  1  0.19739008  0.01361920  0.58693912  1
  O  O95  1  0.84167323  0.82065144  0.58586554  1
  O  O96  1  0.97910979  0.79811446  0.08786515  1
  O  O97  1  0.82493968  0.00163756  0.08648992  1
  O  O98  1  0.18520048  0.15311868  0.08993172  1
  O  O99  1  0.68952412  0.17589533  0.74370466  1
  O  O100  1  0.48180420  0.31943837  0.74959144  1
  O  O101  1  0.85607925  0.53732977  0.74733079  1
  O  O102  1  0.68192022  0.50365164  0.24340136  1
  O  O103  1  0.85409383  0.31384195  0.24891459  1
  O  O104  1  0.46268847  0.14158141  0.24976423  1
  O  O105  1  0.65035753  0.51709727  0.92154778  1
  O  O106  1  0.86913597  0.35883210  0.91979069  1
  O  O107  1  0.50356477  0.15378962  0.91794807  1
  O  O108  1  0.64037009  0.15301436  0.42296771  1
  O  O109  1  0.48639458  0.35414186  0.42171773  1
  O  O110  1  0.85162582  0.50202152  0.42092834  1
  O  O111  1  0.34149650  0.49894628  0.07322335  1
  O  O112  1  0.13307058  0.64983798  0.07832775  1
  O  O113  1  0.49497260  0.84960437  0.08126528  1
  O  O114  1  0.34944515  0.86212683  0.57917390  1
  O  O115  1  0.50381718  0.66107442  0.58180942  1
  O  O116  1  0.13208403  0.48667206  0.57805010  1
  O  O117  1  0.29790126  0.83597737  0.25370873  1
  O  O118  1  0.50962989  0.67638575  0.25285187  1
  O  O119  1  0.15893309  0.46752182  0.25375095  1
  O  O120  1  0.30677490  0.48422050  0.75487127  1
  O  O121  1  0.15701154  0.69191130  0.75518331  1
  O  O122  1  0.51638436  0.83546032  0.75415443  1
