# generated using pymatgen
data_Na6Ca2Mg2SiS5O24
_symmetry_space_group_name_H-M   'P 1'
_cell_length_a   9.22862660
_cell_length_b   9.18142237
_cell_length_c   22.53447347
_cell_angle_alpha   89.99991558
_cell_angle_beta   89.94336306
_cell_angle_gamma   120.09162465
_symmetry_Int_Tables_number   1
_chemical_formula_structural   Na6Ca2Mg2SiS5O24
_chemical_formula_sum   'Na18 Ca6 Mg6 Si3 S15 O72'
_cell_volume   1652.04963544
_cell_formula_units_Z   3
loop_
 _symmetry_equiv_pos_site_id
 _symmetry_equiv_pos_as_xyz
  1  'x, y, z'
loop_
 _atom_site_type_symbol
 _atom_site_label
 _atom_site_symmetry_multiplicity
 _atom_site_fract_x
 _atom_site_fract_y
 _atom_site_fract_z
 _atom_site_occupancy
  Na  Na0  1  0.62831268  0.99939579  0.24643892  1
  Na  Na1  1  0.35809835  0.33538458  0.25084504  1
  Na  Na2  1  0.01670752  0.65844985  0.24062927  1
  Na  Na3  1  0.64039959  0.65716561  0.73961390  1
  Na  Na4  1  0.98057062  0.33880956  0.76099752  1
  Na  Na5  1  0.37916790  0.99792297  0.75576087  1
  Na  Na6  1  0.33216166  0.35495397  0.58589272  1
  Na  Na7  1  0.00316985  0.69008599  0.57586431  1
  Na  Na8  1  0.67296951  0.96158058  0.59326676  1
  Na  Na9  1  0.29727670  0.96560502  0.09183295  1
  Na  Na10  1  0.69778494  0.02774058  0.91022329  1
  Na  Na11  1  0.69893157  0.66503051  0.42613832  1
  Na  Na12  1  0.99649181  0.99893253  0.49834478  1
  Na  Na13  1  0.99912798  0.99886721  0.00134454  1
  Na  Na14  1  0.66642522  0.33397006  0.83860397  1
  Na  Na15  1  0.63695446  0.29603570  0.32914398  1
  Na  Na16  1  0.33174319  0.66639311  0.16534679  1
  Na  Na17  1  0.37190433  0.68560161  0.66865021  1
  Ca  Ca18  1  0.01685349  0.00917913  0.34370206  1
  Ca  Ca19  1  0.98690132  0.99242916  0.65496140  1
  Ca  Ca20  1  0.66774167  0.33562778  0.68449915  1
  Ca  Ca21  1  0.66595460  0.32840176  0.47883296  1
  Ca  Ca22  1  0.33484965  0.67178489  0.51144963  1
  Ca  Ca23  1  0.33694965  0.66301171  0.82860071  1
  Mg  Mg24  1  0.99206043  0.99816889  0.85253259  1
  Mg  Mg25  1  0.00621083  0.99557915  0.15122164  1
  Mg  Mg26  1  0.66515093  0.33253370  0.17733354  1
  Mg  Mg27  1  0.66946413  0.33880758  0.98813090  1
  Mg  Mg28  1  0.33084856  0.65621077  0.01633113  1
  Mg  Mg29  1  0.32898948  0.67496562  0.31470235  1
  Si  Si30  1  0.31218405  0.00307977  0.24253141  1
  Si  Si31  1  0.69303586  0.99947718  0.75549032  1
  Si  Si32  1  0.66743006  0.64389706  0.58141304  1
  S  S33  1  0.69920695  0.69679917  0.24821517  1
  S  S34  1  0.99820074  0.30040633  0.24528234  1
  S  S35  1  0.29386975  0.29360555  0.75328538  1
  S  S36  1  0.00389264  0.70435744  0.75471990  1
  S  S37  1  0.97473236  0.33603576  0.58519839  1
  S  S38  1  0.35872902  0.02775686  0.58506869  1
  S  S39  1  0.96393302  0.63035258  0.08362446  1
  S  S40  1  0.66619473  0.03425357  0.08152457  1
  S  S41  1  0.37132642  0.33561987  0.08309173  1
  S  S42  1  0.64007388  0.66378037  0.92036808  1
  S  S43  1  0.02241633  0.35770685  0.91990697  1
  S  S44  1  0.33571024  0.97763204  0.92176375  1
  S  S45  1  0.63648025  0.96530965  0.41102859  1
  S  S46  1  0.33385687  0.37211911  0.41228950  1
  S  S47  1  0.02678957  0.66332996  0.41255106  1
  O  O48  1  0.23554005  0.05806878  0.29755589  1
  O  O49  1  0.79036730  0.76118000  0.30508345  1
  O  O50  1  0.95139476  0.19593169  0.29974075  1
  O  O51  1  0.19345124  0.17943228  0.80175550  1
  O  O52  1  0.00136062  0.81089108  0.80315907  1
  O  O53  1  0.81307126  0.01305002  0.81144007  1
  O  O54  1  0.76933926  0.98454616  0.69146874  1
  O  O55  1  0.21843641  0.22453140  0.69428764  1
  O  O56  1  0.02901343  0.78951551  0.69619607  1
  O  O57  1  0.78800654  0.82058144  0.19987602  1
  O  O58  1  0.02322696  0.21061101  0.19511053  1
  O  O59  1  0.18621274  0.96161168  0.18512642  1
  O  O60  1  0.89727359  0.34281549  0.64213418  1
  O  O61  1  0.45266775  0.09863515  0.64123070  1
  O  O62  1  0.65170230  0.54122686  0.64308864  1
  O  O63  1  0.88674965  0.53834156  0.13979134  1
  O  O64  1  0.64483137  0.11942792  0.13477608  1
  O  O65  1  0.46513086  0.35845420  0.13963492  1
  O  O66  1  0.46337925  0.31203729  0.03348656  1
  O  O67  1  0.86080913  0.53652865  0.03242205  1
  O  O68  1  0.68607106  0.13597269  0.02757137  1
  O  O69  1  0.45577281  0.12790450  0.53368307  1
  O  O70  1  0.67807663  0.54321442  0.52296119  1
  O  O71  1  0.86064246  0.30741081  0.53512771  1
  O  O72  1  0.53610946  0.68701124  0.96600785  1
  O  O73  1  0.13852766  0.46276410  0.96697890  1
  O  O74  1  0.31487749  0.86440297  0.97251252  1
  O  O75  1  0.55640519  0.88407707  0.46813336  1
  O  O76  1  0.33658006  0.45261010  0.46984835  1
  O  O77  1  0.10497924  0.66513961  0.47036246  1
  O  O78  1  0.13089870  0.66890210  0.36167917  1
  O  O79  1  0.53361643  0.86493596  0.35965169  1
  O  O80  1  0.33233435  0.47577969  0.36151503  1
  O  O81  1  0.08261042  0.43776679  0.86077053  1
  O  O82  1  0.36357103  0.90720363  0.86560558  1
  O  O83  1  0.55797792  0.63698517  0.86127026  1
  O  O84  1  0.00100113  0.81203647  0.41290083  1
  O  O85  1  0.80161044  0.97176719  0.41048223  1
  O  O86  1  0.18461947  0.20177071  0.41318228  1
  O  O87  1  0.00623581  0.18599592  0.92026932  1
  O  O88  1  0.18627848  0.99772986  0.91659587  1
  O  O89  1  0.80748474  0.82510512  0.91926076  1
  O  O90  1  0.01427081  0.19729571  0.58480792  1
  O  O91  1  0.19650621  0.02607235  0.58511788  1
  O  O92  1  0.83915405  0.83030947  0.57875379  1
  O  O93  1  0.98207137  0.80310102  0.08486837  1
  O  O94  1  0.81280932  0.01001276  0.08815461  1
  O  O95  1  0.20166217  0.17721858  0.08621560  1
  O  O96  1  0.67574728  0.17034175  0.75825611  1
  O  O97  1  0.46611243  0.31746862  0.75621467  1
  O  O98  1  0.84209583  0.54064692  0.75569496  1
  O  O99  1  0.68782852  0.53056454  0.23702132  1
  O  O100  1  0.86034999  0.33805789  0.23425846  1
  O  O101  1  0.50519300  0.16695873  0.23564857  1
  O  O102  1  0.66352531  0.51817629  0.93206770  1
  O  O103  1  0.84902342  0.33238062  0.92792488  1
  O  O104  1  0.49328861  0.14580639  0.92917898  1
  O  O105  1  0.65906421  0.13650798  0.40744603  1
  O  O106  1  0.49169009  0.36401931  0.40668784  1
  O  O107  1  0.85826753  0.50868508  0.40723557  1
  O  O108  1  0.34967251  0.48474854  0.07467320  1
  O  O109  1  0.13895337  0.65509910  0.07923970  1
  O  O110  1  0.50509777  0.86562127  0.07710342  1
  O  O111  1  0.32356836  0.85104793  0.58152851  1
  O  O112  1  0.49988221  0.66543924  0.58189026  1
  O  O113  1  0.13479502  0.49902730  0.57987741  1
  O  O114  1  0.32529598  0.82943175  0.25246821  1
  O  O115  1  0.52457146  0.66947770  0.25244095  1
  O  O116  1  0.15880050  0.46588007  0.25317733  1
  O  O117  1  0.30395628  0.46090344  0.75801220  1
  O  O118  1  0.14435363  0.66939010  0.76126012  1
  O  O119  1  0.50454598  0.82892676  0.75711690  1
