# generated using pymatgen
data_Na7Y3TaSi3(PO8)3
_symmetry_space_group_name_H-M   'P 1'
_cell_length_a   9.34825524
_cell_length_b   9.35156452
_cell_length_c   22.84445036
_cell_angle_alpha   89.96840782
_cell_angle_beta   89.96730621
_cell_angle_gamma   119.94007895
_symmetry_Int_Tables_number   1
_chemical_formula_structural   Na7Y3TaSi3(PO8)3
_chemical_formula_sum   'Na21 Y9 Ta3 Si9 P9 O72'
_cell_volume   1730.56462016
_cell_formula_units_Z   3
loop_
 _symmetry_equiv_pos_site_id
 _symmetry_equiv_pos_as_xyz
  1  'x, y, z'
loop_
 _atom_site_type_symbol
 _atom_site_label
 _atom_site_symmetry_multiplicity
 _atom_site_fract_x
 _atom_site_fract_y
 _atom_site_fract_z
 _atom_site_occupancy
  Na  Na0  1  0.63221946  -0.00003515  0.25335614  1
  Na  Na1  1  0.36856974  0.36947469  0.25362840  1
  Na  Na2  1  0.00145107  0.63355038  0.25857251  1
  Na  Na3  1  0.64929240  0.64560304  0.74259886  1
  Na  Na4  1  0.99518748  0.34475218  0.73790641  1
  Na  Na5  1  0.29641660  0.34512763  0.58281878  1
  Na  Na6  1  0.03516600  0.69668506  0.57986028  1
  Na  Na7  1  0.66850031  0.95765951  0.57547646  1
  Na  Na8  1  0.30652670  0.96622021  0.07983300  1
  Na  Na9  1  0.65273102  0.69774480  0.08153101  1
  Na  Na10  1  0.04588075  0.33546968  0.07345652  1
  Na  Na11  1  0.31792801  0.29950903  0.90792996  1
  Na  Na12  1  0.98606562  0.30873755  0.42051591  1
  Na  Na13  1  0.32781164  0.01836980  0.42118067  1
  Na  Na14  1  0.68879916  0.67634543  0.42035130  1
  Na  Na15  1  0.99450084  0.99889615  0.49933428  1
  Na  Na16  1  0.98385391  0.00170939  0.99571404  1
  Na  Na17  1  0.65602377  0.31912603  0.83038040  1
  Na  Na18  1  0.66355677  0.33082075  0.33798084  1
  Na  Na19  1  0.34356925  0.66619271  0.16567199  1
  Na  Na20  1  0.33505011  0.67134132  0.65841006  1
  Y  Y21  1  0.99973363  0.00075295  0.35047934  1
  Y  Y22  1  -0.00069195  0.99746401  0.85208609  1
  Y  Y23  1  0.00289873  0.00327813  0.65095912  1
  Y  Y24  1  0.00156895  0.00417968  0.14383709  1
  Y  Y25  1  0.65897077  0.32942860  0.68710791  1
  Y  Y26  1  0.66423333  0.33115816  0.18168186  1
  Y  Y27  1  0.33403154  0.66687192  0.01310651  1
  Y  Y28  1  0.33237767  0.66335885  0.51463088  1
  Y  Y29  1  0.33522309  0.66723802  0.32202734  1
  Ta  Ta30  1  0.66784524  0.32710619  0.97866196  1
  Ta  Ta31  1  0.67101936  0.33792129  0.48397831  1
  Ta  Ta32  1  0.32706508  0.66587661  0.81943977  1
  Si  Si33  1  0.30438657  0.31309182  0.75555341  1
  Si  Si34  1  0.96141368  0.33040403  0.58714565  1
  Si  Si35  1  0.67049738  0.63348770  0.58621020  1
  Si  Si36  1  0.66746253  0.03706475  0.08233931  1
  Si  Si37  1  0.37136098  0.33222644  0.08012971  1
  Si  Si38  1  0.02631582  0.36891647  0.92069091  1
  Si  Si39  1  0.63931493  0.98054637  0.41795677  1
  Si  Si40  1  0.34118588  0.36018340  0.41734531  1
  Si  Si41  1  0.02202048  0.66134385  0.41764239  1
  P  P42  1  0.30174251  0.99427168  0.24782724  1
  P  P43  1  0.69462822  0.69852335  0.24765241  1
  P  P44  1  0.00639636  0.30882390  0.24807583  1
  P  P45  1  0.01157601  0.69947454  0.75043396  1
  P  P46  1  0.68934683  0.98690900  0.75214320  1
  P  P47  1  0.37267807  0.04313845  0.58082012  1
  P  P48  1  0.95290629  0.62444357  0.07929787  1
  P  P49  1  0.62495498  0.65217085  0.91781633  1
  P  P50  1  0.34594854  0.97283409  0.91980862  1
  O  O51  1  0.20841036  0.00125728  0.30227630  1
  O  O52  1  0.79321462  0.79130582  0.30235943  1
  O  O53  1  0.99509263  0.20807235  0.30297278  1
  O  O54  1  0.21287040  0.20737481  0.81300703  1
  O  O55  1  0.97824785  0.78997812  0.79916001  1
  O  O56  1  0.80950993  0.01010089  0.80115810  1
  O  O57  1  0.75199359  0.94721705  0.69443587  1
  O  O58  1  0.18955869  0.23632600  0.69641319  1
  O  O59  1  0.03671850  0.78917436  0.69129443  1
  O  O60  1  0.78425745  0.79474851  0.19134933  1
  O  O61  1  0.01330654  0.21699961  0.19239213  1
  O  O62  1  0.20543289  0.98668246  0.19147849  1
  O  O63  1  0.87770985  0.34052096  0.64750072  1
  O  O64  1  0.47628463  0.12694537  0.63469497  1
  O  O65  1  0.65281073  0.53511419  0.64639988  1
  O  O66  1  0.88244565  0.53104965  0.13697967  1
  O  O67  1  0.65301400  0.11819320  0.14293006  1
  O  O68  1  0.47304959  0.35444680  0.14014531  1
  O  O69  1  0.48785319  0.32682704  0.02355274  1
  O  O70  1  0.83748227  0.51487395  0.02752189  1
  O  O71  1  0.67390774  0.16477033  0.02700871  1
  O  O72  1  0.46945456  0.14620304  0.52507458  1
  O  O73  1  0.66954119  0.51237274  0.53030754  1
  O  O74  1  0.83715830  0.32365242  0.53139697  1
  O  O75  1  0.55757687  0.67371592  0.97632601  1
  O  O76  1  0.12582811  0.44342121  0.98070006  1
  O  O77  1  0.32979806  0.88973299  0.97878475  1
  O  O78  1  0.55785680  0.85837449  0.47373839  1
  O  O79  1  0.29985889  0.44134941  0.47306790  1
  O  O80  1  0.14164133  0.69989181  0.47374461  1
  O  O81  1  0.09758729  0.62158122  0.35894660  1
  O  O82  1  0.52481041  0.90309295  0.35920310  1
  O  O83  1  0.37999987  0.47571514  0.35874636  1
  O  O84  1  0.14658339  0.50519494  0.86721958  1
  O  O85  1  0.35944061  0.86457361  0.86966188  1
  O  O86  1  0.49996759  0.64025260  0.86779622  1
  O  O87  1  0.97979459  0.80945002  0.41205690  1
  O  O88  1  0.82863709  0.01859286  0.41278420  1
  O  O89  1  0.18957388  0.17153893  0.41203474  1
  O  O90  1  0.01035906  0.19020336  0.91185279  1
  O  O91  1  0.20164026  0.00381304  0.91118776  1
  O  O92  1  0.79865083  0.79395140  0.90824093  1
  O  O93  1  0.97034927  0.15986696  0.58222758  1
  O  O94  1  0.20549489  0.04004705  0.58190335  1
  O  O95  1  0.84612245  0.80739226  0.58159340  1
  O  O96  1  0.95274953  0.78986755  0.07790158  1
  O  O97  1  0.83896045  0.03160610  0.07688680  1
  O  O98  1  0.19654794  0.15679761  0.07719363  1
  O  O99  1  0.67212219  0.14103825  0.74919959  1
  O  O100  1  0.49601381  0.35628025  0.75380011  1
  O  O101  1  0.87020894  0.51785235  0.74974842  1
  O  O102  1  0.67740813  0.52402579  0.24977490  1
  O  O103  1  0.85267794  0.33204604  0.24906091  1
  O  O104  1  0.47665212  0.15154681  0.24984645  1
  O  O105  1  0.61949638  0.48115110  0.91750128  1
  O  O106  1  0.84426560  0.36144373  0.92265172  1
  O  O107  1  0.50877166  0.14818932  0.91998225  1
  O  O108  1  0.65008520  0.16165368  0.42803464  1
  O  O109  1  0.51182515  0.35013063  0.42742320  1
  O  O110  1  0.84057333  0.48945593  0.42801480  1
  O  O111  1  0.34449543  0.49188306  0.07757803  1
  O  O112  1  0.13009533  0.65497760  0.07388987  1
  O  O113  1  0.50437637  0.85425403  0.07867709  1
  O  O114  1  0.34631309  0.86702607  0.57796030  1
  O  O115  1  0.51051970  0.65941546  0.58170166  1
  O  O116  1  0.14290766  0.49610752  0.58210516  1
  O  O117  1  0.31754983  0.83651592  0.24886994  1
  O  O118  1  0.52099926  0.68312859  0.24819047  1
  O  O119  1  0.16665482  0.48024822  0.24876844  1
  O  O120  1  0.31467648  0.50052114  0.76453750  1
  O  O121  1  0.17586182  0.69371184  0.76441134  1
  O  O122  1  0.51681706  0.82874344  0.76593545  1
