# generated using pymatgen
data_MgV3CrO10
_symmetry_space_group_name_H-M   'P 1'
_cell_length_a   6.48141906
_cell_length_b   6.57086406
_cell_length_c   5.44666200
_cell_angle_alpha   90.00052541
_cell_angle_beta   90.00453819
_cell_angle_gamma   90.01473792
_symmetry_Int_Tables_number   1
_chemical_formula_structural   MgV3CrO10
_chemical_formula_sum   'Mg1 V3 Cr1 O10'
_cell_volume   231.96528444
_cell_formula_units_Z   1
loop_
 _symmetry_equiv_pos_site_id
 _symmetry_equiv_pos_as_xyz
  1  'x, y, z'
loop_
 _atom_site_type_symbol
 _atom_site_label
 _atom_site_symmetry_multiplicity
 _atom_site_fract_x
 _atom_site_fract_y
 _atom_site_fract_z
 _atom_site_occupancy
  Mg  Mg0  1  0.24996900  0.75000200  0.98585100  1
  V  V1  1  0.25001000  0.25000800  0.62190400  1
  V  V2  1  0.74999600  0.74999900  0.38683100  1
  V  V3  1  0.75000500  0.24999500  0.51132100  1
  Cr  Cr4  1  0.25000300  0.75000500  0.48436800  1
  O  O5  1  0.04472600  0.74997400  0.26426600  1
  O  O6  1  0.24999200  0.25000400  0.32488300  1
  O  O7  1  0.25028400  0.54440100  0.70808600  1
  O  O8  1  0.24973000  0.95560100  0.70808800  1
  O  O9  1  0.45525200  0.75002300  0.26426900  1
  O  O10  1  0.52714100  0.24981800  0.70540300  1
  O  O11  1  0.75002800  0.04415300  0.32078100  1
  O  O12  1  0.74996100  0.45584200  0.32080100  1
  O  O13  1  0.75001500  0.75000900  0.68773700  1
  O  O14  1  0.97288900  0.25016700  0.70540900  1
