# generated using pymatgen
data_Na12Nb10Zn2Si15(SO24)3
_symmetry_space_group_name_H-M   'P 1'
_cell_length_a   9.01350611
_cell_length_b   9.00991902
_cell_length_c   22.73313652
_cell_angle_alpha   90.00598912
_cell_angle_beta   90.11282918
_cell_angle_gamma   120.02906881
_symmetry_Int_Tables_number   1
_chemical_formula_structural   Na12Nb10Zn2Si15(SO24)3
_chemical_formula_sum   'Na12 Nb10 Zn2 Si15 S3 O72'
_cell_volume   1598.36574704
_cell_formula_units_Z   1
loop_
 _symmetry_equiv_pos_site_id
 _symmetry_equiv_pos_as_xyz
  1  'x, y, z'
loop_
 _atom_site_type_symbol
 _atom_site_label
 _atom_site_symmetry_multiplicity
 _atom_site_fract_x
 _atom_site_fract_y
 _atom_site_fract_z
 _atom_site_occupancy
  Na  Na0  1  0.37505941  0.36566390  0.24334203  1
  Na  Na1  1  0.98753615  0.61907662  0.24144073  1
  Na  Na2  1  0.63368541  0.62423427  0.74349284  1
  Na  Na3  1  0.38017529  0.01222647  0.74135295  1
  Na  Na4  1  0.02485222  0.68491585  0.58462978  1
  Na  Na5  1  0.65912382  0.97553387  0.58432070  1
  Na  Na6  1  0.00854680  0.00875352  0.49720920  1
  Na  Na7  1  0.00176627  0.99890345  0.99949355  1
  Na  Na8  1  0.68625318  0.33347718  0.82962431  1
  Na  Na9  1  0.66593707  0.31507623  0.33083377  1
  Na  Na10  1  0.33363944  0.66903055  0.16290120  1
  Na  Na11  1  0.32290579  0.65092520  0.66474723  1
  Nb  Nb12  1  0.00993893  0.01495671  0.35779086  1
  Nb  Nb13  1  0.98604061  0.98861058  0.85846698  1
  Nb  Nb14  1  0.99248085  0.99030824  0.64295509  1
  Nb  Nb15  1  0.02075599  0.00951844  0.14260334  1
  Nb  Nb16  1  0.66536166  0.34548962  0.97717235  1
  Nb  Nb17  1  0.66590670  0.33000151  0.47845547  1
  Nb  Nb18  1  0.32072162  0.65678569  0.01992859  1
  Nb  Nb19  1  0.33438979  0.66566189  0.51893027  1
  Nb  Nb20  1  0.32562917  0.66726825  0.31506289  1
  Nb  Nb21  1  0.33048224  0.67465891  0.81560519  1
  Zn  Zn22  1  0.68495782  0.33576279  0.68202728  1
  Zn  Zn23  1  0.66852668  0.32627994  0.18282212  1
  Si  Si24  1  0.29615745  0.00245497  0.25099576  1
  Si  Si25  1  0.99338925  0.28773151  0.24954434  1
  Si  Si26  1  0.99757761  0.70486670  0.75055838  1
  Si  Si27  1  0.70960721  0.00443413  0.75081911  1
  Si  Si28  1  0.95913499  0.33598289  0.58409644  1
  Si  Si29  1  0.37924493  0.04831245  0.58588553  1
  Si  Si30  1  0.65542604  0.60970139  0.58641777  1
  Si  Si31  1  0.95368123  0.62087551  0.08720554  1
  Si  Si32  1  0.38816366  0.34301260  0.08646247  1
  Si  Si33  1  0.61420228  0.66508896  0.91711918  1
  Si  Si34  1  0.04028325  0.37413715  0.91602391  1
  Si  Si35  1  0.33554766  0.96080412  0.91855877  1
  Si  Si36  1  0.62420729  0.95726696  0.41645381  1
  Si  Si37  1  0.34113199  0.38248725  0.41563611  1
  Si  Si38  1  0.03871484  0.66624282  0.41759163  1
  S  S39  1  0.71193980  0.71875797  0.25084806  1
  S  S40  1  0.28228482  0.28790096  0.75120287  1
  S  S41  1  0.66586400  0.04087860  0.08331599  1
  O  O42  1  0.18381390  0.01598688  0.30598267  1
  O  O43  1  0.81702170  0.80324585  0.30379947  1
  O  O44  1  0.98054987  0.16932264  0.30704315  1
  O  O45  1  0.19754409  0.18365710  0.80391527  1
  O  O46  1  0.98889714  0.81996434  0.80587031  1
  O  O47  1  0.83194947  0.01813196  0.80685266  1
  O  O48  1  0.80489148  0.97310975  0.69266279  1
  O  O49  1  0.17788762  0.20616398  0.69704446  1
  O  O50  1  0.03372743  0.83231740  0.69189359  1
  O  O51  1  0.79176217  0.82097730  0.19699107  1
  O  O52  1  0.02520666  0.18766972  0.19347801  1
  O  O53  1  0.16536653  0.96591146  0.19257007  1
  O  O54  1  0.89563197  0.39282810  0.64058847  1
  O  O55  1  0.49118248  0.11205859  0.64506107  1
  O  O56  1  0.62695342  0.51357693  0.64764096  1
  O  O57  1  0.88666423  0.51733014  0.14732196  1
  O  O58  1  0.63686292  0.11118371  0.13710745  1
  O  O59  1  0.48533659  0.36677222  0.14722390  1
  O  O60  1  0.47625794  0.30812413  0.02808901  1
  O  O61  1  0.83261274  0.52145590  0.02876540  1
  O  O62  1  0.69371106  0.14798129  0.03015827  1
  O  O63  1  0.47300447  0.16802621  0.52785178  1
  O  O64  1  0.70109969  0.52775318  0.52932601  1
  O  O65  1  0.83137916  0.29416528  0.52661204  1
  O  O66  1  0.52372844  0.69396060  0.97341552  1
  O  O67  1  0.16267001  0.46726503  0.97344748  1
  O  O68  1  0.30399111  0.83263425  0.97308165  1
  O  O69  1  0.53559980  0.84226021  0.47525813  1
  O  O70  1  0.30994410  0.47629431  0.47172356  1
  O  O71  1  0.16114016  0.69729647  0.47471105  1
  O  O72  1  0.13350270  0.63793587  0.35872628  1
  O  O73  1  0.49777929  0.85620433  0.35965765  1
  O  O74  1  0.36048857  0.49440903  0.35607542  1
  O  O75  1  0.13890631  0.50151460  0.85929285  1
  O  O76  1  0.36390847  0.86928561  0.85827557  1
  O  O77  1  0.50342164  0.63875012  0.85660816  1
  O  O78  1  0.02104976  0.83556279  0.40770688  1
  O  O79  1  0.81121916  0.97247888  0.40809146  1
  O  O80  1  0.16697957  0.19184522  0.41105332  1
  O  O81  1  0.02824838  0.18902069  0.90794280  1
  O  O82  1  0.16728802  0.98055841  0.90795430  1
  O  O83  1  0.80851406  0.83301116  0.91116286  1
  O  O84  1  0.97218816  0.15936314  0.59123957  1
  O  O85  1  0.18258338  0.02014084  0.59018956  1
  O  O86  1  0.83560457  0.80939983  0.59017292  1
  O  O87  1  0.96765591  0.81367311  0.09031218  1
  O  O88  1  0.82248190  0.02131242  0.08862610  1
  O  O89  1  0.18847091  0.16642978  0.08903871  1
  O  O90  1  0.67432634  0.16111599  0.75005043  1
  O  O91  1  0.45259183  0.30568642  0.74786804  1
  O  O92  1  0.82176411  0.52672134  0.75051658  1
  O  O93  1  0.69283512  0.54642331  0.24863786  1
  O  O94  1  0.83586749  0.32192160  0.24851050  1
  O  O95  1  0.47546317  0.17645945  0.24795557  1
  O  O96  1  0.63895505  0.49684229  0.92304788  1
  O  O97  1  0.85301601  0.35520973  0.92496129  1
  O  O98  1  0.50843452  0.14602507  0.92554977  1
  O  O99  1  0.64025390  0.14455207  0.42229361  1
  O  O100  1  0.50753838  0.36081038  0.42319903  1
  O  O101  1  0.85376144  0.49357486  0.42375161  1
  O  O102  1  0.35583736  0.50542636  0.07496446  1
  O  O103  1  0.15039927  0.65556732  0.07457647  1
  O  O104  1  0.51360168  0.86542244  0.07562168  1
  O  O105  1  0.34806974  0.85178732  0.57455023  1
  O  O106  1  0.50473088  0.65916052  0.57551017  1
  O  O107  1  0.15105092  0.50174223  0.57241686  1
  O  O108  1  0.29875950  0.82024232  0.25545101  1
  O  O109  1  0.53583838  0.69789849  0.25493854  1
  O  O110  1  0.17930941  0.47508189  0.25510243  1
  O  O111  1  0.30145953  0.46328926  0.75462832  1
  O  O112  1  0.17917152  0.70010603  0.75550390  1
  O  O113  1  0.52298815  0.81792190  0.75550156  1
