# generated using pymatgen
data_Na5In3Ge(PO4)6
_symmetry_space_group_name_H-M   'P 1'
_cell_length_a   8.93977849
_cell_length_b   8.94748120
_cell_length_c   22.39818655
_cell_angle_alpha   89.97296180
_cell_angle_beta   89.99349960
_cell_angle_gamma   120.04209465
_symmetry_Int_Tables_number   1
_chemical_formula_structural   Na5In3Ge(PO4)6
_chemical_formula_sum   'Na15 In9 Ge3 P18 O72'
_cell_volume   1550.90996105
_cell_formula_units_Z   3
loop_
 _symmetry_equiv_pos_site_id
 _symmetry_equiv_pos_as_xyz
  1  'x, y, z'
loop_
 _atom_site_type_symbol
 _atom_site_label
 _atom_site_symmetry_multiplicity
 _atom_site_fract_x
 _atom_site_fract_y
 _atom_site_fract_z
 _atom_site_occupancy
  Na  Na0  1  0.63871202  0.00180752  0.25530174  1
  Na  Na1  1  0.36368055  0.36235970  0.25593458  1
  Na  Na2  1  0.99808432  0.63671344  0.25527684  1
  Na  Na3  1  0.64853816  0.64405203  0.75087113  1
  Na  Na4  1  0.99642430  0.35618613  0.75139923  1
  Na  Na5  1  0.03608123  0.70299372  0.57956326  1
  Na  Na6  1  0.66346447  0.96329207  0.57951342  1
  Na  Na7  1  0.66361025  0.70119235  0.07916049  1
  Na  Na8  1  0.03692577  0.33330574  0.07916053  1
  Na  Na9  1  0.01308613  0.01450625  0.49647760  1
  Na  Na10  1  0.01387523  0.99848871  0.99406357  1
  Na  Na11  1  0.65344172  0.31975002  0.83555918  1
  Na  Na12  1  0.66655530  0.33345149  0.34082993  1
  Na  Na13  1  0.33228301  0.68100103  0.16570818  1
  Na  Na14  1  0.33339854  0.66613144  0.66592478  1
  In  In15  1  0.99883380  0.99857160  0.35565325  1
  In  In16  1  0.00170840  0.00028940  0.85334835  1
  In  In17  1  0.00964486  0.00742352  0.65012521  1
  In  In18  1  0.00716505  0.99925825  0.14563522  1
  In  In19  1  0.65733733  0.32749917  0.68400095  1
  In  In20  1  0.66348345  0.32968015  0.18067478  1
  In  In21  1  0.33292406  0.67235874  0.01285270  1
  In  In22  1  0.33265383  0.65970876  0.51341006  1
  In  In23  1  0.33339714  0.66508666  0.32655012  1
  Ge  Ge24  1  0.66425553  0.33148981  0.97696744  1
  Ge  Ge25  1  0.66338555  0.33204932  0.48122176  1
  Ge  Ge26  1  0.33393101  0.67301319  0.82118509  1
  P  P27  1  0.29517717  0.99651892  0.25051214  1
  P  P28  1  0.70185755  0.70434134  0.24775284  1
  P  P29  1  0.00242430  0.29811386  0.24802033  1
  P  P30  1  0.29800078  0.30963409  0.75470704  1
  P  P31  1  0.01235673  0.70412132  0.75129424  1
  P  P32  1  0.69176458  0.99041332  0.75204255  1
  P  P33  1  0.95314716  0.33154548  0.58266218  1
  P  P34  1  0.37595081  0.04507364  0.57957383  1
  P  P35  1  0.66703058  0.62326413  0.58291263  1
  P  P36  1  0.95313585  0.62102631  0.07920104  1
  P  P37  1  0.66685471  0.04406211  0.07985083  1
  P  P38  1  0.37650445  0.33021542  0.07832265  1
  P  P39  1  0.62534704  0.65505736  0.91756577  1
  P  P40  1  0.02949500  0.37452344  0.91789720  1
  P  P41  1  0.34492770  0.96954024  0.91706498  1
  P  P42  1  0.63803295  0.98241255  0.42041231  1
  P  P43  1  0.34472422  0.36172065  0.41831984  1
  P  P44  1  0.01745929  0.65533880  0.42063996  1
  O  O45  1  0.21272048  0.03254642  0.30378647  1
  O  O46  1  0.82451483  0.79176589  0.29984806  1
  O  O47  1  0.96866397  0.17544480  0.29994330  1
  O  O48  1  0.21717354  0.19580049  0.80874754  1
  O  O49  1  0.96822437  0.78867883  0.80200357  1
  O  O50  1  0.81812226  0.02943429  0.80335647  1
  O  O51  1  0.76054983  0.94970512  0.69341600  1
  O  O52  1  0.18374443  0.23813503  0.69794207  1
  O  O53  1  0.04313827  0.80310037  0.69125891  1
  O  O54  1  0.77276712  0.80611158  0.18807924  1
  O  O55  1  0.03342554  0.22788072  0.18823911  1
  O  O56  1  0.18662521  0.95952965  0.19283596  1
  O  O57  1  0.88474829  0.36020943  0.64254874  1
  O  O58  1  0.48061364  0.11399158  0.63718251  1
  O  O59  1  0.64604498  0.53401510  0.64366353  1
  O  O60  1  0.88473028  0.52631870  0.13961335  1
  O  O61  1  0.64603878  0.11106725  0.14095517  1
  O  O62  1  0.47134320  0.35816384  0.13861391  1
  O  O63  1  0.47633495  0.31154142  0.02485292  1
  O  O64  1  0.82767187  0.52142260  0.02644039  1
  O  O65  1  0.69143917  0.16917773  0.02735525  1
  O  O66  1  0.47049642  0.16103175  0.52488918  1
  O  O67  1  0.69177868  0.52287696  0.53052184  1
  O  O68  1  0.82694827  0.30380195  0.52994332  1
  O  O69  1  0.55268411  0.68112241  0.97631674  1
  O  O70  1  0.12970376  0.44657490  0.97643995  1
  O  O71  1  0.31400722  0.86872430  0.97498353  1
  O  O72  1  0.55269401  0.87162714  0.47591010  1
  O  O73  1  0.31479407  0.45016023  0.47101009  1
  O  O74  1  0.12982098  0.68278596  0.47581301  1
  O  O75  1  0.09499953  0.62764990  0.36184558  1
  O  O76  1  0.53321184  0.90320237  0.36174852  1
  O  O77  1  0.37241843  0.46265505  0.35832484  1
  O  O78  1  0.12588082  0.49595383  0.86235963  1
  O  O79  1  0.37249124  0.87401257  0.86216781  1
  O  O80  1  0.50509636  0.63240804  0.86204798  1
  O  O81  1  -0.00805838  0.81172456  0.41635484  1
  O  O82  1  0.82012242  0.00736791  0.41630027  1
  O  O83  1  0.18895722  0.17929651  0.41501393  1
  O  O84  1  0.00374980  0.19337300  0.91121401  1
  O  O85  1  0.18983923  0.99537274  0.91001133  1
  O  O86  1  0.80684927  0.81114977  0.91099626  1
  O  O87  1  0.96094061  0.16205692  0.58443067  1
  O  O88  1  0.19351862  0.02458197  0.58252890  1
  O  O89  1  0.83657112  0.80399273  0.58326949  1
  O  O90  1  0.96138640  0.79804346  0.07965807  1
  O  O91  1  0.83590803  0.03278677  0.07944676  1
  O  O92  1  0.19303793  0.16991981  0.07893198  1
  O  O93  1  0.67252055  0.15169838  0.74720998  1
  O  O94  1  0.48463475  0.34400180  0.74832280  1
  O  O95  1  0.85326803  0.51776643  0.74743238  1
  O  O96  1  0.67875388  0.51997490  0.24529477  1
  O  O97  1  0.84062442  0.32059620  0.24591409  1
  O  O98  1  0.47878265  0.15897506  0.24623384  1
  O  O99  1  0.63409704  0.48350979  0.92080231  1
  O  O100  1  0.84879763  0.36540475  0.92168782  1
  O  O101  1  0.51639223  0.14973202  0.92136215  1
  O  O102  1  0.64867029  0.16160453  0.42607645  1
  O  O103  1  0.51508802  0.35517946  0.42600202  1
  O  O104  1  0.83881593  0.48606365  0.42740447  1
  O  O105  1  0.35701067  0.49385720  0.07524313  1
  O  O106  1  0.13222882  0.63569403  0.07556334  1
  O  O107  1  0.51184901  0.85822836  0.07640239  1
  O  O108  1  0.35299376  0.86069195  0.57542962  1
  O  O109  1  0.51214194  0.65379743  0.57779207  1
  O  O110  1  0.13228398  0.49518233  0.57699821  1
  O  O111  1  0.31469915  0.83398963  0.25709615  1
  O  O112  1  0.52170188  0.68894579  0.25498415  1
  O  O113  1  0.16621680  0.47932999  0.25514202  1
  O  O114  1  0.31075616  0.49337909  0.76240428  1
  O  O115  1  0.17662757  0.68525917  0.76200265  1
  O  O116  1  0.51345792  0.81889248  0.76224805  1
