# generated using pymatgen
data_Na9Nb2Zn4(PO4)9
_symmetry_space_group_name_H-M   'P 1'
_cell_length_a   15.60711551
_cell_length_b   26.98502269
_cell_length_c   8.94379052
_cell_angle_alpha   89.81378562
_cell_angle_beta   124.94861296
_cell_angle_gamma   90.04154035
_symmetry_Int_Tables_number   1
_chemical_formula_structural   Na9Nb2Zn4(PO4)9
_chemical_formula_sum   'Na36 Nb8 Zn16 P36 O144'
_cell_volume   3087.45996533
_cell_formula_units_Z   4
loop_
 _symmetry_equiv_pos_site_id
 _symmetry_equiv_pos_as_xyz
  1  'x, y, z'
loop_
 _atom_site_type_symbol
 _atom_site_label
 _atom_site_symmetry_multiplicity
 _atom_site_fract_x
 _atom_site_fract_y
 _atom_site_fract_z
 _atom_site_occupancy
  Na  Na0  1  0.26025320  0.24926675  0.02939488  1
  Na  Na1  1  0.24792310  0.58256094  0.00150946  1
  Na  Na2  1  0.25069658  0.91743033  0.00526710  1
  Na  Na3  1  0.75674980  0.25135130  0.51796932  1
  Na  Na4  1  0.76215111  0.58907660  0.53213919  1
  Na  Na5  1  0.75326383  0.90967453  0.52370173  1
  Na  Na6  1  0.74792310  0.08256094  0.00150946  1
  Na  Na7  1  0.75069658  0.41743033  0.00526710  1
  Na  Na8  1  0.76025320  0.74926675  0.02939488  1
  Na  Na9  1  0.26215111  0.08907660  0.53213919  1
  Na  Na10  1  0.25326383  0.40967453  0.52370173  1
  Na  Na11  1  0.25674980  0.75135130  0.51796932  1
  Na  Na12  1  0.49565563  0.03897169  0.74382575  1
  Na  Na13  1  0.49673804  0.37400039  0.74239397  1
  Na  Na14  1  0.49558750  0.70180822  0.75598726  1
  Na  Na15  1  0.50114201  0.30088194  0.26946773  1
  Na  Na16  1  0.49185705  0.63072089  0.24938775  1
  Na  Na17  1  0.49839648  0.96882315  0.26537239  1
  Na  Na18  1  0.99558750  0.20180822  0.75598726  1
  Na  Na19  1  0.99565563  0.53897169  0.74382575  1
  Na  Na20  1  0.99673804  0.87400039  0.74239397  1
  Na  Na21  1  0.99185705  0.13072089  0.24938775  1
  Na  Na22  1  0.99839648  0.46882315  0.26537239  1
  Na  Na23  1  0.00114201  0.80088194  0.26946773  1
  Na  Na24  1  0.82252504  0.97628763  0.21553428  1
  Na  Na25  1  0.18695896  0.63698349  0.29875334  1
  Na  Na26  1  0.19396689  0.97200210  0.30325534  1
  Na  Na27  1  0.18640546  0.68896817  0.75969425  1
  Na  Na28  1  0.80591680  0.02112605  0.71426226  1
  Na  Na29  1  0.80616078  0.35696292  0.70802459  1
  Na  Na30  1  0.32252504  0.47628763  0.21553428  1
  Na  Na31  1  0.68695896  0.13698349  0.29875334  1
  Na  Na32  1  0.69396689  0.47200210  0.30325534  1
  Na  Na33  1  0.68640546  0.18896817  0.75969425  1
  Na  Na34  1  0.30591680  0.52112605  0.71426226  1
  Na  Na35  1  0.30616078  0.85696292  0.70802459  1
  Nb  Nb36  1  0.10822391  0.25184923  0.56100475  1
  Nb  Nb37  1  0.10616409  0.08373266  0.05765997  1
  Nb  Nb38  1  0.10584458  0.41302314  0.05890336  1
  Nb  Nb39  1  0.10312880  0.74905297  0.06092635  1
  Nb  Nb40  1  0.60822391  0.75184923  0.56100475  1
  Nb  Nb41  1  0.60312880  0.24905297  0.06092635  1
  Nb  Nb42  1  0.60616409  0.58373266  0.05765997  1
  Nb  Nb43  1  0.60584458  0.91302314  0.05890336  1
  Zn  Zn44  1  0.08948735  0.58531068  0.54872990  1
  Zn  Zn45  1  0.10016640  0.92058362  0.55972242  1
  Zn  Zn46  1  0.90131665  0.25159912  0.95624543  1
  Zn  Zn47  1  0.89965060  0.58474608  0.95409749  1
  Zn  Zn48  1  0.90040415  0.91642027  0.95398289  1
  Zn  Zn49  1  0.90261050  0.08166151  0.45150314  1
  Zn  Zn50  1  0.90007024  0.41603491  0.44462663  1
  Zn  Zn51  1  0.89860887  0.74768594  0.44506774  1
  Zn  Zn52  1  0.58948735  0.08531068  0.54872990  1
  Zn  Zn53  1  0.60016640  0.42058362  0.55972242  1
  Zn  Zn54  1  0.39965060  0.08474608  0.95409749  1
  Zn  Zn55  1  0.40040415  0.41642027  0.95398289  1
  Zn  Zn56  1  0.40131665  0.75159912  0.95624543  1
  Zn  Zn57  1  0.39860887  0.24768594  0.44506774  1
  Zn  Zn58  1  0.40261050  0.58166151  0.45150314  1
  Zn  Zn59  1  0.40007024  0.91603491  0.44462663  1
  P  P60  1  0.99737036  0.31800327  0.73837384  1
  P  P61  1  0.99829094  0.65081772  0.74623520  1
  P  P62  1  0.99901721  0.98433432  0.74305336  1
  P  P63  1  0.99971318  0.01592779  0.24439880  1
  P  P64  1  0.99528534  0.34901888  0.23683767  1
  P  P65  1  0.00035128  0.68182263  0.25447781  1
  P  P66  1  0.49829094  0.15081772  0.74623520  1
  P  P67  1  0.49901721  0.48433432  0.74305336  1
  P  P68  1  0.49737036  0.81800327  0.73837384  1
  P  P69  1  0.50035128  0.18182263  0.25447781  1
  P  P70  1  0.49971318  0.51592779  0.24439880  1
  P  P71  1  0.49528534  0.84901888  0.23683767  1
  P  P72  1  0.35375024  0.29815549  0.74500392  1
  P  P73  1  0.35039887  0.63249552  0.74997108  1
  P  P74  1  0.35178412  0.96508977  0.75128055  1
  P  P75  1  0.64531514  0.30018128  0.73891337  1
  P  P76  1  0.64470967  0.63303148  0.73439258  1
  P  P77  1  0.64624785  0.96580365  0.73846899  1
  P  P78  1  0.64819836  0.03198650  0.24336554  1
  P  P79  1  0.64585176  0.36736466  0.24248202  1
  P  P80  1  0.64396599  0.70119849  0.23618782  1
  P  P81  1  0.35306181  0.03489712  0.25537014  1
  P  P82  1  0.35468836  0.36736267  0.25907400  1
  P  P83  1  0.35024108  0.70198825  0.24920495  1
  P  P84  1  0.85039887  0.13249552  0.74997108  1
  P  P85  1  0.85178412  0.46508977  0.75128055  1
  P  P86  1  0.85375024  0.79815549  0.74500392  1
  P  P87  1  0.14470967  0.13303148  0.73439258  1
  P  P88  1  0.14624785  0.46580365  0.73846899  1
  P  P89  1  0.14531514  0.80018128  0.73891337  1
  P  P90  1  0.14396599  0.20119849  0.23618782  1
  P  P91  1  0.14819836  0.53198650  0.24336554  1
  P  P92  1  0.14585176  0.86736466  0.24248202  1
  P  P93  1  0.85024108  0.20198825  0.24920495  1
  P  P94  1  0.85306181  0.53489712  0.25537014  1
  P  P95  1  0.85468836  0.86736267  0.25907400  1
  O  O96  1  0.14791456  0.19244254  0.73863921  1
  O  O97  1  0.15456743  0.52283626  0.76298706  1
  O  O98  1  0.15552270  0.85662344  0.76206712  1
  O  O99  1  0.84138114  0.18940390  0.75182254  1
  O  O100  1  0.85127268  0.52160424  0.76248286  1
  O  O101  1  0.84685455  0.85389022  0.76245479  1
  O  O102  1  0.84146796  0.14561804  0.26248289  1
  O  O103  1  0.83505891  0.47858257  0.25698877  1
  O  O104  1  0.84592998  0.81100004  0.25489716  1
  O  O105  1  0.14966821  0.14248073  0.24724608  1
  O  O106  1  0.15587416  0.47263629  0.23430254  1
  O  O107  1  0.15094167  0.80813687  0.22917119  1
  O  O108  1  0.65456743  0.02283626  0.76298706  1
  O  O109  1  0.65552270  0.35662344  0.76206712  1
  O  O110  1  0.64791456  0.69244254  0.73863921  1
  O  O111  1  0.35127268  0.02160424  0.76248286  1
  O  O112  1  0.34685455  0.35389022  0.76245479  1
  O  O113  1  0.34138114  0.68940390  0.75182254  1
  O  O114  1  0.34592998  0.31100004  0.25489716  1
  O  O115  1  0.34146796  0.64561804  0.26248289  1
  O  O116  1  0.33505891  0.97858257  0.25698877  1
  O  O117  1  0.65094167  0.30813687  0.22917119  1
  O  O118  1  0.64966821  0.64248073  0.24724608  1
  O  O119  1  0.65587416  0.97263629  0.23430254  1
  O  O120  1  0.44132466  0.18309666  0.57945763  1
  O  O121  1  0.43383904  0.51539795  0.56995859  1
  O  O122  1  0.43438133  0.85065151  0.57386028  1
  O  O123  1  0.55954430  0.18730245  0.92329087  1
  O  O124  1  0.55711598  0.52370848  0.91201202  1
  O  O125  1  0.56298137  0.85065400  0.91613296  1
  O  O126  1  0.57752028  0.15316951  0.43416634  1
  O  O127  1  0.57300458  0.48387198  0.41168586  1
  O  O128  1  0.55823559  0.81148695  0.40717056  1
  O  O129  1  0.44379713  0.14969917  0.08762169  1
  O  O130  1  0.43128533  0.48650065  0.06828311  1
  O  O131  1  0.43374150  0.81957494  0.06295408  1
  O  O132  1  0.93383904  0.01539795  0.56995859  1
  O  O133  1  0.93438133  0.35065151  0.57386028  1
  O  O134  1  0.94132466  0.68309666  0.57945763  1
  O  O135  1  0.05711598  0.02370848  0.91201202  1
  O  O136  1  0.06298137  0.35065400  0.91613296  1
  O  O137  1  0.05954430  0.68730245  0.92329087  1
  O  O138  1  0.05823559  0.31148695  0.40717056  1
  O  O139  1  0.07752028  0.65316951  0.43416634  1
  O  O140  1  0.07300458  0.98387198  0.41168586  1
  O  O141  1  0.93374150  0.31957494  0.06295408  1
  O  O142  1  0.94379713  0.64969917  0.08762169  1
  O  O143  1  0.93128533  0.98650065  0.06828311  1
  O  O144  1  0.25692880  0.27253164  0.73222705  1
  O  O145  1  0.27075928  0.60591363  0.77067596  1
  O  O146  1  0.27217854  0.93716074  0.76840203  1
  O  O147  1  0.74055490  0.27668715  0.75442858  1
  O  O148  1  0.74035087  0.61156344  0.75689202  1
  O  O149  1  0.74139414  0.94481922  0.75033981  1
  O  O150  1  0.74245795  0.05324004  0.24948225  1
  O  O151  1  0.73818162  0.39094898  0.25245703  1
  O  O152  1  0.73875538  0.72311763  0.25574028  1
  O  O153  1  0.25057645  0.05951019  0.22900519  1
  O  O154  1  0.25264176  0.39036191  0.23656089  1
  O  O155  1  0.25861655  0.72607435  0.25028446  1
  O  O156  1  0.77075928  0.10591363  0.77067596  1
  O  O157  1  0.77217854  0.43716074  0.76840203  1
  O  O158  1  0.75692880  0.77253164  0.73222705  1
  O  O159  1  0.24035087  0.11156344  0.75689202  1
  O  O160  1  0.24139414  0.44481922  0.75033981  1
  O  O161  1  0.24055490  0.77668715  0.75442858  1
  O  O162  1  0.23875538  0.22311763  0.25574028  1
  O  O163  1  0.24245795  0.55324004  0.24948225  1
  O  O164  1  0.23818162  0.89094898  0.25245703  1
  O  O165  1  0.75861655  0.22607435  0.25028446  1
  O  O166  1  0.75057645  0.55951019  0.22900519  1
  O  O167  1  0.75264176  0.89036191  0.23656089  1
  O  O168  1  0.35225167  0.28479846  0.58128404  1
  O  O169  1  0.34340771  0.61802379  0.57770107  1
  O  O170  1  0.34533486  0.95034662  0.58034751  1
  O  O171  1  0.63845946  0.27894786  0.90227812  1
  O  O172  1  0.63850342  0.61987816  0.90247494  1
  O  O173  1  0.64646953  0.94562797  0.91054976  1
  O  O174  1  0.65240793  0.04174610  0.41764151  1
  O  O175  1  0.64716520  0.37484516  0.41555665  1
  O  O176  1  0.63621677  0.71570277  0.40314120  1
  O  O177  1  0.35710980  0.04685089  0.09448984  1
  O  O178  1  0.35203676  0.38589179  0.09544435  1
  O  O179  1  0.34180418  0.71376365  0.07450391  1
  O  O180  1  0.84340771  0.11802379  0.57770107  1
  O  O181  1  0.84533486  0.45034662  0.58034751  1
  O  O182  1  0.85225167  0.78479846  0.58128404  1
  O  O183  1  0.13850342  0.11987816  0.90247494  1
  O  O184  1  0.14646953  0.44562797  0.91054976  1
  O  O185  1  0.13845946  0.77894786  0.90227812  1
  O  O186  1  0.13621677  0.21570277  0.40314120  1
  O  O187  1  0.15240793  0.54174610  0.41764151  1
  O  O188  1  0.14716520  0.87484516  0.41555665  1
  O  O189  1  0.84180418  0.21376365  0.07450391  1
  O  O190  1  0.85710980  0.54685089  0.09448984  1
  O  O191  1  0.85203676  0.88589179  0.09544435  1
  O  O192  1  0.45616775  0.27672324  0.92617144  1
  O  O193  1  0.46342843  0.61544532  0.92055731  1
  O  O194  1  0.46519334  0.94321515  0.92039234  1
  O  O195  1  0.54612705  0.28267099  0.56302490  1
  O  O196  1  0.54180010  0.61858389  0.55912695  1
  O  O197  1  0.54439629  0.94982679  0.56486365  1
  O  O198  1  0.54728031  0.04990001  0.06997248  1
  O  O199  1  0.54368571  0.38428089  0.06655674  1
  O  O200  1  0.54101671  0.71610238  0.06186261  1
  O  O201  1  0.44610812  0.05444819  0.43936788  1
  O  O202  1  0.44626811  0.39020326  0.43928147  1
  O  O203  1  0.45629892  0.72298058  0.42061710  1
  O  O204  1  0.96342843  0.11544532  0.92055731  1
  O  O205  1  0.96519334  0.44321515  0.92039234  1
  O  O206  1  0.95616775  0.77672324  0.92617144  1
  O  O207  1  0.04180010  0.11858389  0.55912695  1
  O  O208  1  0.04439629  0.44982679  0.56486365  1
  O  O209  1  0.04612705  0.78267099  0.56302490  1
  O  O210  1  0.04101671  0.21610238  0.06186261  1
  O  O211  1  0.04728031  0.54990001  0.06997248  1
  O  O212  1  0.04368571  0.88428089  0.06655674  1
  O  O213  1  0.95629892  0.22298058  0.42061710  1
  O  O214  1  0.94610812  0.55444819  0.43936788  1
  O  O215  1  0.94626811  0.89020326  0.43928147  1
  O  O216  1  0.08054388  0.28500608  0.73549140  1
  O  O217  1  0.08991344  0.62133442  0.76553775  1
  O  O218  1  0.08550789  0.95270488  0.76103700  1
  O  O219  1  0.92529000  0.28220617  0.75173721  1
  O  O220  1  0.92606067  0.61571468  0.76063086  1
  O  O221  1  0.92256464  0.95252053  0.75950434  1
  O  O222  1  0.92627664  0.05183540  0.25586243  1
  O  O223  1  0.92890312  0.38623660  0.25649855  1
  O  O224  1  0.92831057  0.72015319  0.25633240  1
  O  O225  1  0.07812859  0.05111817  0.23003029  1
  O  O226  1  0.08375440  0.38011766  0.24392445  1
  O  O227  1  0.08292081  0.71654034  0.24207148  1
  O  O228  1  0.58991344  0.12133442  0.76553775  1
  O  O229  1  0.58550789  0.45270488  0.76103700  1
  O  O230  1  0.58054388  0.78500608  0.73549140  1
  O  O231  1  0.42606067  0.11571468  0.76063086  1
  O  O232  1  0.42256464  0.45252053  0.75950434  1
  O  O233  1  0.42529000  0.78220617  0.75173721  1
  O  O234  1  0.42831057  0.22015319  0.25633240  1
  O  O235  1  0.42627664  0.55183540  0.25586243  1
  O  O236  1  0.42890312  0.88623660  0.25649855  1
  O  O237  1  0.58292081  0.21654034  0.24207148  1
  O  O238  1  0.57812859  0.55111817  0.23003029  1
  O  O239  1  0.58375440  0.88011766  0.24392445  1
