# generated using pymatgen
data_CsCuCl3
_symmetry_space_group_name_H-M   'P 1'
_cell_length_a   7.28351781
_cell_length_b   7.28265101
_cell_length_c   18.18519688
_cell_angle_alpha   89.99983664
_cell_angle_beta   89.99982198
_cell_angle_gamma   119.99954439
_symmetry_Int_Tables_number   1
_chemical_formula_structural   CsCuCl3
_chemical_formula_sum   'Cs6 Cu6 Cl18'
_cell_volume   835.37470053
_cell_formula_units_Z   6
loop_
 _symmetry_equiv_pos_site_id
 _symmetry_equiv_pos_as_xyz
  1  'x, y, z'
loop_
 _atom_site_type_symbol
 _atom_site_label
 _atom_site_symmetry_multiplicity
 _atom_site_fract_x
 _atom_site_fract_y
 _atom_site_fract_z
 _atom_site_occupancy
  Cs  Cs0  1  0.64458177  0.28917795  0.75000040  1
  Cs  Cs1  1  0.35578151  0.64441339  0.91648836  1
  Cs  Cs2  1  0.28862545  0.64440481  0.58350882  1
  Cs  Cs3  1  0.71135969  0.35557665  0.08350641  1
  Cs  Cs4  1  0.64420787  0.35557877  0.41649134  1
  Cs  Cs5  1  0.35540710  0.71080729  0.24999861  1
  Cu  Cu6  1  0.93031926  0.00000292  0.49999786  1
  Cu  Cu7  1  0.93158282  0.93242903  0.66643347  1
  Cu  Cu8  1  0.99917683  0.06761047  0.33356784  1
  Cu  Cu9  1  0.00080373  0.93235449  0.83357630  1
  Cu  Cu10  1  0.06845511  0.06762755  0.16642339  1
  Cu  Cu11  1  0.06967634  -0.00000890  -0.00000151  1
  Cl  Cl12  1  0.35994451  0.14485143  0.92508089  1
  Cl  Cl13  1  0.85512749  0.21369984  0.25862436  1
  Cl  Cl14  1  0.78596007  0.64186824  0.59169577  1
  Cl  Cl15  1  0.21405059  0.35816561  0.09168203  1
  Cl  Cl16  1  0.64146510  0.78634013  0.74137763  1
  Cl  Cl17  1  0.64004339  0.85513927  0.42507860  1
  Cl  Cl18  1  0.14486717  0.78629333  0.75862811  1
  Cl  Cl19  1  0.85588875  0.64181617  0.90831520  1
  Cl  Cl20  1  0.78489387  0.14486880  0.57492337  1
  Cl  Cl21  1  0.21510584  0.85512884  0.07491625  1
  Cl  Cl22  1  0.14408741  0.35815334  0.40830608  1
  Cl  Cl23  1  0.35855920  0.21368492  0.24137179  1
  Cl  Cl24  1  0.89389492  0.78776803  0.24999927  1
  Cl  Cl25  1  0.10479296  0.89366337  0.41686957  1
  Cl  Cl26  1  0.78889263  0.89368657  0.08313358  1
  Cl  Cl27  1  0.21113002  0.10633782  0.58312700  1
  Cl  Cl28  1  0.89519298  0.10631872  0.91687149  1
  Cl  Cl29  1  0.10612364  0.21224216  0.75000769  1
