# generated using pymatgen
data_Na3Ti3AlSi3(SO8)3
_symmetry_space_group_name_H-M   'P 1'
_cell_length_a   8.69980834
_cell_length_b   8.72388691
_cell_length_c   22.27886610
_cell_angle_alpha   89.93513067
_cell_angle_beta   90.06574239
_cell_angle_gamma   120.10513058
_symmetry_Int_Tables_number   1
_chemical_formula_structural   Na3Ti3AlSi3(SO8)3
_chemical_formula_sum   'Na9 Ti9 Al3 Si9 S9 O72'
_cell_volume   1462.79005541
_cell_formula_units_Z   3
loop_
 _symmetry_equiv_pos_site_id
 _symmetry_equiv_pos_as_xyz
  1  'x, y, z'
loop_
 _atom_site_type_symbol
 _atom_site_label
 _atom_site_symmetry_multiplicity
 _atom_site_fract_x
 _atom_site_fract_y
 _atom_site_fract_z
 _atom_site_occupancy
  Na  Na0  1  0.35860497  0.36172512  0.24568315  1
  Na  Na1  1  0.63742554  0.63262122  0.75135490  1
  Na  Na2  1  0.97004927  0.29644092  0.41549568  1
  Na  Na3  1  0.99695421  -0.00169141  0.49903492  1
  Na  Na4  1  0.99877917  0.99396869  0.00065351  1
  Na  Na5  1  0.66638740  0.33125259  0.83286350  1
  Na  Na6  1  0.66832496  0.32788907  0.33080175  1
  Na  Na7  1  0.31985124  0.66608652  0.16517463  1
  Na  Na8  1  0.31435006  0.66012542  0.66566598  1
  Ti  Ti9  1  0.00459780  0.98626074  0.85212870  1
  Ti  Ti10  1  0.01461648  0.01676255  0.64696011  1
  Ti  Ti11  1  0.01415242  0.01556710  0.14241921  1
  Ti  Ti12  1  0.66429957  0.35666465  0.98119944  1
  Ti  Ti13  1  0.66213024  0.31504771  0.47787146  1
  Ti  Ti14  1  0.33974317  0.65910859  0.02605059  1
  Ti  Ti15  1  0.33253523  0.64925085  0.51905920  1
  Ti  Ti16  1  0.33800170  0.66121683  0.31448726  1
  Ti  Ti17  1  0.32414290  0.64979125  0.81120286  1
  Al  Al18  1  0.99263545  0.01285859  0.35364725  1
  Al  Al19  1  0.67936375  0.34203277  0.68872564  1
  Al  Al20  1  0.68870133  0.34312425  0.18200317  1
  Si  Si21  1  0.98669715  0.28712661  0.25083741  1
  Si  Si22  1  0.29515230  0.28374443  0.75007296  1
  Si  Si23  1  0.00343174  0.70938292  0.74693126  1
  Si  Si24  1  0.95240882  0.33444952  0.58573360  1
  Si  Si25  1  0.95681728  0.62576156  0.08545962  1
  Si  Si26  1  0.38972208  0.33599338  0.08780109  1
  Si  Si27  1  0.62446514  0.67312331  0.91617799  1
  Si  Si28  1  0.62108593  0.94512847  0.41640982  1
  Si  Si29  1  0.33651205  0.36904955  0.41548915  1
  S  S30  1  0.28527524  0.99718343  0.25106761  1
  S  S31  1  0.71852447  0.71574182  0.25154040  1
  S  S32  1  0.71241431  0.00569057  0.74968779  1
  S  S33  1  0.38151934  0.04558317  0.58493724  1
  S  S34  1  0.66805438  0.62027527  0.58397740  1
  S  S35  1  0.66647312  0.04998827  0.08379323  1
  S  S36  1  0.04285875  0.37475740  0.91744614  1
  S  S37  1  0.33704487  0.95415157  0.91680023  1
  S  S38  1  0.04630461  0.67416791  0.41597738  1
  O  O39  1  0.19897892  0.02499453  0.30406384  1
  O  O40  1  0.82650980  0.79888328  0.30544162  1
  O  O41  1  0.96798441  0.17318835  0.31091890  1
  O  O42  1  0.19494715  0.16294691  0.80850372  1
  O  O43  1  0.96118467  0.79928179  0.80651256  1
  O  O44  1  0.82116868  0.03420285  0.80396291  1
  O  O45  1  0.79040296  0.96876028  0.69629221  1
  O  O46  1  0.16568261  0.20185762  0.69119952  1
  O  O47  1  0.02878311  0.83866680  0.69029751  1
  O  O48  1  0.79694915  0.82002992  0.19696773  1
  O  O49  1  0.03213071  0.19363435  0.19355196  1
  O  O50  1  0.17773101  0.96941577  0.19566934  1
  O  O51  1  0.85338030  0.35937654  0.64208759  1
  O  O52  1  0.48907057  0.13298709  0.63835817  1
  O  O53  1  0.63777501  0.51444919  0.63962395  1
  O  O54  1  0.87377925  0.49999979  0.14214130  1
  O  O55  1  0.63753692  0.12915225  0.13760670  1
  O  O56  1  0.50179291  0.35866277  0.14774129  1
  O  O57  1  0.47259518  0.30193501  0.02676707  1
  O  O58  1  0.83288168  0.53240711  0.02476307  1
  O  O59  1  0.69527203  0.15463846  0.02892849  1
  O  O60  1  0.46085637  0.15451528  0.52952105  1
  O  O61  1  0.68943126  0.53453782  0.53068032  1
  O  O62  1  0.83566336  0.30769068  0.52338293  1
  O  O63  1  0.52296808  0.69515143  0.97410572  1
  O  O64  1  0.15277308  0.46096378  0.97074025  1
  O  O65  1  0.30616256  0.84735344  0.97102459  1
  O  O66  1  0.51996228  0.82684116  0.47570851  1
  O  O67  1  0.29084275  0.46227926  0.47255649  1
  O  O68  1  0.15388460  0.70261491  0.47061752  1
  O  O69  1  0.12388863  0.63325498  0.36276638  1
  O  O70  1  0.49256567  0.85907818  0.35780884  1
  O  O71  1  0.36493711  0.49626871  0.35657153  1
  O  O72  1  0.12414798  0.48679078  0.86235410  1
  O  O73  1  0.35589300  0.86861170  0.86239155  1
  O  O74  1  0.50286508  0.64308222  0.85593604  1
  O  O75  1  0.02682913  0.82917703  0.40645354  1
  O  O76  1  0.81732777  0.97066304  0.40957515  1
  O  O77  1  0.16070707  0.17750212  0.40742185  1
  O  O78  1  0.02943791  0.20093562  0.91061809  1
  O  O79  1  0.17558841  0.97578483  0.91097003  1
  O  O80  1  0.82109092  0.84971910  0.90931862  1
  O  O81  1  0.97175997  0.15515854  0.59053507  1
  O  O82  1  0.20187114  0.02830015  0.58845097  1
  O  O83  1  0.82545760  0.79885311  0.58915428  1
  O  O84  1  0.97162065  0.81930348  0.09317456  1
  O  O85  1  0.82372761  0.02587585  0.09057062  1
  O  O86  1  0.18789638  0.16331703  0.09105597  1
  O  O87  1  0.68981060  0.16067896  0.74225326  1
  O  O88  1  0.49013013  0.31078600  0.73897093  1
  O  O89  1  0.82489604  0.51758072  0.74239354  1
  O  O90  1  0.68872636  0.53234037  0.24764326  1
  O  O91  1  0.81116699  0.30391771  0.24183187  1
  O  O92  1  0.46177875  0.15990405  0.24567744  1
  O  O93  1  0.64132242  0.49319479  0.92135364  1
  O  O94  1  0.86429317  0.35378996  0.92225736  1
  O  O95  1  0.49775956  0.13141521  0.92147010  1
  O  O96  1  0.64911815  0.14858816  0.42360755  1
  O  O97  1  0.51609909  0.36252005  0.42607147  1
  O  O98  1  0.86781220  0.51038653  0.42245486  1
  O  O99  1  0.36399074  0.50918735  0.07811489  1
  O  O100  1  0.15486938  0.65266649  0.07188519  1
  O  O101  1  0.50494413  0.87039111  0.07845531  1
  O  O102  1  0.36264594  0.86935982  0.57891220  1
  O  O103  1  0.50487273  0.63839503  0.57859812  1
  O  O104  1  0.15087117  0.51236925  0.57597211  1
  O  O105  1  0.30495183  0.83889284  0.25637888  1
  O  O106  1  0.53439973  0.69537634  0.25600940  1
  O  O107  1  0.17332114  0.48672003  0.25724044  1
  O  O108  1  0.31867898  0.48448873  0.75733873  1
  O  O109  1  0.18046096  0.69560952  0.75856061  1
  O  O110  1  0.53401096  0.84230992  0.75572868  1
