# generated using pymatgen
data_Na14Ca5Si6Sn3(SO8)6
_symmetry_space_group_name_H-M   'P 1'
_cell_length_a   18.80652836
_cell_length_b   9.39079360
_cell_length_c   22.87252220
_cell_angle_alpha   90.17961457
_cell_angle_beta   89.57567464
_cell_angle_gamma   120.07422863
_symmetry_Int_Tables_number   1
_chemical_formula_structural   Na14Ca5Si6Sn3(SO8)6
_chemical_formula_sum   'Na42 Ca15 Si18 Sn9 S18 O144'
_cell_volume   3495.57225191
_cell_formula_units_Z   3
loop_
 _symmetry_equiv_pos_site_id
 _symmetry_equiv_pos_as_xyz
  1  'x, y, z'
loop_
 _atom_site_type_symbol
 _atom_site_label
 _atom_site_symmetry_multiplicity
 _atom_site_fract_x
 _atom_site_fract_y
 _atom_site_fract_z
 _atom_site_occupancy
  Na  Na0  1  0.19632139  0.36320474  0.24605778  1
  Na  Na1  1  0.69191763  0.36048463  0.24463908  1
  Na  Na2  1  0.99487448  0.64924979  0.25288830  1
  Na  Na3  1  0.49334700  0.63651002  0.23940711  1
  Na  Na4  1  0.31655942  0.63551516  0.74695193  1
  Na  Na5  1  0.81516798  0.63116180  0.73333757  1
  Na  Na6  1  0.18950643  0.02728629  0.74471685  1
  Na  Na7  1  0.69185050  0.02585373  0.74542158  1
  Na  Na8  1  0.15285011  0.32063997  0.57617125  1
  Na  Na9  1  0.67028870  0.35140192  0.57986438  1
  Na  Na10  1  0.00851137  0.70196099  0.58107411  1
  Na  Na11  1  0.51573730  0.70122819  0.58465200  1
  Na  Na12  1  0.32104121  0.97499163  0.59635761  1
  Na  Na13  1  0.82224083  0.95844795  0.59531475  1
  Na  Na14  1  0.15704283  0.97980667  0.07866941  1
  Na  Na15  1  0.64489604  0.95943126  0.07135487  1
  Na  Na16  1  0.81725426  0.66424594  0.09667143  1
  Na  Na17  1  0.01605319  0.33004638  0.08340777  1
  Na  Na18  1  0.52014122  0.35353527  0.09110488  1
  Na  Na19  1  0.49439706  0.68174179  0.92630977  1
  Na  Na20  1  0.99444056  0.68608388  0.91698889  1
  Na  Na21  1  0.84270504  0.03180375  0.90173737  1
  Na  Na22  1  0.16486621  0.27980916  0.90588199  1
  Na  Na23  1  0.66205094  0.26917936  0.91223668  1
  Na  Na24  1  0.49571748  0.30883105  0.41877622  1
  Na  Na25  1  0.99067443  0.30044247  0.42231615  1
  Na  Na26  1  0.16290808  0.05701053  0.41294296  1
  Na  Na27  1  0.66518551  0.05807787  0.41285278  1
  Na  Na28  1  0.34690800  0.65337676  0.40160609  1
  Na  Na29  1  0.84658898  0.65438947  0.41498710  1
  Na  Na30  1  0.00714131  0.00202594  0.50502033  1
  Na  Na31  1  0.52255298  0.03125482  0.49988412  1
  Na  Na32  1  0.01406260  0.00693911  0.99867273  1
  Na  Na33  1  0.50438094  0.99326827  0.00349379  1
  Na  Na34  1  0.33251467  0.29478127  0.82879048  1
  Na  Na35  1  0.82303550  0.30362276  0.82399053  1
  Na  Na36  1  0.32063759  0.32623598  0.32359857  1
  Na  Na37  1  0.81516669  0.32257052  0.32660807  1
  Na  Na38  1  0.18981468  0.67591666  0.16518949  1
  Na  Na39  1  0.66309212  0.66412593  0.16388311  1
  Na  Na40  1  0.16106074  0.66996317  0.66840676  1
  Na  Na41  1  0.67494767  0.67423840  0.66307483  1
  Ca  Ca42  1  0.00117646  0.00166108  0.34743984  1
  Ca  Ca43  1  0.50174305  0.00032735  0.34506763  1
  Ca  Ca44  1  0.00294936  0.00900343  0.84562714  1
  Ca  Ca45  1  0.49959044  0.00669835  0.85060554  1
  Ca  Ca46  1  0.33080756  0.32385870  0.68460239  1
  Ca  Ca47  1  0.83001799  0.32759481  0.68281254  1
  Ca  Ca48  1  0.33024803  0.33349986  0.18374895  1
  Ca  Ca49  1  0.82740304  0.32306697  0.18396117  1
  Ca  Ca50  1  0.81842528  0.31223427  0.98506835  1
  Ca  Ca51  1  0.32084533  0.32483227  0.48418931  1
  Ca  Ca52  1  0.82189864  0.33839533  0.48898076  1
  Ca  Ca53  1  0.17250134  0.66857540  0.01802262  1
  Ca  Ca54  1  0.66455248  0.66381989  0.01730691  1
  Ca  Ca55  1  0.16679701  0.66902955  0.51690353  1
  Ca  Ca56  1  0.67035569  0.66949863  0.51851860  1
  Si  Si57  1  0.15219747  0.98952558  0.25521563  1
  Si  Si58  1  0.65100499  0.98748637  0.25489497  1
  Si  Si59  1  0.35116185  0.70546694  0.25374847  1
  Si  Si60  1  0.85096500  0.70379577  0.25127364  1
  Si  Si61  1  0.15001467  0.31261920  0.75299133  1
  Si  Si62  1  0.65205188  0.31182559  0.75680107  1
  Si  Si63  1  0.34955526  0.99588337  0.75067270  1
  Si  Si64  1  0.84905915  0.99841746  0.75526759  1
  Si  Si65  1  0.17510007  0.02270051  0.58645381  1
  Si  Si66  1  0.67133162  0.02379431  0.58730238  1
  Si  Si67  1  0.84104392  0.65492894  0.58635727  1
  Si  Si68  1  0.47821119  0.62752066  0.08279678  1
  Si  Si69  1  0.17535316  0.32247635  0.08925528  1
  Si  Si70  1  0.67344067  0.32107759  0.08759102  1
  Si  Si71  1  0.16989825  0.96756621  0.92112902  1
  Si  Si72  1  0.66702071  0.96338037  0.91559341  1
  Si  Si73  1  0.16635450  0.37282591  0.41636541  1
  Si  Si74  1  0.66541036  0.37067516  0.41517110  1
  Sn  Sn75  1  0.00038429  0.01229210  0.65479981  1
  Sn  Sn76  1  0.50618658  0.02773003  0.65949565  1
  Sn  Sn77  1  0.00654131  0.99255344  0.15724796  1
  Sn  Sn78  1  0.50196397  0.96886605  0.15187975  1
  Sn  Sn79  1  0.32323420  0.32380737  0.98854129  1
  Sn  Sn80  1  0.17846697  0.67662822  0.31176515  1
  Sn  Sn81  1  0.67690215  0.67208920  0.31032090  1
  Sn  Sn82  1  0.17419582  0.68324890  0.81348972  1
  Sn  Sn83  1  0.67095681  0.67557063  0.81198974  1
  S  S84  1  0.00496352  0.30482383  0.24963262  1
  S  S85  1  0.50347434  0.30476677  0.25104332  1
  S  S86  1  0.00519121  0.70428244  0.75223983  1
  S  S87  1  0.50336112  0.70630475  0.75015654  1
  S  S88  1  0.48174425  0.32467316  0.58204968  1
  S  S89  1  0.98390928  0.32887782  0.58231991  1
  S  S90  1  0.33949550  0.64871354  0.58468998  1
  S  S91  1  0.98368210  0.63912969  0.08343777  1
  S  S92  1  0.33716761  0.04132962  0.08272733  1
  S  S93  1  0.84306627  0.03308483  0.08303471  1
  S  S94  1  0.31393258  0.65218827  0.91524148  1
  S  S95  1  0.81678480  0.66441319  0.91664420  1
  S  S96  1  0.02036271  0.38025829  0.91683802  1
  S  S97  1  0.51425760  0.37556486  0.91712315  1
  S  S98  1  0.31550460  0.96768688  0.41679433  1
  S  S99  1  0.81486488  0.96934510  0.41536112  1
  S  S100  1  0.01850829  0.66051294  0.41414915  1
  S  S101  1  0.51827605  0.66200147  0.41629334  1
  O  O102  1  0.10930806  0.01341186  0.31202036  1
  O  O103  1  0.61229195  0.01498594  0.31337440  1
  O  O104  1  0.39179012  0.78157752  0.31545098  1
  O  O105  1  0.89771439  0.78619034  0.31047852  1
  O  O106  1  0.49608487  0.21760986  0.30592027  1
  O  O107  1  0.99268768  0.21143839  0.30241702  1
  O  O108  1  0.11669492  0.20229361  0.81102214  1
  O  O109  1  0.61227040  0.19739577  0.81282613  1
  O  O110  1  0.49336646  0.77934176  0.80443236  1
  O  O111  1  0.99425304  0.77520540  0.80672173  1
  O  O112  1  0.39803064  0.98668842  0.80502209  1
  O  O113  1  0.89124155  0.99807018  0.81573089  1
  O  O114  1  0.39277230  0.96727968  0.68772347  1
  O  O115  1  0.89702066  0.96932856  0.69747374  1
  O  O116  1  0.09127408  0.21920499  0.69409829  1
  O  O117  1  0.59662504  0.23084693  0.69507238  1
  O  O118  1  0.01805170  0.81473610  0.70061786  1
  O  O119  1  0.51501734  0.81646953  0.69776590  1
  O  O120  1  0.40048918  0.83277625  0.19739354  1
  O  O121  1  0.89819469  0.82150817  0.19015294  1
  O  O122  1  0.01433963  0.21707966  0.19597078  1
  O  O123  1  0.51185674  0.21673383  0.19900196  1
  O  O124  1  0.08921080  0.94744645  0.19538257  1
  O  O125  1  0.58896631  0.94683820  0.19602135  1
  O  O126  1  0.43976394  0.34763728  0.63218691  1
  O  O127  1  0.94081677  0.34552354  0.63253136  1
  O  O128  1  0.23792458  0.10783146  0.64013826  1
  O  O129  1  0.73008178  0.10571265  0.64281105  1
  O  O130  1  0.33210298  0.55046938  0.63694283  1
  O  O131  1  0.83196428  0.54299014  0.64232714  1
  O  O132  1  0.44191184  0.51809490  0.14013557  1
  O  O133  1  0.94364911  0.53904656  0.13575501  1
  O  O134  1  0.32416788  0.11923231  0.13396256  1
  O  O135  1  0.83482870  0.12034780  0.13323828  1
  O  O136  1  0.22291541  0.33605765  0.14765923  1
  O  O137  1  0.73394393  0.35468704  0.14202340  1
  O  O138  1  0.21750894  0.28268437  0.02928095  1
  O  O139  1  0.70547439  0.27534054  0.02717489  1
  O  O140  1  0.41985268  0.53096653  0.02133944  1
  O  O141  1  0.93620345  0.55974187  0.02987742  1
  O  O142  1  0.34789397  0.14472909  0.02808034  1
  O  O143  1  0.85510628  0.12855296  0.02835967  1
  O  O144  1  0.20923527  0.12767918  0.52529137  1
  O  O145  1  0.70359011  0.13516340  0.52743470  1
  O  O146  1  0.34925493  0.56899925  0.53135252  1
  O  O147  1  0.86184556  0.58674457  0.52600152  1
  O  O148  1  0.43575896  0.30412807  0.52719897  1
  O  O149  1  0.93944061  0.31122604  0.52686678  1
  O  O150  1  0.27330327  0.66966121  0.96661521  1
  O  O151  1  0.77689722  0.67906390  0.97033290  1
  O  O152  1  0.06596231  0.45191080  0.97150689  1
  O  O153  1  0.56018140  0.44796498  0.97130473  1
  O  O154  1  0.15708709  0.86260990  0.97917874  1
  O  O155  1  0.66489708  0.86794859  0.97425058  1
  O  O156  1  0.27656410  0.87565054  0.47080249  1
  O  O157  1  0.77556680  0.87719707  0.46937700  1
  O  O158  1  0.16062892  0.45678055  0.47652608  1
  O  O159  1  0.65487885  0.45418250  0.47362483  1
  O  O160  1  0.06683177  0.68069418  0.46729524  1
  O  O161  1  0.56557178  0.68092415  0.46985190  1
  O  O162  1  0.06396303  0.65150775  0.36067383  1
  O  O163  1  0.56255402  0.64930214  0.36321289  1
  O  O164  1  0.25987847  0.88273325  0.36522417  1
  O  O165  1  0.76041634  0.88349855  0.36339324  1
  O  O166  1  0.17520378  0.49493413  0.35768852  1
  O  O167  1  0.67545395  0.49136397  0.35555197  1
  O  O168  1  0.06742818  0.48755205  0.86555045  1
  O  O169  1  0.55864377  0.48504743  0.86565968  1
  O  O170  1  0.17842776  0.87192851  0.85964272  1
  O  O171  1  0.67560322  0.86112662  0.85575172  1
  O  O172  1  0.26456978  0.63345156  0.86073198  1
  O  O173  1  0.76412162  0.64397692  0.86416349  1
  O  O174  1  0.00547420  0.80353050  0.41171441  1
  O  O175  1  0.50525569  0.80554250  0.41342176  1
  O  O176  1  0.39653666  0.97990331  0.41108452  1
  O  O177  1  0.89597894  0.98112909  0.41039956  1
  O  O178  1  0.08218268  0.19231813  0.41436438  1
  O  O179  1  0.58208679  0.18828175  0.41292895  1
  O  O180  1  0.00914024  0.21239446  0.91197695  1
  O  O181  1  0.50464311  0.21062349  0.91158354  1
  O  O182  1  0.08867737  0.98883991  0.91546571  1
  O  O183  1  0.58260700  0.97402539  0.91570649  1
  O  O184  1  0.39913382  0.78837480  0.91115353  1
  O  O185  1  0.89961763  0.81334102  0.91259757  1
  O  O186  1  0.48470738  0.16583588  0.58816954  1
  O  O187  1  0.99024489  0.17417673  0.58684900  1
  O  O188  1  0.08535226  0.02144702  0.59550013  1
  O  O189  1  0.57627276  0.01205824  0.59570731  1
  O  O190  1  0.41458256  0.81629453  0.58780564  1
  O  O191  1  0.92441496  0.84619979  0.59302256  1
  O  O192  1  0.48538283  0.81375656  0.08345645  1
  O  O193  1  0.98686938  0.80478588  0.08701399  1
  O  O194  1  0.41382507  0.03399382  0.08563845  1
  O  O195  1  0.91994498  0.01931909  0.08829026  1
  O  O196  1  0.08115166  0.13954158  0.09085015  1
  O  O197  1  0.57749435  0.15177368  0.09663321  1
  O  O198  1  0.33330989  0.14823640  0.74855851  1
  O  O199  1  0.83322816  0.15054874  0.74946718  1
  O  O200  1  0.24407037  0.35224601  0.74320225  1
  O  O201  1  0.74512734  0.34664065  0.74949261  1
  O  O202  1  0.43101504  0.54518659  0.74157844  1
  O  O203  1  0.93505237  0.53989756  0.74415229  1
  O  O204  1  0.34376281  0.52618665  0.24838272  1
  O  O205  1  0.84586433  0.52608648  0.24533451  1
  O  O206  1  0.43491821  0.33611800  0.24641736  1
  O  O207  1  0.93724697  0.33861053  0.24096296  1
  O  O208  1  0.24165781  0.14671796  0.24776809  1
  O  O209  1  0.74079382  0.14611948  0.24660653  1
  O  O210  1  0.31532344  0.49122268  0.91790319  1
  O  O211  1  0.82642152  0.51681188  0.91824792  1
  O  O212  1  0.43197390  0.36790483  0.91902035  1
  O  O213  1  0.93920520  0.37139758  0.91808557  1
  O  O214  1  0.25524236  0.16050379  0.92284800  1
  O  O215  1  0.75134193  0.14428803  0.90905525  1
  O  O216  1  0.32593794  0.13501854  0.41776339  1
  O  O217  1  0.82559068  0.13703453  0.41686424  1
  O  O218  1  0.25047680  0.36005298  0.41006234  1
  O  O219  1  0.74999544  0.35983769  0.41089930  1
  O  O220  1  0.43685034  0.50684794  0.41850971  1
  O  O221  1  0.93854550  0.50398379  0.41555346  1
  O  O222  1  0.15462153  0.46878520  0.08070842  1
  O  O223  1  0.66396550  0.48492736  0.08356889  1
  O  O224  1  0.06861717  0.66861692  0.08049972  1
  O  O225  1  0.57197293  0.66411467  0.07618781  1
  O  O226  1  0.26356003  0.87640950  0.07719071  1
  O  O227  1  0.77026458  0.86490475  0.08019749  1
  O  O228  1  0.15654259  0.83195508  0.58435278  1
  O  O229  1  0.65320818  0.83496161  0.58240618  1
  O  O230  1  0.26480848  0.66587872  0.58185336  1
  O  O231  1  0.75858418  0.67306605  0.58434610  1
  O  O232  1  0.06890678  0.47237237  0.58100497  1
  O  O233  1  0.56651415  0.46532147  0.57975432  1
  O  O234  1  0.14779694  0.80367653  0.25694241  1
  O  O235  1  0.64796023  0.80328706  0.25677671  1
  O  O236  1  0.25496661  0.67620879  0.24959347  1
  O  O237  1  0.75548178  0.67519905  0.24778023  1
  O  O238  1  0.08446967  0.46724028  0.25075584  1
  O  O239  1  0.58337255  0.47114904  0.25103973  1
  O  O240  1  0.15450823  0.49728886  0.75858245  1
  O  O241  1  0.65523369  0.49470978  0.75919278  1
  O  O242  1  0.08499205  0.70079910  0.75443033  1
  O  O243  1  0.58095824  0.69719810  0.75111642  1
  O  O244  1  0.25520380  0.82085685  0.74878387  1
  O  O245  1  0.75587048  0.82033440  0.75053760  1
