# generated using pymatgen
data_Na2Hf2Mg2SiS5O24
_symmetry_space_group_name_H-M   'P 1'
_cell_length_a   8.77970415
_cell_length_b   8.77797306
_cell_length_c   23.10210846
_cell_angle_alpha   90.02744103
_cell_angle_beta   90.04629143
_cell_angle_gamma   119.92885398
_symmetry_Int_Tables_number   1
_chemical_formula_structural   Na2Hf2Mg2SiS5O24
_chemical_formula_sum   'Na6 Hf6 Mg6 Si3 S15 O72'
_cell_volume   1543.00351100
_cell_formula_units_Z   3
loop_
 _symmetry_equiv_pos_site_id
 _symmetry_equiv_pos_as_xyz
  1  'x, y, z'
loop_
 _atom_site_type_symbol
 _atom_site_label
 _atom_site_symmetry_multiplicity
 _atom_site_fract_x
 _atom_site_fract_y
 _atom_site_fract_z
 _atom_site_occupancy
  Na  Na0  1  0.00479931  0.00235935  0.49656770  1
  Na  Na1  1  0.99751694  0.98973104  0.99518529  1
  Na  Na2  1  0.66963929  0.31641475  0.81975148  1
  Na  Na3  1  0.64884046  0.32044970  0.34111102  1
  Na  Na4  1  0.31522323  0.67446510  0.16196328  1
  Na  Na5  1  0.34408824  0.67739391  0.65983808  1
  Hf  Hf6  1  0.98724286  0.99669516  0.64765298  1
  Hf  Hf7  1  0.00829157  0.98769705  0.14717229  1
  Hf  Hf8  1  0.67108631  0.33405987  0.18724879  1
  Hf  Hf9  1  0.67589853  0.34379863  0.97911299  1
  Hf  Hf10  1  0.33051432  0.67397290  0.31679563  1
  Hf  Hf11  1  0.34188739  0.67539072  0.80977032  1
  Mg  Mg12  1  0.01470859  0.00638284  0.35469403  1
  Mg  Mg13  1  0.99609915  0.00340373  0.84802600  1
  Mg  Mg14  1  0.66534388  0.32196052  0.68304854  1
  Mg  Mg15  1  0.66292455  0.33107506  0.48428271  1
  Mg  Mg16  1  0.32364670  0.66717367  0.01860299  1
  Mg  Mg17  1  0.33456241  0.66743152  0.51834727  1
  Si  Si18  1  0.29392092  0.00151773  0.25384151  1
  Si  Si19  1  0.71342534  0.01511147  0.75326797  1
  Si  Si20  1  0.96926952  0.62758887  0.08336287  1
  S  S21  1  0.70925341  0.71126328  0.25196663  1
  S  S22  1  0.00151849  0.28729193  0.25156439  1
  S  S23  1  0.29213838  0.28783854  0.75131481  1
  S  S24  1  0.99478619  0.70802719  0.75135392  1
  S  S25  1  0.96090459  0.33944857  0.58243650  1
  S  S26  1  0.37572790  0.03990636  0.58251779  1
  S  S27  1  0.66303080  0.61869624  0.58315160  1
  S  S28  1  0.66570340  0.04087890  0.08232537  1
  S  S29  1  0.37734332  0.33768939  0.08238173  1
  S  S30  1  0.62389657  0.67054939  0.91850522  1
  S  S31  1  0.04663238  0.37123187  0.91788116  1
  S  S32  1  0.32782910  0.95674529  0.91731440  1
  S  S33  1  0.63060965  0.96202629  0.41862474  1
  S  S34  1  0.33372941  0.37520388  0.41870694  1
  S  S35  1  0.03544035  0.66424377  0.41966460  1
  O  O36  1  0.20510432  0.03090000  0.30838872  1
  O  O37  1  0.81380460  0.79235340  0.30328019  1
  O  O38  1  0.97063464  0.18070963  0.30291628  1
  O  O39  1  0.21611772  0.18303436  0.80334588  1
  O  O40  1  0.98018241  0.79204002  0.80372136  1
  O  O41  1  0.82001970  0.02846797  0.81022250  1
  O  O42  1  0.80134392  0.97577507  0.69475539  1
  O  O43  1  0.18122962  0.20490372  0.69888145  1
  O  O44  1  0.03243775  0.82186019  0.69885293  1
  O  O45  1  0.78719352  0.81823241  0.19824139  1
  O  O46  1  0.02138888  0.20668040  0.19763426  1
  O  O47  1  0.17745132  0.96974786  0.19325296  1
  O  O48  1  0.88010447  0.36086215  0.63468285  1
  O  O49  1  0.47890766  0.12231249  0.63465827  1
  O  O50  1  0.64476516  0.51858004  0.63573428  1
  O  O51  1  0.86258474  0.50913601  0.13951167  1
  O  O52  1  0.63870417  0.12368596  0.13479335  1
  O  O53  1  0.48120177  0.35240298  0.13495569  1
  O  O54  1  0.45577623  0.30186800  0.03056631  1
  O  O55  1  0.84021815  0.52951773  0.02676930  1
  O  O56  1  0.68613192  0.15069485  0.03054911  1
  O  O57  1  0.45292252  0.14590908  0.53003452  1
  O  O58  1  0.69058798  0.54130097  0.53067094  1
  O  O59  1  0.85342820  0.30683972  0.53013093  1
  O  O60  1  0.53765499  0.68789777  0.97023775  1
  O  O61  1  0.14847141  0.45900275  0.96980591  1
  O  O62  1  0.30922976  0.85290776  0.96912480  1
  O  O63  1  0.54462918  0.85272956  0.46908888  1
  O  O64  1  0.31601302  0.46561075  0.46920665  1
  O  O65  1  0.14744874  0.68815206  0.46956250  1
  O  O66  1  0.12522869  0.64394892  0.36521779  1
  O  O67  1  0.51779701  0.87265589  0.36464565  1
  O  O68  1  0.35357620  0.48209480  0.36442445  1
  O  O69  1  0.12383110  0.48001345  0.86535671  1
  O  O70  1  0.35479680  0.87224603  0.86483388  1
  O  O71  1  0.51451855  0.64490980  0.86585178  1
  O  O72  1  0.01637972  0.82070173  0.41237169  1
  O  O73  1  0.80371277  0.97711329  0.40939848  1
  O  O74  1  0.17254912  0.20174569  0.41325958  1
  O  O75  1  0.02667805  0.19619653  0.91314919  1
  O  O76  1  0.17401389  0.97799414  0.90973470  1
  O  O77  1  0.80198435  0.81832829  0.91278169  1
  O  O78  1  0.98283825  0.17685924  0.58925033  1
  O  O79  1  0.19461124  0.02018232  0.58953256  1
  O  O80  1  0.82902201  0.80093882  0.58861234  1
  O  O81  1  0.97187285  0.81786793  0.08630849  1
  O  O82  1  0.83111284  0.03664550  0.08909720  1
  O  O83  1  0.19749118  0.18170979  0.08874919  1
  O  O84  1  0.68034406  0.17593126  0.74377567  1
  O  O85  1  0.47063424  0.32185029  0.74216484  1
  O  O86  1  0.83939472  0.53654492  0.74227391  1
  O  O87  1  0.69062747  0.53396323  0.24331168  1
  O  O88  1  0.84719907  0.31496374  0.24417861  1
  O  O89  1  0.49072063  0.16986091  0.24201359  1
  O  O90  1  0.63196365  0.50108699  0.92206458  1
  O  O91  1  0.86338454  0.35110952  0.92336577  1
  O  O92  1  0.49085268  0.13446742  0.92248132  1
  O  O93  1  0.64355234  0.13600486  0.42182043  1
  O  O94  1  0.49295470  0.35823103  0.42175605  1
  O  O95  1  0.86298231  0.50227313  0.42247536  1
  O  O96  1  0.36868561  0.49759277  0.07560678  1
  O  O97  1  0.15933706  0.64876041  0.07938236  1
  O  O98  1  0.51485352  0.86535488  0.07568361  1
  O  O99  1  0.35351949  0.86141926  0.57636020  1
  O  O100  1  0.51121344  0.64772912  0.57733151  1
  O  O101  1  0.13982331  0.49297664  0.57610719  1
  O  O102  1  0.31504584  0.82431205  0.25717155  1
  O  O103  1  0.52880832  0.68460757  0.25681837  1
  O  O104  1  0.16130858  0.46437515  0.25712857  1
  O  O105  1  0.29801868  0.46300634  0.75788696  1
  O  O106  1  0.15482580  0.68540641  0.75711470  1
  O  O107  1  0.51477341  0.82678978  0.75622015  1
