# generated using pymatgen
data_Na3MgGe3P5SO24
_symmetry_space_group_name_H-M   'P 1'
_cell_length_a   8.49492876
_cell_length_b   8.46730287
_cell_length_c   21.88232848
_cell_angle_alpha   89.59074750
_cell_angle_beta   90.58796756
_cell_angle_gamma   119.88190998
_symmetry_Int_Tables_number   1
_chemical_formula_structural   Na3MgGe3P5SO24
_chemical_formula_sum   'Na9 Mg3 Ge9 P15 S3 O72'
_cell_volume   1364.64756052
_cell_formula_units_Z   3
loop_
 _symmetry_equiv_pos_site_id
 _symmetry_equiv_pos_as_xyz
  1  'x, y, z'
loop_
 _atom_site_type_symbol
 _atom_site_label
 _atom_site_symmetry_multiplicity
 _atom_site_fract_x
 _atom_site_fract_y
 _atom_site_fract_z
 _atom_site_occupancy
  Na  Na0  1  0.99419537  0.36539826  0.74783483  1
  Na  Na1  1  0.30757991  0.97280691  0.08507018  1
  Na  Na2  1  0.32822930  0.03268229  0.41374531  1
  Na  Na3  1  0.99049037  0.99901119  0.49840416  1
  Na  Na4  1  0.99338878  0.00052002  0.99896385  1
  Na  Na5  1  0.65938679  0.33327234  0.83175438  1
  Na  Na6  1  0.66890861  0.33521430  0.33018388  1
  Na  Na7  1  0.33358452  0.66146569  0.16704449  1
  Na  Na8  1  0.33992447  0.66886814  0.66585142  1
  Mg  Mg9  1  0.99758021  0.99972994  0.35490806  1
  Mg  Mg10  1  0.66519470  0.33818906  0.68716234  1
  Mg  Mg11  1  0.66399080  0.33052802  0.18485508  1
  Ge  Ge12  1  0.00113406  0.99956278  0.85388482  1
  Ge  Ge13  1  0.98867553  0.99704238  0.64867044  1
  Ge  Ge14  1  0.00059663  0.99763873  0.14725535  1
  Ge  Ge15  1  0.66811332  0.33450836  0.98099127  1
  Ge  Ge16  1  0.68081829  0.34589941  0.48107249  1
  Ge  Ge17  1  0.33448173  0.66331597  0.01759457  1
  Ge  Ge18  1  0.33402735  0.65846162  0.51862759  1
  Ge  Ge19  1  0.33159933  0.67269788  0.31603385  1
  Ge  Ge20  1  0.33733282  0.66999384  0.81425435  1
  P  P21  1  0.29207971  0.00014502  0.25230129  1
  P  P22  1  0.28741909  0.28435865  0.75170967  1
  P  P23  1  0.00298109  0.71912414  0.75161156  1
  P  P24  1  0.70810674  0.99326275  0.75187043  1
  P  P25  1  0.96020332  0.33494840  0.58424560  1
  P  P26  1  0.66666153  0.62500975  0.58344885  1
  P  P27  1  0.95501149  0.61900842  0.08305787  1
  P  P28  1  0.67015514  0.04260863  0.08290255  1
  P  P29  1  0.37790834  0.33906495  0.08285743  1
  P  P30  1  0.62184727  0.66647354  0.91675166  1
  P  P31  1  0.04356336  0.37788618  0.91621997  1
  P  P32  1  0.33478967  0.95654771  0.91663872  1
  P  P33  1  0.62209826  0.95458121  0.41931666  1
  P  P34  1  0.33679963  0.38370828  0.41712803  1
  P  P35  1  0.04463947  0.66069385  0.41805770  1
  S  S36  1  0.70831292  0.70986298  0.25099658  1
  S  S37  1  0.00197365  0.29137214  0.25075931  1
  S  S38  1  0.37439185  0.04077479  0.58301617  1
  O  O39  1  0.20512585  0.02346073  0.30850591  1
  O  O40  1  0.81774328  0.79373273  0.30508660  1
  O  O41  1  0.97415407  0.18110694  0.30492135  1
  O  O42  1  0.19900701  0.16834787  0.80933971  1
  O  O43  1  0.96926260  0.80208001  0.80892635  1
  O  O44  1  0.83488412  0.03553387  0.80838222  1
  O  O45  1  0.78752931  0.95494003  0.69354338  1
  O  O46  1  0.15948096  0.20634811  0.69384994  1
  O  O47  1  0.04254731  0.83833221  0.69290772  1
  O  O48  1  0.78425126  0.82605748  0.19359208  1
  O  O49  1  0.03777235  0.21296525  0.19364508  1
  O  O50  1  0.17054443  0.96000003  0.19123617  1
  O  O51  1  0.88522332  0.36818703  0.64147830  1
  O  O52  1  0.48643291  0.11916855  0.63693232  1
  O  O53  1  0.62779644  0.51040671  0.63922781  1
  O  O54  1  0.88187156  0.50910585  0.13992189  1
  O  O55  1  0.62294038  0.11401273  0.13815431  1
  O  O56  1  0.48882362  0.37314119  0.13964874  1
  O  O57  1  0.45436980  0.28969671  0.02534291  1
  O  O58  1  0.83725953  0.54210993  0.02414953  1
  O  O59  1  0.70656465  0.16105871  0.02413485  1
  O  O60  1  0.45075358  0.15245701  0.52545049  1
  O  O61  1  0.70408535  0.54472632  0.52436053  1
  O  O62  1  0.83720677  0.29435942  0.52583964  1
  O  O63  1  0.54033556  0.70471506  0.97347549  1
  O  O64  1  0.16532350  0.46143610  0.97299167  1
  O  O65  1  0.29745447  0.83914200  0.97518600  1
  O  O66  1  0.53189348  0.83597157  0.47584277  1
  O  O67  1  0.30131948  0.46433874  0.47437337  1
  O  O68  1  0.17056471  0.70227498  0.47467555  1
  O  O69  1  0.12447530  0.62199740  0.36007730  1
  O  O70  1  0.49564406  0.87793486  0.36116936  1
  O  O71  1  0.37624656  0.50499243  0.35905853  1
  O  O72  1  0.12396059  0.49500319  0.85749720  1
  O  O73  1  0.37115618  0.87240671  0.85995660  1
  O  O74  1  0.50112084  0.62775200  0.85908574  1
  O  O75  1  0.02660156  0.82884222  0.41273433  1
  O  O76  1  0.80611258  0.97486815  0.41241097  1
  O  O77  1  0.17420986  0.19459054  0.41188284  1
  O  O78  1  0.02533207  0.18734688  0.90969385  1
  O  O79  1  0.16244392  0.97408123  0.90997639  1
  O  O80  1  0.81182153  0.83730365  0.90953913  1
  O  O81  1  0.98168211  0.16147633  0.58923664  1
  O  O82  1  0.19126482  0.02303781  0.58796433  1
  O  O83  1  0.84079206  0.81818553  0.58898895  1
  O  O84  1  0.98197698  0.81752930  0.08865451  1
  O  O85  1  0.84062307  0.02086960  0.09076230  1
  O  O86  1  0.18428513  0.16293059  0.08900534  1
  O  O87  1  0.69233720  0.16250802  0.74520577  1
  O  O88  1  0.47123427  0.30441487  0.74583748  1
  O  O89  1  0.84165126  0.52916328  0.74650803  1
  O  O90  1  0.69020558  0.53112050  0.24365582  1
  O  O91  1  0.84458662  0.31449116  0.24317331  1
  O  O92  1  0.47817077  0.16235169  0.24429222  1
  O  O93  1  0.63957914  0.49397603  0.92430705  1
  O  O94  1  0.85446484  0.35988414  0.92363303  1
  O  O95  1  0.50544909  0.14648875  0.92419188  1
  O  O96  1  0.63096826  0.14395482  0.42601071  1
  O  O97  1  0.50912253  0.36153255  0.42483081  1
  O  O98  1  0.85592122  0.48736946  0.42384005  1
  O  O99  1  0.35398114  0.50658253  0.07298152  1
  O  O100  1  0.15161382  0.65073550  0.07332989  1
  O  O101  1  0.49669299  0.85092931  0.07274153  1
  O  O102  1  0.35527904  0.85659428  0.57576233  1
  O  O103  1  0.49721783  0.64957015  0.57418265  1
  O  O104  1  0.15045570  0.50652555  0.57424114  1
  O  O105  1  0.30488765  0.81837862  0.25627924  1
  O  O106  1  0.52333152  0.69372207  0.25537310  1
  O  O107  1  0.17297450  0.47510039  0.25541835  1
  O  O108  1  0.29711427  0.47486618  0.75795180  1
  O  O109  1  0.17695480  0.69841291  0.75786159  1
  O  O110  1  0.52005966  0.82002643  0.75852088  1
