# generated using pymatgen
data_Na10Zr2Zn6Si3(S3O16)3
_symmetry_space_group_name_H-M   'P 1'
_cell_length_a   18.02835935
_cell_length_b   9.04738769
_cell_length_c   22.63911343
_cell_angle_alpha   90.26779540
_cell_angle_beta   89.82519476
_cell_angle_gamma   119.93788286
_symmetry_Int_Tables_number   1
_chemical_formula_structural   Na10Zr2Zn6Si3(S3O16)3
_chemical_formula_sum   'Na30 Zr6 Zn18 Si9 S27 O144'
_cell_volume   3199.89745109
_cell_formula_units_Z   3
loop_
 _symmetry_equiv_pos_site_id
 _symmetry_equiv_pos_as_xyz
  1  'x, y, z'
loop_
 _atom_site_type_symbol
 _atom_site_label
 _atom_site_symmetry_multiplicity
 _atom_site_fract_x
 _atom_site_fract_y
 _atom_site_fract_z
 _atom_site_occupancy
  Na  Na0  1  0.31754464  0.00541906  0.24586634  1
  Na  Na1  1  0.18863514  0.35992217  0.24913086  1
  Na  Na2  1  0.49784260  0.63263854  0.25324207  1
  Na  Na3  1  0.31001871  0.62020009  0.74381312  1
  Na  Na4  1  0.81709979  0.63046291  0.74514413  1
  Na  Na5  1  0.00075767  0.35970625  0.75250933  1
  Na  Na6  1  0.18416495  0.01343261  0.75454158  1
  Na  Na7  1  0.68918884  0.01850938  0.74906299  1
  Na  Na8  1  0.15973554  0.34907416  0.58573491  1
  Na  Na9  1  0.82765741  0.69938169  0.08049702  1
  Na  Na10  1  0.48157362  0.65765261  0.91808897  1
  Na  Na11  1  0.35180165  0.03942066  0.91696531  1
  Na  Na12  1  0.85469382  0.04106078  0.92019052  1
  Na  Na13  1  0.66178868  0.30103683  0.91793632  1
  Na  Na14  1  0.98000476  0.30284108  0.41674220  1
  Na  Na15  1  0.16079310  0.02167174  0.41664350  1
  Na  Na16  1  0.35473033  0.66741913  0.42086753  1
  Na  Na17  1  0.85132955  0.66360910  0.41608095  1
  Na  Na18  1  0.99453781  0.97843494  0.49684649  1
  Na  Na19  1  0.50356755  0.00229773  0.49706084  1
  Na  Na20  1  0.00826112  0.01591070  0.99602808  1
  Na  Na21  1  0.50020123  0.01109772  0.99711819  1
  Na  Na22  1  0.32853290  0.32847864  0.83428268  1
  Na  Na23  1  0.83559152  0.33454706  0.83061758  1
  Na  Na24  1  0.33558196  0.33534378  0.33052927  1
  Na  Na25  1  0.82888399  0.33033775  0.33261564  1
  Na  Na26  1  0.16429122  0.67101902  0.16070476  1
  Na  Na27  1  0.67440017  0.68642906  0.16252663  1
  Na  Na28  1  0.17271356  0.66729653  0.66145131  1
  Na  Na29  1  0.66502016  0.65713281  0.66011871  1
  Zr  Zr30  1  0.99641607  0.00359243  0.65053352  1
  Zr  Zr31  1  0.50082430  0.00587375  0.64333368  1
  Zr  Zr32  1  0.00007781  0.00163991  0.14633209  1
  Zr  Zr33  1  0.49731244  0.99474109  0.14842021  1
  Zr  Zr34  1  0.16068483  0.67089637  0.31346944  1
  Zr  Zr35  1  0.66142412  0.65069794  0.81436792  1
  Zn  Zn36  1  0.00277885  0.97223890  0.34636303  1
  Zn  Zn37  1  0.50352522  0.99839254  0.34747914  1
  Zn  Zn38  1  0.00589998  0.02272286  0.84468331  1
  Zn  Zn39  1  0.50583551  0.03483735  0.84784271  1
  Zn  Zn40  1  0.32780149  0.34516049  0.67771748  1
  Zn  Zn41  1  0.82643993  0.31830210  0.68373000  1
  Zn  Zn42  1  0.32710833  0.33537387  0.18418012  1
  Zn  Zn43  1  0.83045261  0.31476159  0.17699965  1
  Zn  Zn44  1  0.33256181  0.32898825  0.98302411  1
  Zn  Zn45  1  0.84251302  0.32795176  0.99361971  1
  Zn  Zn46  1  0.34537340  0.35485263  0.49236875  1
  Zn  Zn47  1  0.83172304  0.33580491  0.48240051  1
  Zn  Zn48  1  0.16422593  0.66361441  0.01359196  1
  Zn  Zn49  1  0.66287603  0.66559714  0.01994231  1
  Zn  Zn50  1  0.16936652  0.67985605  0.51887883  1
  Zn  Zn51  1  0.66386206  0.66315748  0.51386488  1
  Zn  Zn52  1  0.67121904  0.66748760  0.32082802  1
  Zn  Zn53  1  0.16451559  0.64824168  0.82045202  1
  Si  Si54  1  0.14901248  0.00718115  0.25109007  1
  Si  Si55  1  0.35437764  0.70318441  0.25453271  1
  Si  Si56  1  0.15214065  0.29982189  0.75173650  1
  Si  Si57  1  0.64896828  0.29092464  0.75114792  1
  Si  Si58  1  0.85197564  0.00435643  0.75507817  1
  Si  Si59  1  0.32960392  0.63149513  0.58020921  1
  Si  Si60  1  0.82724806  0.02987156  0.08061567  1
  Si  Si61  1  0.51711851  0.37101398  0.92271185  1
  Si  Si62  1  0.01684611  0.66349090  0.42269858  1
  S  S63  1  0.64929017  0.00312185  0.25202375  1
  S  S64  1  0.84865106  0.69671880  0.25017182  1
  S  S65  1  0.99542718  0.28815257  0.25327898  1
  S  S66  1  0.50440930  0.29815918  0.25157177  1
  S  S67  1  0.00143770  0.70865035  0.75143816  1
  S  S68  1  0.49811681  0.70907336  0.75214556  1
  S  S69  1  0.35264635  0.00266385  0.75108777  1
  S  S70  1  0.48116632  0.34080248  0.58348003  1
  S  S71  1  0.97778620  0.33273218  0.58338116  1
  S  S72  1  0.18682362  0.03766260  0.58345051  1
  S  S73  1  0.68884493  0.03614235  0.58153178  1
  S  S74  1  0.83095682  0.62531615  0.58285155  1
  S  S75  1  0.47845221  0.62261576  0.08436181  1
  S  S76  1  0.98174249  0.62407307  0.08356709  1
  S  S77  1  0.33127070  0.03669909  0.08319431  1
  S  S78  1  0.18866949  0.34107787  0.08185796  1
  S  S79  1  0.68773493  0.33283647  0.08299404  1
  S  S80  1  0.31313103  0.66588243  0.91678159  1
  S  S81  1  0.81789506  0.66584242  0.91815468  1
  S  S82  1  0.01859636  0.37403955  0.91730574  1
  S  S83  1  0.16385666  0.95370942  0.91637601  1
  S  S84  1  0.66616779  0.96273715  0.91697956  1
  S  S85  1  0.31701735  0.96818798  0.41769331  1
  S  S86  1  0.81121912  0.95757329  0.41676457  1
  S  S87  1  0.16607822  0.36874630  0.41727250  1
  S  S88  1  0.66357405  0.37089917  0.41666025  1
  S  S89  1  0.52105281  0.66620190  0.41545968  1
  O  O90  1  0.11249014  0.04945786  0.31040078  1
  O  O91  1  0.60905441  0.02651039  0.30487220  1
  O  O92  1  0.41178590  0.78970610  0.31250336  1
  O  O93  1  0.89942911  0.77716972  0.30452134  1
  O  O94  1  0.48990251  0.18944981  0.30327192  1
  O  O95  1  0.98593524  0.19076999  0.30710241  1
  O  O96  1  0.10960185  0.16741499  0.80510636  1
  O  O97  1  0.61360193  0.17662146  0.81044721  1
  O  O98  1  0.48499873  0.78460740  0.80638000  1
  O  O99  1  0.98381156  0.78356006  0.80343360  1
  O  O100  1  0.40051411  0.02039061  0.80615332  1
  O  O101  1  0.90684592  0.03056260  0.81408457  1
  O  O102  1  0.39591966  0.97161908  0.69952679  1
  O  O103  1  0.89665570  0.95946516  0.69798912  1
  O  O104  1  0.08907978  0.20782239  0.69144992  1
  O  O105  1  0.58654665  0.19353414  0.69515012  1
  O  O106  1  0.01510412  0.81932419  0.69761812  1
  O  O107  1  0.51092242  0.81883276  0.69983410  1
  O  O108  1  0.40112434  0.83688311  0.19770437  1
  O  O109  1  0.89294939  0.80895369  0.19695483  1
  O  O110  1  0.00909819  0.20382360  0.20035165  1
  O  O111  1  0.51606036  0.21343609  0.19715504  1
  O  O112  1  0.08713060  0.98017822  0.19472616  1
  O  O113  1  0.59168385  0.97841125  0.19860248  1
  O  O114  1  0.43927630  0.35782661  0.63663250  1
  O  O115  1  0.93639427  0.34807653  0.63746648  1
  O  O116  1  0.23628043  0.11897502  0.63767265  1
  O  O117  1  0.73575505  0.10828719  0.63764876  1
  O  O118  1  0.31283825  0.51826683  0.64003727  1
  O  O119  1  0.82326295  0.52849623  0.63734587  1
  O  O120  1  0.43622936  0.52239626  0.13790119  1
  O  O121  1  0.94173391  0.52531487  0.13712965  1
  O  O122  1  0.32316280  0.11815029  0.13762311  1
  O  O123  1  0.81647981  0.11896361  0.13881109  1
  O  O124  1  0.23588402  0.36351144  0.13776948  1
  O  O125  1  0.74207045  0.35911303  0.13494281  1
  O  O126  1  0.22930517  0.31098582  0.03045980  1
  O  O127  1  0.72408315  0.30731165  0.02746503  1
  O  O128  1  0.42732145  0.55232967  0.03003773  1
  O  O129  1  0.92696493  0.55347663  0.03021783  1
  O  O130  1  0.34483662  0.13872178  0.02947421  1
  O  O131  1  0.84811667  0.13532144  0.01870960  1
  O  O132  1  0.22573716  0.14273648  0.52964260  1
  O  O133  1  0.72955316  0.14657840  0.53039271  1
  O  O134  1  0.34651279  0.55365588  0.51973804  1
  O  O135  1  0.84358731  0.54767655  0.52902097  1
  O  O136  1  0.43010455  0.30570015  0.52906924  1
  O  O137  1  0.92751638  0.30608891  0.52932963  1
  O  O138  1  0.27179209  0.69686338  0.96818943  1
  O  O139  1  0.77799615  0.69458558  0.97050594  1
  O  O140  1  0.07146198  0.46100866  0.96899377  1
  O  O141  1  0.58513007  0.46601760  0.97478446  1
  O  O142  1  0.15593818  0.85021209  0.96895355  1
  O  O143  1  0.65679278  0.85737050  0.96838656  1
  O  O144  1  0.27676982  0.85547848  0.46838539  1
  O  O145  1  0.77221689  0.84698966  0.46915562  1
  O  O146  1  0.15663108  0.45243053  0.47010701  1
  O  O147  1  0.65199459  0.45118725  0.47019962  1
  O  O148  1  0.08479763  0.70507622  0.47485433  1
  O  O149  1  0.57264310  0.68386560  0.46772734  1
  O  O150  1  0.06269909  0.63216908  0.36258350  1
  O  O151  1  0.56058075  0.64895235  0.35951253  1
  O  O152  1  0.26200675  0.88310967  0.36249210  1
  O  O153  1  0.76080919  0.88042016  0.36261873  1
  O  O154  1  0.17955247  0.47827261  0.36330054  1
  O  O155  1  0.67999299  0.48056671  0.36346963  1
  O  O156  1  0.05657782  0.46797912  0.86110105  1
  O  O157  1  0.56202831  0.49343421  0.86271656  1
  O  O158  1  0.17912151  0.87673656  0.86125975  1
  O  O159  1  0.67947716  0.88272236  0.86191974  1
  O  O160  1  0.26530318  0.64545079  0.86108559  1
  O  O161  1  0.76112688  0.64145045  0.86388197  1
  O  O162  1  0.00515365  0.83224236  0.41457963  1
  O  O163  1  0.51005586  0.82032592  0.41388546  1
  O  O164  1  0.40260583  0.98622977  0.40992968  1
  O  O165  1  0.89963300  0.97890339  0.41142888  1
  O  O166  1  0.08558385  0.20092414  0.41174439  1
  O  O167  1  0.58695127  0.19896356  0.40970258  1
  O  O168  1  0.00841113  0.19918777  0.91541978  1
  O  O169  1  0.50546409  0.17870743  0.91511216  1
  O  O170  1  0.08701679  0.97053024  0.91226622  1
  O  O171  1  0.58537585  0.96985190  0.91218926  1
  O  O172  1  0.40122212  0.82041029  0.91247897  1
  O  O173  1  0.90261919  0.81845651  0.90998355  1
  O  O174  1  0.49145812  0.18368288  0.58873162  1
  O  O175  1  0.98828371  0.17297260  0.58720288  1
  O  O176  1  0.09931480  0.02748594  0.58797500  1
  O  O177  1  0.60051202  0.01883899  0.58708674  1
  O  O178  1  0.41671983  0.82217904  0.58953342  1
  O  O179  1  0.91163057  0.80071458  0.58735878  1
  O  O180  1  0.48848547  0.80202239  0.09074131  1
  O  O181  1  0.98846408  0.79912646  0.08903048  1
  O  O182  1  0.41267280  0.02237637  0.08829198  1
  O  O183  1  0.91482691  0.00437917  0.08966037  1
  O  O184  1  0.10024839  0.18313204  0.08750402  1
  O  O185  1  0.59994668  0.17473862  0.09005108  1
  O  O186  1  0.34417407  0.15453948  0.74304155  1
  O  O187  1  0.84688882  0.17628847  0.74443630  1
  O  O188  1  0.24744974  0.31940154  0.74510700  1
  O  O189  1  0.74651098  0.32583261  0.74354874  1
  O  O190  1  0.42525419  0.53608523  0.74455295  1
  O  O191  1  0.92650082  0.53660196  0.74201424  1
  O  O192  1  0.34748034  0.51885440  0.24475816  1
  O  O193  1  0.84194917  0.52862730  0.24211217  1
  O  O194  1  0.42548877  0.31060728  0.24374771  1
  O  O195  1  0.92404538  0.31971098  0.24564079  1
  O  O196  1  0.24626793  0.16785833  0.24360781  1
  O  O197  1  0.73382635  0.15382189  0.24473398  1
  O  O198  1  0.32295817  0.51306436  0.92297383  1
  O  O199  1  0.81998422  0.50418348  0.92123825  1
  O  O200  1  0.42167974  0.35427005  0.92434130  1
  O  O201  1  0.93121520  0.35619757  0.92035563  1
  O  O202  1  0.24401625  0.12603439  0.92151558  1
  O  O203  1  0.74149159  0.13748333  0.91927812  1
  O  O204  1  0.31906761  0.13375147  0.42223138  1
  O  O205  1  0.82190056  0.13107325  0.42322357  1
  O  O206  1  0.24175041  0.34461519  0.41886884  1
  O  O207  1  0.74339905  0.35786806  0.42182757  1
  O  O208  1  0.43319826  0.51032638  0.41824050  1
  O  O209  1  0.92183997  0.48972283  0.42399737  1
  O  O210  1  0.17708541  0.49169983  0.07550157  1
  O  O211  1  0.67704551  0.48397599  0.08025206  1
  O  O212  1  0.06852317  0.64796533  0.07661582  1
  O  O213  1  0.56467408  0.64637722  0.08070372  1
  O  O214  1  0.25653533  0.86247609  0.07829682  1
  O  O215  1  0.74741400  0.83160984  0.07626613  1
  O  O216  1  0.17411892  0.86548294  0.58047381  1
  O  O217  1  0.67701536  0.86256469  0.57522613  1
  O  O218  1  0.24140272  0.64280481  0.57543791  1
  O  O219  1  0.75532310  0.64808716  0.57827193  1
  O  O220  1  0.06556708  0.47868110  0.58030836  1
  O  O221  1  0.56809291  0.49279495  0.57807293  1
  O  O222  1  0.15873983  0.83394375  0.25482157  1
  O  O223  1  0.65072572  0.83916773  0.25405722  1
  O  O224  1  0.25754750  0.68001094  0.25695897  1
  O  O225  1  0.76355977  0.68504627  0.25398760  1
  O  O226  1  0.08010427  0.45690747  0.25511762  1
  O  O227  1  0.57930257  0.47160454  0.25535167  1
  O  O228  1  0.15646269  0.48670012  0.75508296  1
  O  O229  1  0.65830159  0.48322999  0.75500498  1
  O  O230  1  0.08067761  0.69762750  0.75547327  1
  O  O231  1  0.58100875  0.70550763  0.75534545  1
  O  O232  1  0.26561645  0.84624805  0.75378697  1
  O  O233  1  0.75505227  0.83454499  0.75720437  1
