# generated using pymatgen
data_Na7Zr2Al2Si3(PO8)3
_symmetry_space_group_name_H-M   'P 1'
_cell_length_a   9.01079892
_cell_length_b   8.95400436
_cell_length_c   22.21551815
_cell_angle_alpha   89.59421141
_cell_angle_beta   90.34896144
_cell_angle_gamma   119.90313205
_symmetry_Int_Tables_number   1
_chemical_formula_structural   Na7Zr2Al2Si3(PO8)3
_chemical_formula_sum   'Na21 Zr6 Al6 Si9 P9 O72'
_cell_volume   1553.73870093
_cell_formula_units_Z   3
loop_
 _symmetry_equiv_pos_site_id
 _symmetry_equiv_pos_as_xyz
  1  'x, y, z'
loop_
 _atom_site_type_symbol
 _atom_site_label
 _atom_site_symmetry_multiplicity
 _atom_site_fract_x
 _atom_site_fract_y
 _atom_site_fract_z
 _atom_site_occupancy
  Na  Na0  1  0.63713222  0.00385510  0.25220482  1
  Na  Na1  1  0.36316169  0.36623425  0.24714833  1
  Na  Na2  1  0.99915679  0.63123286  0.24933979  1
  Na  Na3  1  0.63249514  0.63564733  0.75024685  1
  Na  Na4  1  0.99474985  0.36428556  0.75031215  1
  Na  Na5  1  0.37120063  0.00070346  0.74831756  1
  Na  Na6  1  0.03365058  0.69885564  0.58368946  1
  Na  Na7  1  0.66492167  0.97092870  0.58344636  1
  Na  Na8  1  0.66511044  0.69267483  0.08207649  1
  Na  Na9  1  0.03387354  0.33601637  0.08557762  1
  Na  Na10  1  0.96228267  0.66431879  0.91881102  1
  Na  Na11  1  0.70177472  0.03191943  0.91619956  1
  Na  Na12  1  0.33910092  0.30293883  0.91775938  1
  Na  Na13  1  0.96631660  0.30201862  0.41536467  1
  Na  Na14  1  0.33407020  0.02786970  0.41816019  1
  Na  Na15  1  0.00067336  0.99902341  0.50059406  1
  Na  Na16  1  0.00984452  0.99486819  0.99776823  1
  Na  Na17  1  0.66682459  0.33336873  0.83360928  1
  Na  Na18  1  0.67288037  0.34169535  0.33154547  1
  Na  Na19  1  0.32621615  0.66885401  0.16801917  1
  Na  Na20  1  0.33361055  0.66085494  0.66839547  1
  Zr  Zr21  1  0.98858331  0.99402722  0.35145515  1
  Zr  Zr22  1  0.00257427  0.00697541  0.65053872  1
  Zr  Zr23  1  0.01054576  0.00444243  0.14464098  1
  Zr  Zr24  1  0.66546238  0.33313794  0.47838159  1
  Zr  Zr25  1  0.33644413  0.67105639  0.01996149  1
  Zr  Zr26  1  0.33387530  0.66505707  0.52206767  1
  Al  Al27  1  0.99183464  0.99792657  0.84982960  1
  Al  Al28  1  0.66881826  0.32226956  0.68455206  1
  Al  Al29  1  0.67342182  0.33666018  0.18209835  1
  Al  Al30  1  0.66259253  0.34460862  0.98317562  1
  Al  Al31  1  0.32641934  0.66376083  0.31595381  1
  Al  Al32  1  0.34203637  0.66966566  0.81741210  1
  Si  Si33  1  0.99975504  0.30862179  0.24857642  1
  Si  Si34  1  0.69979799  0.99925869  0.75368702  1
  Si  Si35  1  0.95432694  0.33443827  0.58736422  1
  Si  Si36  1  0.37685835  0.04737461  0.58663499  1
  Si  Si37  1  0.94673301  0.61312738  0.08238852  1
  Si  Si38  1  0.38954172  0.33019545  0.08271111  1
  Si  Si39  1  0.63295952  0.66742231  0.91362853  1
  Si  Si40  1  0.61802455  0.94922941  0.41327624  1
  Si  Si41  1  0.04590002  0.66685443  0.41328789  1
  P  P42  1  0.30497053  0.00100433  0.25079714  1
  P  P43  1  0.69446340  0.69543195  0.24768024  1
  P  P44  1  0.29360948  0.29710187  0.75624262  1
  P  P45  1  0.00190489  0.70491128  0.75493281  1
  P  P46  1  0.66522163  0.61325011  0.59027348  1
  P  P47  1  0.66430110  0.05827080  0.08267204  1
  P  P48  1  0.04234764  0.37164858  0.91277604  1
  P  P49  1  0.33157586  0.96041393  0.91169671  1
  P  P50  1  0.33517276  0.38292112  0.41115815  1
  O  O51  1  0.22349734  0.03550940  0.30644125  1
  O  O52  1  0.81948044  0.78295517  0.30147967  1
  O  O53  1  0.96175881  0.18059844  0.30691156  1
  O  O54  1  0.20362710  0.17301239  0.80974151  1
  O  O55  1  0.97507679  0.80122104  0.80779327  1
  O  O56  1  0.83508773  0.03666604  0.80911947  1
  O  O57  1  0.77982595  0.95583979  0.69387162  1
  O  O58  1  0.17849823  0.21529365  0.69963668  1
  O  O59  1  0.04004150  0.81703459  0.69694166  1
  O  O60  1  0.77814277  0.81366743  0.19204966  1
  O  O61  1  0.03724851  0.21576756  0.19128835  1
  O  O62  1  0.17828698  0.96397333  0.19732529  1
  O  O63  1  0.86246280  0.36339786  0.64540895  1
  O  O64  1  0.49713580  0.14275442  0.64470477  1
  O  O65  1  0.64835588  0.50575856  0.64692767  1
  O  O66  1  0.86321713  0.50027639  0.14325843  1
  O  O67  1  0.64566898  0.13878099  0.14094742  1
  O  O68  1  0.50280571  0.35715363  0.14313840  1
  O  O69  1  0.47078443  0.30766506  0.02088338  1
  O  O70  1  0.83530104  0.52667283  0.02137827  1
  O  O71  1  0.68958930  0.16607437  0.02493391  1
  O  O72  1  0.45457319  0.15054507  0.52320768  1
  O  O73  1  0.69268668  0.53534150  0.53253524  1
  O  O74  1  0.84397846  0.30544896  0.52509247  1
  O  O75  1  0.55184039  0.71010227  0.97364022  1
  O  O76  1  0.15352951  0.45162579  0.97065876  1
  O  O77  1  0.29251560  0.84218626  0.96793334  1
  O  O78  1  0.54212091  0.84771355  0.47683387  1
  O  O79  1  0.30499492  0.46009452  0.46845942  1
  O  O80  1  0.15563937  0.69376783  0.47571030  1
  O  O81  1  0.13865030  0.63875545  0.35555364  1
  O  O82  1  0.49870759  0.85190729  0.35552601  1
  O  O83  1  0.35294456  0.48951821  0.35457722  1
  O  O84  1  0.13282280  0.49595501  0.85927381  1
  O  O85  1  0.35958278  0.86901078  0.85749905  1
  O  O86  1  0.49918823  0.63164851  0.85797678  1
  O  O87  1  0.03779569  0.84523184  0.41063643  1
  O  O88  1  0.81656326  0.98690541  0.41196707  1
  O  O89  1  0.17343712  0.19930700  0.40798789  1
  O  O90  1  0.02958373  0.19169068  0.90676250  1
  O  O91  1  0.17178928  0.98371841  0.90494137  1
  O  O92  1  0.82628433  0.83993640  0.90583948  1
  O  O93  1  0.96427697  0.15667885  0.58953807  1
  O  O94  1  0.17824456  0.00623152  0.58973215  1
  O  O95  1  0.82875064  0.79579173  0.59267538  1
  O  O96  1  0.95864861  0.80316034  0.08663717  1
  O  O97  1  0.82684750  0.03583338  0.08684309  1
  O  O98  1  0.18903879  0.16873300  0.08534040  1
  O  O99  1  0.68420650  0.17568789  0.74529040  1
  O  O100  1  0.47370025  0.31759301  0.74833165  1
  O  O101  1  0.83540213  0.52713153  0.74854915  1
  O  O102  1  0.67739383  0.51517232  0.24284706  1
  O  O103  1  0.82342176  0.31933402  0.24160534  1
  O  O104  1  0.48191355  0.16326492  0.24152317  1
  O  O105  1  0.64927619  0.49131151  0.92137887  1
  O  O106  1  0.86042572  0.34863853  0.91932679  1
  O  O107  1  0.49793140  0.13786061  0.91950272  1
  O  O108  1  0.63392605  0.14179843  0.41491027  1
  O  O109  1  0.49197794  0.35790294  0.41534393  1
  O  O110  1  0.85646346  0.49604237  0.41656258  1
  O  O111  1  0.36744756  0.50551609  0.07959760  1
  O  O112  1  0.13855164  0.63306086  0.07829645  1
  O  O113  1  0.50815671  0.87228353  0.07930389  1
  O  O114  1  0.36572731  0.85667225  0.58449395  1
  O  O115  1  0.50937644  0.64031048  0.58577681  1
  O  O116  1  0.14338431  0.50479841  0.58423395  1
  O  O117  1  0.32162123  0.83735746  0.25616998  1
  O  O118  1  0.51865536  0.68295592  0.25652978  1
  O  O119  1  0.17553380  0.49635487  0.25602856  1
  O  O120  1  0.30596035  0.47670326  0.76134873  1
  O  O121  1  0.16109451  0.68111318  0.76238005  1
  O  O122  1  0.50703629  0.82696185  0.76133808  1
