# generated using pymatgen
data_Na3Y2Zn2PS5O24
_symmetry_space_group_name_H-M   'P 1'
_cell_length_a   8.99500476
_cell_length_b   9.02046907
_cell_length_c   23.57552212
_cell_angle_alpha   90.51910650
_cell_angle_beta   89.37917884
_cell_angle_gamma   119.87232865
_symmetry_Int_Tables_number   1
_chemical_formula_structural   Na3Y2Zn2PS5O24
_chemical_formula_sum   'Na9 Y6 Zn6 P3 S15 O72'
_cell_volume   1658.63331354
_cell_formula_units_Z   3
loop_
 _symmetry_equiv_pos_site_id
 _symmetry_equiv_pos_as_xyz
  1  'x, y, z'
loop_
 _atom_site_type_symbol
 _atom_site_label
 _atom_site_symmetry_multiplicity
 _atom_site_fract_x
 _atom_site_fract_y
 _atom_site_fract_z
 _atom_site_occupancy
  Na  Na0  1  0.36618561  0.99160402  0.75011419  1
  Na  Na1  1  0.66044536  0.96734871  0.58775217  1
  Na  Na2  1  0.67192675  0.69759311  0.08251928  1
  Na  Na3  1  0.02357221  0.00210753  0.50703558  1
  Na  Na4  1  0.01432996  0.00434174  0.00614419  1
  Na  Na5  1  0.68013134  0.33726629  0.83315857  1
  Na  Na6  1  0.66689219  0.33343161  0.33286005  1
  Na  Na7  1  0.31011397  0.66386991  0.16700730  1
  Na  Na8  1  0.32983598  0.65760191  0.66652807  1
  Y  Y9  1  0.00121741  0.00081305  0.35280725  1
  Y  Y10  1  0.98868415  0.00007907  0.85268447  1
  Y  Y11  1  0.66887442  0.33252841  0.68176551  1
  Y  Y12  1  0.67558969  0.33664996  0.18350388  1
  Y  Y13  1  0.67316525  0.33691775  0.98296778  1
  Y  Y14  1  0.65561892  0.32818375  0.48239306  1
  Zn  Zn15  1  0.00375640  0.99867677  0.65303928  1
  Zn  Zn16  1  0.01187869  0.99502003  0.15221114  1
  Zn  Zn17  1  0.31019229  0.66662373  0.01620533  1
  Zn  Zn18  1  0.32413061  0.67322744  0.51599609  1
  Zn  Zn19  1  0.33248778  0.66536910  0.31691495  1
  Zn  Zn20  1  0.35036180  0.67155051  0.81632902  1
  P  P21  1  0.69754072  0.99080575  0.74675039  1
  P  P22  1  0.35436568  0.02225207  0.58486482  1
  P  P23  1  0.97446208  0.64406410  0.08370512  1
  S  S24  1  0.29472872  0.99129833  0.24922192  1
  S  S25  1  0.69642165  0.70747198  0.24881590  1
  S  S26  1  0.00987647  0.29806099  0.24902570  1
  S  S27  1  0.29073006  0.29901827  0.74956512  1
  S  S28  1  0.00680927  0.70707094  0.75001840  1
  S  S29  1  0.97458369  0.33423024  0.58150610  1
  S  S30  1  0.66622535  0.64015566  0.58274068  1
  S  S31  1  0.66700344  0.02606534  0.08292391  1
  S  S32  1  0.36144994  0.33368099  0.08348568  1
  S  S33  1  0.61503310  0.66371446  0.91893670  1
  S  S34  1  0.05298283  0.38620411  0.91563094  1
  S  S35  1  0.33419775  0.95444391  0.91530670  1
  S  S36  1  0.61692490  0.95041695  0.41703265  1
  S  S37  1  0.33352840  0.38692067  0.41655806  1
  S  S38  1  0.04707426  0.66464304  0.41607476  1
  O  O39  1  0.21419818  0.01696029  0.30110190  1
  O  O40  1  0.80594144  0.79253349  0.29895428  1
  O  O41  1  0.98660778  0.19559033  0.30089551  1
  O  O42  1  0.21341096  0.18898116  0.80047964  1
  O  O43  1  0.98383933  0.78768559  0.80209297  1
  O  O44  1  0.80749937  0.01509915  0.79946556  1
  O  O45  1  0.78236481  0.97476864  0.69130999  1
  O  O46  1  0.19039762  0.21711964  0.69817086  1
  O  O47  1  0.03179094  0.81398694  0.69955957  1
  O  O48  1  0.77678926  0.80405086  0.19600158  1
  O  O49  1  0.02546422  0.21145973  0.19775365  1
  O  O50  1  0.19254414  0.97272016  0.19833489  1
  O  O51  1  0.89487821  0.36257205  0.63337032  1
  O  O52  1  0.46992326  0.10492611  0.63849297  1
  O  O53  1  0.64542199  0.53606879  0.63379344  1
  O  O54  1  0.88669030  0.53030393  0.13620179  1
  O  O55  1  0.63918041  0.10754186  0.13384303  1
  O  O56  1  0.47351679  0.35983417  0.13342064  1
  O  O57  1  0.44281362  0.30480228  0.03212421  1
  O  O58  1  0.85434545  0.55734500  0.03173454  1
  O  O59  1  0.68922918  0.13268879  0.03225023  1
  O  O60  1  0.44773081  0.14003156  0.53322508  1
  O  O61  1  0.69186566  0.55625778  0.53200635  1
  O  O62  1  0.86062097  0.30851261  0.53218358  1
  O  O63  1  0.53520023  0.67982023  0.97209335  1
  O  O64  1  0.14759396  0.46370957  0.96812626  1
  O  O65  1  0.31852225  0.85440816  0.96595084  1
  O  O66  1  0.54151193  0.85791806  0.47060324  1
  O  O67  1  0.31734393  0.46819558  0.46874320  1
  O  O68  1  0.14436452  0.68450714  0.46796521  1
  O  O69  1  0.12806409  0.64680534  0.36375925  1
  O  O70  1  0.51655736  0.86686282  0.36618828  1
  O  O71  1  0.35025697  0.48194387  0.36424569  1
  O  O72  1  0.13454272  0.48363387  0.86381270  1
  O  O73  1  0.35120855  0.87731931  0.86140714  1
  O  O74  1  0.51810155  0.64824459  0.86745194  1
  O  O75  1  0.02682123  0.82023409  0.41278838  1
  O  O76  1  0.79277000  0.97108662  0.41284416  1
  O  O77  1  0.17934317  0.21023701  0.41353764  1
  O  O78  1  0.03217945  0.21047409  0.91313659  1
  O  O79  1  0.17867983  0.97474725  0.91316380  1
  O  O80  1  0.79119895  0.81836074  0.91545729  1
  O  O81  1  0.97845666  0.17205106  0.58732865  1
  O  O82  1  0.17627578  0.00536294  0.59200606  1
  O  O83  1  0.81902519  0.81425859  0.58758547  1
  O  O84  1  0.97934079  0.81893365  0.09046212  1
  O  O85  1  0.82325882  0.01075471  0.08875224  1
  O  O86  1  0.18948949  0.18308520  0.09046732  1
  O  O87  1  0.67121707  0.15147487  0.74504260  1
  O  O88  1  0.46504143  0.31305747  0.74476662  1
  O  O89  1  0.85145735  0.53497793  0.74527408  1
  O  O90  1  0.67866176  0.53278555  0.24580531  1
  O  O91  1  0.85157595  0.31477439  0.24630901  1
  O  O92  1  0.46797777  0.14782166  0.24475269  1
  O  O93  1  0.63600069  0.50846751  0.92052216  1
  O  O94  1  0.87556277  0.36392229  0.91887601  1
  O  O95  1  0.49010048  0.12899106  0.91966396  1
  O  O96  1  0.63867020  0.12695925  0.41971768  1
  O  O97  1  0.48937943  0.36547165  0.41904258  1
  O  O98  1  0.87176561  0.51017724  0.42011550  1
  O  O99  1  0.35695764  0.49544545  0.07732224  1
  O  O100  1  0.15279460  0.66187258  0.07687946  1
  O  O101  1  0.51602345  0.85146576  0.07679303  1
  O  O102  1  0.35222770  0.84933595  0.57709252  1
  O  O103  1  0.51077041  0.65673515  0.57741324  1
  O  O104  1  0.14613314  0.48419500  0.57487169  1
  O  O105  1  0.31134870  0.83651040  0.25469992  1
  O  O106  1  0.52490619  0.69091430  0.25574528  1
  O  O107  1  0.16317851  0.47067767  0.25421191  1
  O  O108  1  0.30936462  0.46988655  0.75664592  1
  O  O109  1  0.16350987  0.69215130  0.75513940  1
  O  O110  1  0.51350744  0.83247744  0.75321910  1
