# generated using pymatgen
data_Na5ZrIn3Si3(SO8)3
_symmetry_space_group_name_H-M   'P 1'
_cell_length_a   9.16887565
_cell_length_b   9.19287864
_cell_length_c   22.94062727
_cell_angle_alpha   90.28248618
_cell_angle_beta   90.25819608
_cell_angle_gamma   120.12648819
_symmetry_Int_Tables_number   1
_chemical_formula_structural   Na5ZrIn3Si3(SO8)3
_chemical_formula_sum   'Na15 Zr3 In9 Si9 S9 O72'
_cell_volume   1672.35760780
_cell_formula_units_Z   3
loop_
 _symmetry_equiv_pos_site_id
 _symmetry_equiv_pos_as_xyz
  1  'x, y, z'
loop_
 _atom_site_type_symbol
 _atom_site_label
 _atom_site_symmetry_multiplicity
 _atom_site_fract_x
 _atom_site_fract_y
 _atom_site_fract_z
 _atom_site_occupancy
  Na  Na0  1  0.64704705  0.00621717  0.25837125  1
  Na  Na1  1  0.00091264  0.61866377  0.24664185  1
  Na  Na2  1  0.62868213  0.63379178  0.74182586  1
  Na  Na3  1  0.36915500  0.01720915  0.75949322  1
  Na  Na4  1  0.66659288  0.95268850  0.58658954  1
  Na  Na5  1  0.98028552  0.69192541  0.92392812  1
  Na  Na6  1  0.68746783  0.01169771  0.90864683  1
  Na  Na7  1  0.96043132  0.29954059  0.40568636  1
  Na  Na8  1  0.70961252  0.69281845  0.42592743  1
  Na  Na9  1  0.00126133  0.97013594  0.50173627  1
  Na  Na10  1  0.01357280  0.98244587  0.99836582  1
  Na  Na11  1  0.63668183  0.31512333  0.82966207  1
  Na  Na12  1  0.66633454  0.31584586  0.33207922  1
  Na  Na13  1  0.29646896  0.62586624  0.15931541  1
  Na  Na14  1  0.32948900  0.62718246  0.66551017  1
  Zr  Zr15  1  0.66490997  0.34580239  0.98111877  1
  Zr  Zr16  1  0.67037219  0.34159072  0.48179112  1
  Zr  Zr17  1  0.34675111  0.66756810  0.81495985  1
  In  In18  1  0.99860205  0.99928908  0.35001275  1
  In  In19  1  0.00414678  0.01172516  0.84892236  1
  In  In20  1  0.99155795  0.99768192  0.65178353  1
  In  In21  1  0.00185446  0.00171875  0.14447045  1
  In  In22  1  0.66033478  0.33738871  0.68410186  1
  In  In23  1  0.68831391  0.34395247  0.17812960  1
  In  In24  1  0.33377974  0.68132119  0.01679538  1
  In  In25  1  0.33999585  0.67503806  0.51535048  1
  In  In26  1  0.32071031  0.66256227  0.31907105  1
  Si  Si27  1  0.00426037  0.29562250  0.24973493  1
  Si  Si28  1  0.29161232  0.29360225  0.74734743  1
  Si  Si29  1  0.69972102  0.00422856  0.74963388  1
  Si  Si30  1  0.66592870  0.63732933  0.58526264  1
  Si  Si31  1  0.97801745  0.64252768  0.08554643  1
  Si  Si32  1  0.63220712  0.67257291  0.91889210  1
  Si  Si33  1  0.32984055  0.96532524  0.91538797  1
  Si  Si34  1  0.63221779  0.96608673  0.41486969  1
  Si  Si35  1  0.03642847  0.66935862  0.41603829  1
  S  S36  1  0.30075692  0.00448300  0.24885418  1
  S  S37  1  0.69710135  0.69665363  0.24989073  1
  S  S38  1  0.00196247  0.70058253  0.75112538  1
  S  S39  1  0.96360715  0.33625975  0.58259783  1
  S  S40  1  0.36906031  0.03744881  0.58305000  1
  S  S41  1  0.66576167  0.03680256  0.08386498  1
  S  S42  1  0.37510270  0.33534700  0.08493524  1
  S  S43  1  0.03818282  0.37429676  0.91934043  1
  S  S44  1  0.33529862  0.36994015  0.41718902  1
  O  O45  1  0.22439319  0.02322154  0.30332874  1
  O  O46  1  0.80058630  0.76630072  0.30473816  1
  O  O47  1  0.97506199  0.19075957  0.31092023  1
  O  O48  1  0.21536609  0.16547290  0.80187987  1
  O  O49  1  0.97087101  0.77370944  0.80444157  1
  O  O50  1  0.80323439  0.02438121  0.80992695  1
  O  O51  1  0.76971282  0.95451231  0.69155899  1
  O  O52  1  0.18749009  0.20872441  0.68716822  1
  O  O53  1  0.03465401  0.80968409  0.69956724  1
  O  O54  1  0.78497066  0.80538436  0.19983435  1
  O  O55  1  0.01653754  0.19304587  0.19408011  1
  O  O56  1  0.19143080  0.97493107  0.19751552  1
  O  O57  1  0.87881322  0.34971336  0.63498420  1
  O  O58  1  0.46590228  0.11135768  0.63813129  1
  O  O59  1  0.65680353  0.53926020  0.64524464  1
  O  O60  1  0.90066516  0.55124779  0.14888108  1
  O  O61  1  0.64605264  0.11084618  0.13995431  1
  O  O62  1  0.47021463  0.34438387  0.13911554  1
  O  O63  1  0.46656780  0.32152610  0.03293105  1
  O  O64  1  0.85074669  0.52883299  0.03052113  1
  O  O65  1  0.66913204  0.14013746  0.03339784  1
  O  O66  1  0.46843796  0.14325580  0.53276825  1
  O  O67  1  0.67362145  0.53217787  0.52720710  1
  O  O68  1  0.85928110  0.32231336  0.52904031  1
  O  O69  1  0.53757138  0.69834671  0.97355453  1
  O  O70  1  0.13662514  0.44691751  0.97276824  1
  O  O71  1  0.27771457  0.83634902  0.96975681  1
  O  O72  1  0.55580548  0.84344362  0.47125903  1
  O  O73  1  0.30550959  0.44604964  0.46915661  1
  O  O74  1  0.14994494  0.68564523  0.47213844  1
  O  O75  1  0.09431593  0.61446880  0.35603022  1
  O  O76  1  0.52696896  0.87995514  0.35393884  1
  O  O77  1  0.37220101  0.47748361  0.36481265  1
  O  O78  1  0.11971480  0.47881071  0.86725961  1
  O  O79  1  0.35920131  0.87485332  0.85711005  1
  O  O80  1  0.52119697  0.64382062  0.85869985  1
  O  O81  1  0.00816650  0.83117939  0.41060183  1
  O  O82  1  0.82692856  0.99862121  0.41275901  1
  O  O83  1  0.18587870  0.20124006  0.41034004  1
  O  O84  1  0.00359338  0.19980061  0.91377166  1
  O  O85  1  0.16647237  0.98966285  0.90961418  1
  O  O86  1  0.81986360  0.84034234  0.91429917  1
  O  O87  1  0.96789684  0.17634147  0.58182588  1
  O  O88  1  0.20271185  0.02417867  0.58250168  1
  O  O89  1  0.83790194  0.82713584  0.58388827  1
  O  O90  1  0.98590076  0.82636435  0.08421209  1
  O  O91  1  0.82661020  0.03463295  0.08313729  1
  O  O92  1  0.20655691  0.18170293  0.08360684  1
  O  O93  1  0.66982429  0.16491693  0.74301922  1
  O  O94  1  0.48968531  0.33362900  0.74662825  1
  O  O95  1  0.85084530  0.53180136  0.74423740  1
  O  O96  1  0.67335384  0.52423996  0.24410213  1
  O  O97  1  0.82640085  0.30874118  0.24701188  1
  O  O98  1  0.47234733  0.15592359  0.24367812  1
  O  O99  1  0.66080313  0.50815333  0.92387529  1
  O  O100  1  0.86832571  0.36473661  0.92300971  1
  O  O101  1  0.51428259  0.14231361  0.92439017  1
  O  O102  1  0.65252010  0.15490885  0.42288050  1
  O  O103  1  0.48742159  0.35209604  0.42438298  1
  O  O104  1  0.84074039  0.50344573  0.42468757  1
  O  O105  1  0.36224434  0.48833190  0.08177453  1
  O  O106  1  0.15993484  0.65154459  0.08092787  1
  O  O107  1  0.52005929  0.86539738  0.08157555  1
  O  O108  1  0.35672684  0.86972636  0.57889090  1
  O  O109  1  0.49821370  0.66143647  0.58150997  1
  O  O110  1  0.13348201  0.48465482  0.57895398  1
  O  O111  1  0.32186678  0.85227396  0.25199963  1
  O  O112  1  0.53189796  0.68967301  0.25463727  1
  O  O113  1  0.16643105  0.49042807  0.25205300  1
  O  O114  1  0.30927088  0.48110947  0.75494173  1
  O  O115  1  0.15344465  0.68368334  0.75773229  1
  O  O116  1  0.50638485  0.83314968  0.75507385  1
