# generated using pymatgen
data_MgVSbO4
_symmetry_space_group_name_H-M   'P 1'
_cell_length_a   3.15396057
_cell_length_b   5.65615096
_cell_length_c   5.65615096
_cell_angle_alpha   76.45909652
_cell_angle_beta   90.00000000
_cell_angle_gamma   90.00000000
_symmetry_Int_Tables_number   1
_chemical_formula_structural   MgVSbO4
_chemical_formula_sum   'Mg1 V1 Sb1 O4'
_cell_volume   98.09688277
_cell_formula_units_Z   1
loop_
 _symmetry_equiv_pos_site_id
 _symmetry_equiv_pos_as_xyz
  1  'x, y, z'
loop_
 _atom_site_type_symbol
 _atom_site_label
 _atom_site_symmetry_multiplicity
 _atom_site_fract_x
 _atom_site_fract_y
 _atom_site_fract_z
 _atom_site_occupancy
  Mg  Mg0  1  0.50000000  0.19432663  0.19432663  1
  V  V1  1  0.00000000  0.92602113  0.92602113  1
  Sb  Sb2  1  0.50000000  0.53199440  0.53199440  1
  O  O3  1  0.50000000  0.17851970  0.83208335  1
  O  O4  1  0.50000000  0.83208335  0.17851970  1
  O  O5  1  0.00000000  0.32045237  0.32045237  1
  O  O6  1  0.00000000  0.71104643  0.71104643  1
