# generated using pymatgen
data_MgFe4(PO3)12
_symmetry_space_group_name_H-M   'P 1'
_cell_length_a   8.73515540
_cell_length_b   8.67531597
_cell_length_c   8.80826811
_cell_angle_alpha   89.33882942
_cell_angle_beta   90.41846422
_cell_angle_gamma   91.37305684
_symmetry_Int_Tables_number   1
_chemical_formula_structural   MgFe4(PO3)12
_chemical_formula_sum   'Mg1 Fe4 P12 O36'
_cell_volume   667.24003762
_cell_formula_units_Z   1
loop_
 _symmetry_equiv_pos_site_id
 _symmetry_equiv_pos_as_xyz
  1  'x, y, z'
loop_
 _atom_site_type_symbol
 _atom_site_label
 _atom_site_symmetry_multiplicity
 _atom_site_fract_x
 _atom_site_fract_y
 _atom_site_fract_z
 _atom_site_occupancy
  Mg  Mg0  1  0.79604000  0.46711400  0.65323300  1
  Fe  Fe1  1  0.87184200  0.64706500  0.33085100  1
  Fe  Fe2  1  0.60031800  0.33231300  0.87449600  1
  Fe  Fe3  1  0.38093300  0.86178600  0.64489300  1
  Fe  Fe4  1  0.13220000  0.14526300  0.14682000  1
  P  P5  1  0.69056700  0.97653700  0.82207500  1
  P  P6  1  0.67478000  0.28593200  0.45317300  1
  P  P7  1  0.81712100  0.68320100  0.93665900  1
  P  P8  1  0.81767600  0.01431800  0.30984400  1
  P  P9  1  0.05282300  0.69135000  0.69155600  1
  P  P10  1  0.18269000  0.51468800  0.19130100  1
  P  P11  1  0.21429300  0.18953800  0.54686000  1
  P  P12  1  0.29804400  0.81142200  0.05022000  1
  P  P13  1  0.31736500  0.48951000  0.69201900  1
  P  P14  1  0.45638000  0.32844100  0.19129200  1
  P  P15  1  0.54060300  0.82231200  0.30488200  1
  P  P16  1  0.96968700  0.17185700  0.79545800  1
  O  O17  1  0.63436200  0.68658100  0.34801900  1
  O  O18  1  0.97517400  0.73230800  0.84907100  1
  O  O19  1  0.89754600  0.88343300  0.38347300  1
  O  O20  1  0.92762100  0.63601400  0.58504900  1
  O  O21  1  0.05364500  0.19043600  0.63559900  1
  O  O22  1  0.10524900  0.37572600  0.11971800  1
  O  O23  1  0.07881300  0.13067800  0.92001500  1
  O  O24  1  0.10363700  0.59118500  0.31903000  1
  O  O25  1  0.15319200  0.82174900  0.63641000  1
  O  O26  1  0.14933000  0.54362700  0.74251800  1
  O  O27  1  0.17424000  0.16500000  0.38345200  1
  O  O28  1  0.19352200  0.92193300  0.12732900  1
  O  O29  1  0.22298500  0.63877900  0.05857900  1
  O  O30  1  0.27397200  0.36735300  0.56127200  1
  O  O31  1  0.32500500  0.08710700  0.62920100  1
  O  O32  1  0.34399800  0.83811700  0.88802400  1
  O  O33  1  0.35207100  0.46627600  0.24909500  1
  O  O34  1  0.35771500  0.19883300  0.12865300  1
  O  O35  1  0.38747100  0.40950100  0.82572700  1
  O  O36  1  0.43022100  0.88152500  0.42087500  1
  O  O37  1  0.40140500  0.62655200  0.62249400  1
  O  O38  1  0.45169400  0.78873900  0.14882000  1
  O  O39  1  0.52580400  0.26807800  0.35161400  1
  O  O40  1  0.87474900  0.31443600  0.80959000  1
  O  O41  1  0.58641600  0.39005500  0.09775400  1
  O  O42  1  0.60122700  0.90346600  0.69320600  1
  O  O43  1  0.90432900  0.10873500  0.19162000  1
  O  O44  1  0.65256300  0.96244700  0.24200000  1
  O  O45  1  0.62421200  0.30607000  0.61655500  1
  O  O46  1  0.72187900  0.57486000  0.83721400  1
  O  O47  1  0.73499300  0.84617000  0.94416300  1
  O  O48  1  0.75904800  0.12652300  0.44360500  1
  O  O49  1  0.78701600  0.41551900  0.41389200  1
  O  O50  1  0.85706700  0.63639800  0.09336700  1
  O  O51  1  0.85641700  0.02734600  0.75605700  1
  O  O52  1  0.62211200  0.10423000  0.90849200  1
