# generated using pymatgen
data_Na14La6Nb2Si9(SO16)3
_symmetry_space_group_name_H-M   'P 1'
_cell_length_a   19.27491368
_cell_length_b   9.61296472
_cell_length_c   23.53604365
_cell_angle_alpha   90.13469981
_cell_angle_beta   89.47690227
_cell_angle_gamma   119.91537288
_symmetry_Int_Tables_number   1
_chemical_formula_structural   Na14La6Nb2Si9(SO16)3
_chemical_formula_sum   'Na42 La18 Nb6 Si27 S9 O144'
_cell_volume   3779.75889925
_cell_formula_units_Z   3
loop_
 _symmetry_equiv_pos_site_id
 _symmetry_equiv_pos_as_xyz
  1  'x, y, z'
loop_
 _atom_site_type_symbol
 _atom_site_label
 _atom_site_symmetry_multiplicity
 _atom_site_fract_x
 _atom_site_fract_y
 _atom_site_fract_z
 _atom_site_occupancy
  Na  Na0  1  0.81489790  0.00955459  0.23722587  1
  Na  Na1  1  0.68944803  0.36713267  0.23776849  1
  Na  Na2  1  0.50049224  0.62157090  0.24018937  1
  Na  Na3  1  0.31364897  0.61801428  0.73719698  1
  Na  Na4  1  0.99117027  0.35792549  0.74195904  1
  Na  Na5  1  0.18723891  0.01181492  0.73731125  1
  Na  Na6  1  0.14837855  0.32383006  0.58852527  1
  Na  Na7  1  0.65857482  0.33661864  0.59453538  1
  Na  Na8  1  0.01499287  0.69894193  0.58989723  1
  Na  Na9  1  0.51134690  0.68152046  0.58673920  1
  Na  Na10  1  0.32490892  0.97619015  0.59059696  1
  Na  Na11  1  0.83569957  0.97841612  0.59524201  1
  Na  Na12  1  0.15609561  0.98029096  0.09049423  1
  Na  Na13  1  0.65610938  0.97020590  0.08266972  1
  Na  Na14  1  0.33359842  0.68832942  0.09091483  1
  Na  Na15  1  0.82820276  0.68171155  0.08622492  1
  Na  Na16  1  0.01174948  0.34082734  0.08300743  1
  Na  Na17  1  0.51576618  0.34417328  0.08194698  1
  Na  Na18  1  0.49150389  0.67381153  0.91249803  1
  Na  Na19  1  0.97917398  0.64711084  0.90721283  1
  Na  Na20  1  0.36424385  0.06187681  0.91112945  1
  Na  Na21  1  0.85420583  0.05224610  0.90965066  1
  Na  Na22  1  0.15668663  0.29641844  0.91707596  1
  Na  Na23  1  0.66179768  0.28773401  0.92145874  1
  Na  Na24  1  0.48005211  0.31424758  0.41351198  1
  Na  Na25  1  0.98900087  0.30396934  0.41998382  1
  Na  Na26  1  0.15866219  0.03556061  0.42717434  1
  Na  Na27  1  0.65913879  0.01580382  0.42459923  1
  Na  Na28  1  0.35265903  0.65107479  0.42300051  1
  Na  Na29  1  0.86257370  0.66704034  0.41603660  1
  Na  Na30  1  0.00639259  0.00277049  0.51098625  1
  Na  Na31  1  0.50365011  0.98592758  0.50747052  1
  Na  Na32  1  0.00194913  0.02213637  0.99988703  1
  Na  Na33  1  0.50748455  0.01192186  0.99659324  1
  Na  Na34  1  0.35038958  0.33739476  0.82017290  1
  Na  Na35  1  0.83646699  0.32062411  0.82913370  1
  Na  Na36  1  0.33634798  0.33532434  0.33707798  1
  Na  Na37  1  0.85043135  0.36378232  0.32206534  1
  Na  Na38  1  0.16790974  0.67119583  0.16166602  1
  Na  Na39  1  0.66860355  0.66723499  0.16305189  1
  Na  Na40  1  0.16603705  0.66748336  0.66470871  1
  Na  Na41  1  0.67082145  0.66782942  0.66655902  1
  La  La42  1  0.00122239  0.99692770  0.34239873  1
  La  La43  1  0.50142564  0.99989695  0.34327702  1
  La  La44  1  0.99872948  0.00213348  0.84048474  1
  La  La45  1  0.50158731  0.00729382  0.84127352  1
  La  La46  1  0.33914118  0.33233128  0.68101038  1
  La  La47  1  0.83126401  0.33509909  0.68365871  1
  La  La48  1  0.33110238  0.32111485  0.18271653  1
  La  La49  1  0.84027294  0.34627836  0.18131203  1
  La  La50  1  0.33979999  0.33699879  0.99425713  1
  La  La51  1  0.83578951  0.33075437  0.98978800  1
  La  La52  1  0.33429546  0.33719830  0.49289204  1
  La  La53  1  0.83773065  0.33986011  0.49792836  1
  La  La54  1  0.16336088  0.65771552  0.01737947  1
  La  La55  1  0.66337520  0.66723211  0.01571523  1
  La  La56  1  0.16266241  0.65925551  0.51871291  1
  La  La57  1  0.66368433  0.66951252  0.51856944  1
  La  La58  1  0.66193585  0.66511997  0.30755483  1
  La  La59  1  0.16059599  0.65763012  0.80727842  1
  Nb  Nb60  1  0.99450448  0.99074860  0.65515001  1
  Nb  Nb61  1  0.49580183  0.98924913  0.65032682  1
  Nb  Nb62  1  0.99515182  0.00344403  0.14924226  1
  Nb  Nb63  1  0.50606339  0.01779076  0.14823506  1
  Nb  Nb64  1  0.15340642  0.63565353  0.31358999  1
  Nb  Nb65  1  0.65814649  0.68567927  0.81031083  1
  Si  Si66  1  0.64716524  0.99921567  0.24733346  1
  Si  Si67  1  0.84986882  0.70960642  0.25088558  1
  Si  Si68  1  0.00259120  0.29626918  0.25268672  1
  Si  Si69  1  0.50034826  0.29808188  0.25088870  1
  Si  Si70  1  0.14691990  0.29469220  0.74841003  1
  Si  Si71  1  0.00145189  0.70191456  0.75133436  1
  Si  Si72  1  0.50149306  0.70856930  0.75265493  1
  Si  Si73  1  0.34923787  0.98992503  0.75128316  1
  Si  Si74  1  0.84393065  0.98607630  0.75333325  1
  Si  Si75  1  0.48807018  0.31727490  0.58017391  1
  Si  Si76  1  0.98649357  0.31886874  0.58677988  1
  Si  Si77  1  0.17194490  0.02525009  0.58577316  1
  Si  Si78  1  0.67510675  0.02821481  0.58310634  1
  Si  Si79  1  0.33666666  0.64998676  0.58661638  1
  Si  Si80  1  0.83814959  0.65332694  0.58122766  1
  Si  Si81  1  0.48598973  0.65297496  0.08911999  1
  Si  Si82  1  0.98829981  0.65780251  0.08134940  1
  Si  Si83  1  0.33846454  0.02182041  0.08241824  1
  Si  Si84  1  0.83560279  0.02353583  0.08731366  1
  Si  Si85  1  0.17695438  0.32348820  0.08481132  1
  Si  Si86  1  0.67731672  0.32955473  0.08514317  1
  Si  Si87  1  0.01227055  0.35610296  0.91777794  1
  Si  Si88  1  0.51973605  0.37805502  0.91259082  1
  Si  Si89  1  0.66795605  0.97245191  0.91521841  1
  Si  Si90  1  0.16867760  0.36636167  0.41437646  1
  Si  Si91  1  0.01572242  0.65973809  0.41448740  1
  Si  Si92  1  0.51114518  0.66478897  0.41602096  1
  S  S93  1  0.15034805  0.97709651  0.25091512  1
  S  S94  1  0.34185707  0.70160504  0.25010611  1
  S  S95  1  0.64859642  0.32046431  0.74846373  1
  S  S96  1  0.31930105  0.66394344  0.91625527  1
  S  S97  1  0.81193677  0.66200923  0.91345877  1
  S  S98  1  0.16979746  0.97811066  0.91717286  1
  S  S99  1  0.30916135  0.95694894  0.41093566  1
  S  S100  1  0.81895273  0.97560562  0.41542756  1
  S  S101  1  0.66959884  0.36120534  0.41626727  1
  O  O102  1  0.11446130  0.99205777  0.30389677  1
  O  O103  1  0.61024097  0.01408633  0.30791937  1
  O  O104  1  0.38746376  0.77400847  0.30311894  1
  O  O105  1  0.88899167  0.77714107  0.31249438  1
  O  O106  1  0.49506556  0.21497185  0.31206840  1
  O  O107  1  0.99749610  0.21575261  0.31302410  1
  O  O108  1  0.11412064  0.21041208  0.81014950  1
  O  O109  1  0.61393601  0.23388241  0.80347586  1
  O  O110  1  0.49506463  0.77741715  0.81351586  1
  O  O111  1  0.99824287  0.77382421  0.81335403  1
  O  O112  1  0.38855676  0.00142033  0.81316222  1
  O  O113  1  0.89038321  0.01053905  0.81266024  1
  O  O114  1  0.41629672  0.99422367  0.70072730  1
  O  O115  1  0.89861073  0.97041202  0.69900204  1
  O  O116  1  0.08021701  0.16850343  0.69917952  1
  O  O117  1  0.59776303  0.22516866  0.69984006  1
  O  O118  1  0.99840118  0.82329507  0.69972177  1
  O  O119  1  0.51248215  0.83637248  0.69944373  1
  O  O120  1  0.38440907  0.80136397  0.20002451  1
  O  O121  1  0.91647415  0.84033428  0.20030742  1
  O  O122  1  0.01361827  0.19200450  0.19886620  1
  O  O123  1  0.49842138  0.17178733  0.19863046  1
  O  O124  1  0.10067648  0.96513673  0.20045552  1
  O  O125  1  0.58294333  0.99755241  0.19696480  1
  O  O126  1  0.44601832  0.37597312  0.62646412  1
  O  O127  1  0.94281771  0.35961071  0.63767623  1
  O  O128  1  0.23467010  0.11078520  0.63717211  1
  O  O129  1  0.74443017  0.12219477  0.62884566  1
  O  O130  1  0.31769225  0.53253241  0.64005229  1
  O  O131  1  0.81272782  0.50890141  0.62625862  1
  O  O132  1  0.44352888  0.53247545  0.14229339  1
  O  O133  1  0.94768606  0.51920113  0.12894879  1
  O  O134  1  0.31417755  0.11299306  0.12957585  1
  O  O135  1  0.81689143  0.09980292  0.14202851  1
  O  O136  1  0.24347841  0.36606208  0.13305557  1
  O  O137  1  0.73356449  0.35835562  0.13911453  1
  O  O138  1  0.20926855  0.28460593  0.02479482  1
  O  O139  1  0.70968295  0.28485102  0.02715428  1
  O  O140  1  0.43104056  0.58282005  0.03140815  1
  O  O141  1  0.93321713  0.59785224  0.02375416  1
  O  O142  1  0.36217185  0.12935347  0.02319341  1
  O  O143  1  0.85838305  0.13743185  0.03081270  1
  O  O144  1  0.20785167  0.13300415  0.52661968  1
  O  O145  1  0.70459471  0.12546544  0.52168375  1
  O  O146  1  0.35864227  0.58309684  0.52876113  1
  O  O147  1  0.85862042  0.59376291  0.52002620  1
  O  O148  1  0.43441961  0.26897128  0.52150935  1
  O  O149  1  0.93477569  0.28396546  0.52727497  1
  O  O150  1  0.28029670  0.67894855  0.96874287  1
  O  O151  1  0.77937203  0.67627303  0.96912162  1
  O  O152  1  0.06277855  0.44074359  0.97564125  1
  O  O153  1  0.56436645  0.44743943  0.97259915  1
  O  O154  1  0.16631878  0.88831433  0.96926984  1
  O  O155  1  0.66004000  0.87462832  0.97274911  1
  O  O156  1  0.27661252  0.87732418  0.46647046  1
  O  O157  1  0.77881930  0.87953936  0.46739584  1
  O  O158  1  0.16112198  0.45199848  0.47094285  1
  O  O159  1  0.66492881  0.44449630  0.46788488  1
  O  O160  1  0.06737113  0.68389505  0.47056556  1
  O  O161  1  0.56582033  0.68931263  0.47204948  1
  O  O162  1  0.07715698  0.65188855  0.35890801  1
  O  O163  1  0.55803122  0.65184923  0.35909937  1
  O  O164  1  0.25728399  0.85684448  0.36366290  1
  O  O165  1  0.77105532  0.88980907  0.36478778  1
  O  O166  1  0.16926675  0.49547851  0.35954285  1
  O  O167  1  0.67517523  0.45600807  0.36507210  1
  O  O168  1  0.06134385  0.46684180  0.86233860  1
  O  O169  1  0.58143409  0.50762563  0.85989401  1
  O  O170  1  0.17585696  0.89329463  0.86643638  1
  O  O171  1  0.66924050  0.84923942  0.86016681  1
  O  O172  1  0.27138429  0.65439733  0.86608647  1
  O  O173  1  0.76063881  0.65977865  0.86655965  1
  O  O174  1  0.00644104  0.81802012  0.40887394  1
  O  O175  1  0.49686709  0.82216898  0.41635483  1
  O  O176  1  0.39126582  0.98042752  0.40664231  1
  O  O177  1  0.90014142  0.99594438  0.41378896  1
  O  O178  1  0.08937154  0.18974081  0.41045925  1
  O  O179  1  0.59534030  0.19985756  0.41583077  1
  O  O180  1  0.00172501  0.17381938  0.91836008  1
  O  O181  1  0.50879136  0.19754508  0.90855319  1
  O  O182  1  0.09589948  0.99115669  0.91673570  1
  O  O183  1  0.58768884  0.98919081  0.91178530  1
  O  O184  1  0.40110173  0.80760865  0.91462807  1
  O  O185  1  0.89513268  0.80104177  0.91016393  1
  O  O186  1  0.49108546  0.15137952  0.59960991  1
  O  O187  1  0.98848931  0.14928071  0.59891909  1
  O  O188  1  0.08323454  0.01391410  0.59754115  1
  O  O189  1  0.58901224  0.02667190  0.59993019  1
  O  O190  1  0.42485858  0.82530381  0.59870301  1
  O  O191  1  0.92231725  0.82402735  0.59684329  1
  O  O192  1  0.48943224  0.82871702  0.10168211  1
  O  O193  1  0.99274479  0.83208489  0.10058179  1
  O  O194  1  0.42145842  0.01531607  0.09886792  1
  O  O195  1  0.92342082  0.02142257  0.09832859  1
  O  O196  1  0.08989644  0.15328027  0.10064157  1
  O  O197  1  0.58574798  0.16095287  0.09534267  1
  O  O198  1  0.33042329  0.13610833  0.74665828  1
  O  O199  1  0.83686242  0.14470579  0.74451741  1
  O  O200  1  0.23621766  0.31945113  0.74232738  1
  O  O201  1  0.72900097  0.34189048  0.74456115  1
  O  O202  1  0.42248121  0.53730422  0.74474995  1
  O  O203  1  0.92966229  0.51696555  0.74843557  1
  O  O204  1  0.33419924  0.54040879  0.24602128  1
  O  O205  1  0.83085607  0.52546208  0.24621735  1
  O  O206  1  0.42866951  0.34106540  0.24825489  1
  O  O207  1  0.92372189  0.31060594  0.24547732  1
  O  O208  1  0.23107255  0.11794107  0.24675831  1
  O  O209  1  0.73628853  0.15329091  0.24339074  1
  O  O210  1  0.32442543  0.51445221  0.91839459  1
  O  O211  1  0.81500024  0.50906837  0.91227491  1
  O  O212  1  0.43291570  0.37328571  0.91035227  1
  O  O213  1  0.92489572  0.35045889  0.91775087  1
  O  O214  1  0.24250208  0.14157011  0.91801249  1
  O  O215  1  0.75142704  0.14248612  0.91027197  1
  O  O216  1  0.31341184  0.11692775  0.41022504  1
  O  O217  1  0.82301624  0.13433947  0.41841742  1
  O  O218  1  0.25273970  0.36517547  0.40927155  1
  O  O219  1  0.74183967  0.34247104  0.41758885  1
  O  O220  1  0.42427198  0.49402524  0.41852100  1
  O  O221  1  0.93080827  0.49024791  0.41141128  1
  O  O222  1  0.15583863  0.46905832  0.08332220  1
  O  O223  1  0.65820731  0.47552597  0.08246494  1
  O  O224  1  0.08247687  0.70406600  0.07762714  1
  O  O225  1  0.57751578  0.68703253  0.08375831  1
  O  O226  1  0.26628602  0.83525740  0.07994285  1
  O  O227  1  0.76665530  0.83718072  0.08100456  1
  O  O228  1  0.15629276  0.84222930  0.58245283  1
  O  O229  1  0.65248549  0.83943554  0.58303426  1
  O  O230  1  0.26920369  0.70234296  0.58092584  1
  O  O231  1  0.76642060  0.69814941  0.57987155  1
  O  O232  1  0.07910835  0.46594720  0.58395369  1
  O  O233  1  0.58217303  0.45858205  0.57684761  1
  O  O234  1  0.15662547  0.82588803  0.25336988  1
  O  O235  1  0.64414012  0.82648031  0.24055338  1
  O  O236  1  0.26058145  0.68779761  0.25524171  1
  O  O237  1  0.76888182  0.72219963  0.24088412  1
  O  O238  1  0.08763600  0.48529864  0.25738670  1
  O  O239  1  0.58863773  0.46058158  0.24138620  1
  O  O240  1  0.14507180  0.46261284  0.74129427  1
  O  O241  1  0.65168135  0.47895553  0.75023187  1
  O  O242  1  0.09018501  0.71811485  0.74083238  1
  O  O243  1  0.58639296  0.69331033  0.75635326  1
  O  O244  1  0.26918702  0.81510033  0.74104301  1
  O  O245  1  0.75306181  0.81512350  0.76038889  1
