# generated using pymatgen
data_Na4ZnSi2SnSO12
_symmetry_space_group_name_H-M   'P 1'
_cell_length_a   9.23646750
_cell_length_b   9.15571695
_cell_length_c   22.24374780
_cell_angle_alpha   90.14776977
_cell_angle_beta   90.00000000
_cell_angle_gamma   120.29218428
_symmetry_Int_Tables_number   1
_chemical_formula_structural   Na4ZnSi2SnSO12
_chemical_formula_sum   'Na24 Zn6 Si12 Sn6 S6 O72'
_cell_volume   1624.23441577
_cell_formula_units_Z   6
loop_
 _symmetry_equiv_pos_site_id
 _symmetry_equiv_pos_as_xyz
  1  'x, y, z'
loop_
 _atom_site_type_symbol
 _atom_site_label
 _atom_site_symmetry_multiplicity
 _atom_site_fract_x
 _atom_site_fract_y
 _atom_site_fract_z
 _atom_site_occupancy
  Na  Na0  1  0.63887897  0.02167898  0.25388654  1
  Na  Na1  1  0.36427806  0.35151172  0.24422317  1
  Na  Na2  1  0.99444542  0.62250921  0.24311000  1
  Na  Na3  1  0.62806378  0.62250921  0.74311000  1
  Na  Na4  1  0.98723365  0.35151172  0.74422317  1
  Na  Na5  1  0.38280001  0.02167898  0.75388654  1
  Na  Na6  1  0.30554597  0.35501198  0.58721954  1
  Na  Na7  1  0.03094506  0.68484472  0.57755617  1
  Na  Na8  1  0.66111242  0.95584221  0.57644300  1
  Na  Na9  1  0.29473078  0.95584221  0.07644300  1
  Na  Na10  1  0.65390065  0.68484472  0.07755617  1
  Na  Na11  1  0.04946701  0.35501198  0.08721954  1
  Na  Na12  1  0.97221197  0.68834598  0.92055354  1
  Na  Na13  1  0.69761106  0.01817872  0.91089017  1
  Na  Na14  1  0.32777842  0.28917621  0.90977700  1
  Na  Na15  1  0.96139678  0.28917621  0.40977700  1
  Na  Na16  1  0.32056665  0.01817872  0.41089017  1
  Na  Na17  1  0.71613301  0.68834598  0.42055354  1
  Na  Na18  1  0.98293592  0.98881419  0.49476000  1
  Na  Na19  1  0.00587827  0.98881419  0.99476000  1
  Na  Na20  1  0.64960292  0.32214719  0.82809300  1
  Na  Na21  1  0.67254527  0.32214719  0.32809300  1
  Na  Na22  1  0.31626892  0.65548119  0.16142700  1
  Na  Na23  1  0.33921127  0.65548119  0.66142700  1
  Zn  Zn24  1  0.00271040  0.00209789  0.34904669  1
  Zn  Zn25  1  0.99938749  0.00209789  0.84904669  1
  Zn  Zn26  1  0.66937740  0.33543089  0.68237969  1
  Zn  Zn27  1  0.66605449  0.33543089  0.18237969  1
  Zn  Zn28  1  0.33604340  0.66876489  0.01571369  1
  Zn  Zn29  1  0.33272049  0.66876489  0.51571369  1
  Si  Si30  1  0.30097927  0.00298074  0.25285977  1
  Si  Si31  1  0.00040077  0.29377390  0.25315515  1
  Si  Si32  1  0.29337313  0.29377390  0.75315515  1
  Si  Si33  1  0.70200147  0.00298074  0.75285977  1
  Si  Si34  1  0.96764627  0.33631374  0.58619277  1
  Si  Si35  1  0.66706777  0.62710690  0.58648815  1
  Si  Si36  1  0.96004013  0.62710690  0.08648815  1
  Si  Si37  1  0.36866847  0.33631374  0.08619277  1
  Si  Si38  1  0.63431227  0.66964774  0.91952677  1
  Si  Si39  1  0.33373377  0.96044090  0.91982215  1
  Si  Si40  1  0.62670613  0.96044090  0.41982215  1
  Si  Si41  1  0.03533447  0.66964774  0.41952677  1
  Sn  Sn42  1  0.98648347  0.00490656  0.65050067  1
  Sn  Sn43  1  0.01842309  0.00490656  0.15050067  1
  Sn  Sn44  1  0.65315047  0.33823956  0.98383367  1
  Sn  Sn45  1  0.68509009  0.33823956  0.48383367  1
  Sn  Sn46  1  0.31981647  0.67157356  0.31716767  1
  Sn  Sn47  1  0.35175609  0.67157356  0.81716767  1
  S  S48  1  0.70353451  0.70767121  0.25119732  1
  S  S49  1  0.00413670  0.70767121  0.75119732  1
  S  S50  1  0.37020151  0.04100421  0.58453032  1
  S  S51  1  0.67080370  0.04100421  0.08453032  1
  S  S52  1  0.03686751  0.37433821  0.91786432  1
  S  S53  1  0.33746970  0.37433821  0.41786432  1
  O  O54  1  0.21412862  0.03153950  0.31097562  1
  O  O55  1  0.80658766  0.78815640  0.30499439  1
  O  O56  1  0.96742192  0.17631915  0.31099563  1
  O  O57  1  0.20889724  0.17631915  0.81099563  1
  O  O58  1  0.98156874  0.78815640  0.80499439  1
  O  O59  1  0.81741087  0.03153950  0.81097562  1
  O  O60  1  0.77507845  0.95159579  0.69218367  1
  O  O61  1  0.17647482  0.20992582  0.69051797  1
  O  O62  1  0.03614018  0.81561221  0.69571043  1
  O  O63  1  0.77947202  0.81561221  0.19571043  1
  O  O64  1  0.03345100  0.20992582  0.19051797  1
  O  O65  1  0.17651734  0.95159579  0.19218367  1
  O  O66  1  0.88079562  0.36487250  0.64430862  1
  O  O67  1  0.47325466  0.12148940  0.63832739  1
  O  O68  1  0.63408892  0.50965215  0.64432863  1
  O  O69  1  0.87556424  0.50965215  0.14432863  1
  O  O70  1  0.64823574  0.12148940  0.13832739  1
  O  O71  1  0.48407787  0.36487250  0.14430862  1
  O  O72  1  0.44174545  0.28492879  0.02551667  1
  O  O73  1  0.84314182  0.54325882  0.02385097  1
  O  O74  1  0.70280718  0.14894521  0.02904343  1
  O  O75  1  0.44613902  0.14894521  0.52904343  1
  O  O76  1  0.70011800  0.54325882  0.52385097  1
  O  O77  1  0.84318434  0.28492879  0.52551667  1
  O  O78  1  0.54746162  0.69820650  0.97764262  1
  O  O79  1  0.13992066  0.45482340  0.97166139  1
  O  O80  1  0.30075492  0.84298615  0.97766263  1
  O  O81  1  0.54223024  0.84298615  0.47766263  1
  O  O82  1  0.31490174  0.45482340  0.47166139  1
  O  O83  1  0.15074387  0.69820650  0.47764262  1
  O  O84  1  0.10841145  0.61826279  0.35885067  1
  O  O85  1  0.50980782  0.87659282  0.35718497  1
  O  O86  1  0.36947318  0.48227921  0.36237743  1
  O  O87  1  0.11280502  0.48227921  0.86237743  1
  O  O88  1  0.36678400  0.87659282  0.85718497  1
  O  O89  1  0.50985034  0.61826279  0.85885067  1
  O  O90  1  0.01559226  0.83595086  0.41219758  1
  O  O91  1  0.81508276  0.99038274  0.41356090  1
  O  O92  1  0.18745068  0.20574256  0.41228248  1
  O  O93  1  0.01829187  0.20574256  0.91228248  1
  O  O94  1  0.17529997  0.99038274  0.91356090  1
  O  O95  1  0.82035860  0.83595086  0.91219758  1
  O  O96  1  0.98521219  0.16191503  0.58627237  1
  O  O97  1  0.19955426  0.02351464  0.58844311  1
  O  O98  1  0.85230504  0.81340091  0.58912655  1
  O  O99  1  0.96109587  0.81340091  0.08912655  1
  O  O100  1  0.82396038  0.02351464  0.08844311  1
  O  O101  1  0.17670284  0.16191503  0.08627237  1
  O  O102  1  0.68225926  0.16928386  0.74553058  1
  O  O103  1  0.48174976  0.32371574  0.74689390  1
  O  O104  1  0.85411768  0.53907556  0.74561548  1
  O  O105  1  0.68495887  0.53907556  0.24561548  1
  O  O106  1  0.84196697  0.32371574  0.24689390  1
  O  O107  1  0.48702560  0.16928386  0.24553058  1
  O  O108  1  0.65187919  0.49524803  0.91960537  1
  O  O109  1  0.86622126  0.35684764  0.92177611  1
  O  O110  1  0.51897204  0.14673391  0.92245955  1
  O  O111  1  0.62776287  0.14673391  0.42245955  1
  O  O112  1  0.49062738  0.35684764  0.42177611  1
  O  O113  1  0.84336984  0.49524803  0.41960537  1
  O  O114  1  0.34892526  0.50261786  0.07886458  1
  O  O115  1  0.14841576  0.65704974  0.08022790  1
  O  O116  1  0.52078368  0.87240956  0.07894948  1
  O  O117  1  0.35162487  0.87240956  0.57894948  1
  O  O118  1  0.50863297  0.65704974  0.58022790  1
  O  O119  1  0.15369160  0.50261786  0.57886458  1
  O  O120  1  0.31854519  0.82858203  0.25293937  1
  O  O121  1  0.53288726  0.69018164  0.25511011  1
  O  O122  1  0.18563804  0.48006791  0.25579355  1
  O  O123  1  0.29442887  0.48006791  0.75579355  1
  O  O124  1  0.15729338  0.69018164  0.75511011  1
  O  O125  1  0.51003584  0.82858203  0.75293937  1
