# generated using pymatgen
data_NaTaIn3P3(SO8)3
_symmetry_space_group_name_H-M   'P 1'
_cell_length_a   8.87387823
_cell_length_b   8.85226905
_cell_length_c   23.18854631
_cell_angle_alpha   90.30195775
_cell_angle_beta   90.08725978
_cell_angle_gamma   120.14925983
_symmetry_Int_Tables_number   1
_chemical_formula_structural   NaTaIn3P3(SO8)3
_chemical_formula_sum   'Na3 Ta3 In9 P9 S9 O72'
_cell_volume   1575.09219993
_cell_formula_units_Z   3
loop_
 _symmetry_equiv_pos_site_id
 _symmetry_equiv_pos_as_xyz
  1  'x, y, z'
loop_
 _atom_site_type_symbol
 _atom_site_label
 _atom_site_symmetry_multiplicity
 _atom_site_fract_x
 _atom_site_fract_y
 _atom_site_fract_z
 _atom_site_occupancy
  Na  Na0  1  0.00120969  0.02017066  0.99995979  1
  Na  Na1  1  0.68613069  0.34457938  0.83403351  1
  Na  Na2  1  0.66177972  0.34378697  0.33805190  1
  Ta  Ta3  1  0.00172444  0.99493478  0.64514520  1
  Ta  Ta4  1  0.65996105  0.33229193  0.18292475  1
  Ta  Ta5  1  0.33025949  0.65739880  0.52226261  1
  In  In6  1  0.99886340  0.99832059  0.35577457  1
  In  In7  1  0.99950018  0.00290533  0.85299567  1
  In  In8  1  0.99546427  0.00315149  0.14822567  1
  In  In9  1  0.67221157  0.33871425  0.68089889  1
  In  In10  1  0.66699753  0.32738615  0.98030568  1
  In  In11  1  0.66204849  0.33355666  0.48672343  1
  In  In12  1  0.33447594  0.66003605  0.02358432  1
  In  In13  1  0.34325482  0.66271871  0.31275437  1
  In  In14  1  0.31952079  0.66155480  0.81057560  1
  P  P15  1  0.71419414  0.70828630  0.25057935  1
  P  P16  1  0.99522110  0.70847961  0.75105857  1
  P  P17  1  0.95649769  0.32748641  0.58327350  1
  P  P18  1  0.37503253  0.03790519  0.58344338  1
  P  P19  1  0.66657025  0.62624226  0.58325037  1
  P  P20  1  0.66598875  0.03984348  0.08177723  1
  P  P21  1  0.37134105  0.32824672  0.08111781  1
  P  P22  1  0.03913483  0.37369207  0.91687922  1
  P  P23  1  0.33627400  0.37371553  0.41571612  1
  S  S24  1  0.29708998  0.00280838  0.25013694  1
  S  S25  1  0.99325449  0.29571411  0.25052205  1
  S  S26  1  0.29380139  0.28922782  0.74905184  1
  S  S27  1  0.70883920  0.00115884  0.74926886  1
  S  S28  1  0.95631102  0.62414127  0.08391627  1
  S  S29  1  0.62578710  0.66621384  0.91569431  1
  S  S30  1  0.33250438  0.95869604  0.91662520  1
  S  S31  1  0.62023107  0.95821690  0.41756110  1
  S  S32  1  0.04519896  0.66320987  0.41635940  1
  O  O33  1  0.23010566  0.04683406  0.30223544  1
  O  O34  1  0.82732101  0.77725340  0.30585709  1
  O  O35  1  0.95647513  0.18647343  0.30255529  1
  O  O36  1  0.21815084  0.18921418  0.80200368  1
  O  O37  1  0.96720109  0.79024377  0.80518017  1
  O  O38  1  0.81363482  0.03461252  0.80218226  1
  O  O39  1  0.80536751  0.98824037  0.69750001  1
  O  O40  1  0.18030345  0.19418112  0.69728421  1
  O  O41  1  0.00699107  0.82551282  0.69693276  1
  O  O42  1  0.79699958  0.81618167  0.19710362  1
  O  O43  1  0.02815484  0.22232757  0.19884433  1
  O  O44  1  0.19411535  0.97728313  0.19788348  1
  O  O45  1  0.89656595  0.38371079  0.63612549  1
  O  O46  1  0.48892474  0.10491167  0.63695469  1
  O  O47  1  0.61327039  0.51135216  0.63618867  1
  O  O48  1  0.85930286  0.51347834  0.13638714  1
  O  O49  1  0.65525059  0.14694243  0.13708868  1
  O  O50  1  0.49129486  0.34520282  0.13706046  1
  O  O51  1  0.45449416  0.30053391  0.02803461  1
  O  O52  1  0.85123305  0.55088014  0.03157796  1
  O  O53  1  0.70269767  0.15288546  0.02882289  1
  O  O54  1  0.43583079  0.15223804  0.53022156  1
  O  O55  1  0.71953225  0.56622477  0.52931432  1
  O  O56  1  0.84450468  0.28182622  0.52917228  1
  O  O57  1  0.54749273  0.69040055  0.96864838  1
  O  O58  1  0.14504840  0.45781188  0.97225129  1
  O  O59  1  0.31645898  0.85949699  0.96940123  1
  O  O60  1  0.52446034  0.84912727  0.46879298  1
  O  O61  1  0.32165119  0.47808828  0.46964065  1
  O  O62  1  0.15382436  0.67831712  0.46860646  1
  O  O63  1  0.12344492  0.64107128  0.36325405  1
  O  O64  1  0.51662680  0.88688444  0.36412639  1
  O  O65  1  0.36590326  0.48189107  0.36153251  1
  O  O66  1  0.12085023  0.47478595  0.86084330  1
  O  O67  1  0.35652660  0.87991646  0.86330886  1
  O  O68  1  0.52549158  0.64862099  0.86229987  1
  O  O69  1  0.03576076  0.82453935  0.41505274  1
  O  O70  1  0.78783470  0.96176266  0.41477915  1
  O  O71  1  0.16503101  0.19823317  0.41297451  1
  O  O72  1  0.01957097  0.18791884  0.91424139  1
  O  O73  1  0.17147441  0.97198205  0.91390707  1
  O  O74  1  0.80439674  0.82275508  0.91340007  1
  O  O75  1  0.99019680  0.17514332  0.59852144  1
  O  O76  1  0.18819527  0.00835405  0.59826329  1
  O  O77  1  0.82038238  0.81462943  0.59771292  1
  O  O78  1  0.97912697  0.79956119  0.09112475  1
  O  O79  1  0.82543564  0.01757733  0.08917712  1
  O  O80  1  0.19443445  0.16279597  0.09024004  1
  O  O81  1  0.68420598  0.15375214  0.74277291  1
  O  O82  1  0.46619447  0.30427567  0.74251157  1
  O  O83  1  0.83282858  0.52609470  0.74409109  1
  O  O84  1  0.69200244  0.51846142  0.23937118  1
  O  O85  1  0.83176324  0.31010413  0.24104925  1
  O  O86  1  0.47933793  0.16376530  0.24136963  1
  O  O87  1  0.63993258  0.50542124  0.91866876  1
  O  O88  1  0.85515396  0.35533295  0.91885907  1
  O  O89  1  0.48777417  0.13817427  0.91813621  1
  O  O90  1  0.64626811  0.13634589  0.42364312  1
  O  O91  1  0.49819234  0.35422469  0.42302611  1
  O  O92  1  0.87027033  0.50583851  0.42183593  1
  O  O93  1  0.36535072  0.49621082  0.08236993  1
  O  O94  1  0.12271620  0.62832725  0.08310360  1
  O  O95  1  0.49354422  0.86883295  0.08025072  1
  O  O96  1  0.34169725  0.85081082  0.56761793  1
  O  O97  1  0.51191316  0.65939554  0.56855970  1
  O  O98  1  0.14371964  0.48623581  0.56829357  1
  O  O99  1  0.32070413  0.85224414  0.25792238  1
  O  O100  1  0.53123140  0.68004075  0.25648077  1
  O  O101  1  0.13988176  0.47387747  0.25780558  1
  O  O102  1  0.30684446  0.46117698  0.75050755  1
  O  O103  1  0.16627226  0.70616170  0.75098089  1
  O  O104  1  0.54151879  0.83656016  0.75237947  1
