# generated using pymatgen
data_Na6Zn4Ga4SiS11O48
_symmetry_space_group_name_H-M   'P 1'
_cell_length_a   17.33838908
_cell_length_b   8.68629474
_cell_length_c   22.31429630
_cell_angle_alpha   89.75554588
_cell_angle_beta   89.70586839
_cell_angle_gamma   120.10373336
_symmetry_Int_Tables_number   1
_chemical_formula_structural   Na6Zn4Ga4SiS11O48
_chemical_formula_sum   'Na18 Zn12 Ga12 Si3 S33 O144'
_cell_volume   2907.25361117
_cell_formula_units_Z   3
loop_
 _symmetry_equiv_pos_site_id
 _symmetry_equiv_pos_as_xyz
  1  'x, y, z'
loop_
 _atom_site_type_symbol
 _atom_site_label
 _atom_site_symmetry_multiplicity
 _atom_site_fract_x
 _atom_site_fract_y
 _atom_site_fract_z
 _atom_site_occupancy
  Na  Na0  1  0.81768299  0.99769557  0.24750257  1
  Na  Na1  1  0.99725185  0.63408627  0.25291961  1
  Na  Na2  1  0.31657234  0.64404806  0.74898204  1
  Na  Na3  1  0.81573755  0.63927783  0.74662942  1
  Na  Na4  1  0.99680951  0.36227773  0.75126037  1
  Na  Na5  1  0.68858082  0.00023690  0.74918772  1
  Na  Na6  1  0.99853352  0.99836196  0.49878422  1
  Na  Na7  1  0.50197090  0.00206030  0.49670201  1
  Na  Na8  1  0.00098857  0.00149766  0.00111634  1
  Na  Na9  1  0.49992849  0.00000355  0.00118717  1
  Na  Na10  1  0.33502662  0.31406193  0.83537318  1
  Na  Na11  1  0.83405755  0.32542387  0.83717807  1
  Na  Na12  1  0.33452312  0.33496555  0.33138301  1
  Na  Na13  1  0.82786826  0.34375532  0.33536611  1
  Na  Na14  1  0.17419882  0.66940442  0.16674853  1
  Na  Na15  1  0.66488261  0.65585199  0.16778739  1
  Na  Na16  1  0.17218201  0.68665749  0.66465729  1
  Na  Na17  1  0.66780302  0.66787791  0.66344585  1
  Zn  Zn18  1  0.49799724  0.99916605  0.35151714  1
  Zn  Zn19  1  0.83407007  0.32246585  0.67927235  1
  Zn  Zn20  1  0.33414969  0.33630715  0.18190782  1
  Zn  Zn21  1  0.82842648  0.34576356  0.18286882  1
  Zn  Zn22  1  0.33330375  0.33281628  0.98594216  1
  Zn  Zn23  1  0.83308945  0.33288593  0.98521836  1
  Zn  Zn24  1  0.83235306  0.33327419  0.48269157  1
  Zn  Zn25  1  0.16443773  0.66179694  0.51472779  1
  Zn  Zn26  1  0.66923945  0.66889038  0.51604213  1
  Zn  Zn27  1  0.17540447  0.67353047  0.32000461  1
  Zn  Zn28  1  0.17526690  0.69085233  0.81621146  1
  Zn  Zn29  1  0.66892511  0.67044936  0.81763510  1
  Ga  Ga30  1  0.99735797  0.98644294  0.35102526  1
  Ga  Ga31  1  0.99787342  0.00540038  0.85248939  1
  Ga  Ga32  1  0.49341146  0.00842168  0.85221151  1
  Ga  Ga33  1  0.99270151  0.99467759  0.64709749  1
  Ga  Ga34  1  0.49525268  0.99796223  0.64752940  1
  Ga  Ga35  1  0.99449238  0.99267205  0.15051156  1
  Ga  Ga36  1  0.49923420  0.00124603  0.15136947  1
  Ga  Ga37  1  0.33392950  0.31461369  0.68385111  1
  Ga  Ga38  1  0.33315957  0.33198630  0.48108788  1
  Ga  Ga39  1  0.16689154  0.66763025  0.01633165  1
  Ga  Ga40  1  0.66558971  0.66746147  0.01663338  1
  Ga  Ga41  1  0.66617030  0.65350981  0.31548662  1
  Si  Si42  1  0.85199169  0.70535692  0.25135070  1
  Si  Si43  1  0.35540455  0.00489634  0.74867745  1
  Si  Si44  1  0.85478059  0.00049034  0.75104388  1
  S  S45  1  0.14679788  0.00508555  0.24995967  1
  S  S46  1  0.64291775  0.99569667  0.25058389  1
  S  S47  1  0.35410059  0.70797327  0.24955544  1
  S  S48  1  0.00444039  0.29122384  0.25000217  1
  S  S49  1  0.49885088  0.29132662  0.25022368  1
  S  S50  1  0.14524368  0.28327220  0.74887061  1
  S  S51  1  0.64166843  0.28658144  0.75009658  1
  S  S52  1  0.00221597  0.71699695  0.74987645  1
  S  S53  1  0.49883722  0.70936736  0.74927873  1
  S  S54  1  0.47891991  0.33314275  0.58250459  1
  S  S55  1  0.98409169  0.33399642  0.58340047  1
  S  S56  1  0.18576387  0.04307717  0.58363905  1
  S  S57  1  0.68034612  0.03385511  0.58471021  1
  S  S58  1  0.33468102  0.61936113  0.58441898  1
  S  S59  1  0.83466605  0.62996525  0.58461656  1
  S  S60  1  0.48337482  0.63414126  0.08297085  1
  S  S61  1  0.98466154  0.63347286  0.08260117  1
  S  S62  1  0.33325635  0.03401574  0.08337022  1
  S  S63  1  0.83324162  0.03528098  0.08297585  1
  S  S64  1  0.18262472  0.33154379  0.08354267  1
  S  S65  1  0.68161957  0.33240832  0.08214167  1
  S  S66  1  0.31455156  0.66619106  0.91694112  1
  S  S67  1  0.81484129  0.66697297  0.91714359  1
  S  S68  1  0.02207207  0.37494703  0.91580518  1
  S  S69  1  0.52166690  0.37511342  0.91697280  1
  S  S70  1  0.16428551  0.96194332  0.91712730  1
  S  S71  1  0.66396991  0.96156978  0.91580960  1
  S  S72  1  0.31465867  0.96580605  0.41921069  1
  S  S73  1  0.81469362  0.96226536  0.41498788  1
  S  S74  1  0.16606298  0.36502221  0.41673934  1
  S  S75  1  0.66570650  0.37168877  0.41748559  1
  S  S76  1  0.01932755  0.66888632  0.41558411  1
  S  S77  1  0.52012132  0.66371036  0.41700468  1
  O  O78  1  0.10687412  0.03388899  0.30483829  1
  O  O79  1  0.60477710  0.02775448  0.30385133  1
  O  O80  1  0.40700579  0.78786989  0.30334188  1
  O  O81  1  0.91829709  0.79486735  0.30777963  1
  O  O82  1  0.48584035  0.18520943  0.30409764  1
  O  O83  1  0.99004102  0.18046218  0.30437033  1
  O  O84  1  0.10939111  0.17505869  0.80443452  1
  O  O85  1  0.60386208  0.16941594  0.80446911  1
  O  O86  1  0.48341055  0.78893981  0.80392237  1
  O  O87  1  0.98848656  0.79849981  0.80466427  1
  O  O88  1  0.41419459  0.03907702  0.80895413  1
  O  O89  1  0.92078994  0.04570143  0.80874337  1
  O  O90  1  0.39843644  0.95718446  0.69107449  1
  O  O91  1  0.89758110  0.95599481  0.69322679  1
  O  O92  1  0.08999296  0.20022614  0.69534249  1
  O  O93  1  0.59049574  0.20362909  0.69516098  1
  O  O94  1  0.01856615  0.82618048  0.69501082  1
  O  O95  1  0.51924742  0.82583442  0.69528080  1
  O  O96  1  0.39586453  0.81982665  0.19379555  1
  O  O97  1  0.89340231  0.83817003  0.19250438  1
  O  O98  1  0.01980080  0.21414285  0.19492400  1
  O  O99  1  0.51616017  0.21366261  0.19483578  1
  O  O100  1  0.08948633  0.97250535  0.19580709  1
  O  O101  1  0.58996149  0.97055401  0.19485541  1
  O  O102  1  0.43822255  0.36229762  0.63736683  1
  O  O103  1  0.94711561  0.35970623  0.64053359  1
  O  O104  1  0.24022899  0.12547887  0.63827663  1
  O  O105  1  0.73084132  0.10857946  0.64119982  1
  O  O106  1  0.32278299  0.51267342  0.64077115  1
  O  O107  1  0.82283835  0.52918378  0.64168022  1
  O  O108  1  0.44554479  0.52456251  0.13717534  1
  O  O109  1  0.94809836  0.52770091  0.13836292  1
  O  O110  1  0.31666135  0.10942026  0.13733454  1
  O  O111  1  0.81880198  0.10954959  0.13882061  1
  O  O112  1  0.23714563  0.36462924  0.13732647  1
  O  O113  1  0.73500271  0.36495020  0.13641031  1
  O  O114  1  0.22106202  0.30070959  0.02906268  1
  O  O115  1  0.72016753  0.30101704  0.02815875  1
  O  O116  1  0.42968727  0.55827202  0.02881530  1
  O  O117  1  0.92905103  0.55331831  0.02972084  1
  O  O118  1  0.34950490  0.14177603  0.02864419  1
  O  O119  1  0.84634499  0.14465484  0.02939886  1
  O  O120  1  0.22705429  0.15576887  0.52936468  1
  O  O121  1  0.72191145  0.14644809  0.53176281  1
  O  O122  1  0.34739760  0.53356052  0.53049666  1
  O  O123  1  0.84717899  0.54547045  0.53177645  1
  O  O124  1  0.42211126  0.30224964  0.52898636  1
  O  O125  1  0.92697320  0.30371161  0.53143036  1
  O  O126  1  0.27144471  0.69732530  0.97026894  1
  O  O127  1  0.77080438  0.69630916  0.97019649  1
  O  O128  1  0.07799363  0.46159462  0.96964901  1
  O  O129  1  0.57702957  0.45841022  0.97148077  1
  O  O130  1  0.14879095  0.84824473  0.97171586  1
  O  O131  1  0.64961700  0.84637919  0.96971231  1
  O  O132  1  0.27304475  0.85621984  0.47315043  1
  O  O133  1  0.77570108  0.85293954  0.46892886  1
  O  O134  1  0.15080835  0.44103991  0.47104282  1
  O  O135  1  0.65225136  0.45228535  0.47145497  1
  O  O136  1  0.07367222  0.69508645  0.46898459  1
  O  O137  1  0.57228483  0.68895149  0.47120351  1
  O  O138  1  0.05915165  0.64561366  0.35928782  1
  O  O139  1  0.56096205  0.63398840  0.36195435  1
  O  O140  1  0.26169260  0.89410324  0.36411529  1
  O  O141  1  0.76016497  0.87949308  0.35971447  1
  O  O142  1  0.18287819  0.47384541  0.36205170  1
  O  O143  1  0.67973096  0.48247087  0.36194032  1
  O  O144  1  0.06156314  0.47675001  0.85973842  1
  O  O145  1  0.56180833  0.47965776  0.86218202  1
  O  O146  1  0.17794404  0.88501111  0.86271957  1
  O  O147  1  0.67772955  0.88637929  0.86017566  1
  O  O148  1  0.26365278  0.63916989  0.86135987  1
  O  O149  1  0.76489504  0.64084904  0.86107276  1
  O  O150  1  0.01332258  0.83665336  0.41222018  1
  O  O151  1  0.50843063  0.81982938  0.41043896  1
  O  O152  1  0.40422449  0.98676353  0.41367493  1
  O  O153  1  0.90608949  0.98317130  0.40908509  1
  O  O154  1  0.08555691  0.18403694  0.40958718  1
  O  O155  1  0.58553681  0.19353589  0.41148359  1
  O  O156  1  0.01654633  0.19594779  0.91391727  1
  O  O157  1  0.51653267  0.19615799  0.91431270  1
  O  O158  1  0.08085239  0.97509817  0.91191009  1
  O  O159  1  0.58082847  0.97457084  0.91113968  1
  O  O160  1  0.40527873  0.83156147  0.91343143  1
  O  O161  1  0.90531031  0.83176557  0.91366810  1
  O  O162  1  0.48653190  0.16926481  0.58773168  1
  O  O163  1  0.99371921  0.17047895  0.58819267  1
  O  O164  1  0.09638001  0.02823450  0.59016819  1
  O  O165  1  0.58945549  0.01964905  0.59065409  1
  O  O166  1  0.41793869  0.79689749  0.58741093  1
  O  O167  1  0.91956251  0.81033700  0.58725705  1
  O  O168  1  0.49417282  0.81606682  0.09017556  1
  O  O169  1  0.99594172  0.81568074  0.08862913  1
  O  O170  1  0.41422308  0.01373558  0.09038768  1
  O  O171  1  0.91537952  0.01938426  0.08692111  1
  O  O172  1  0.09143627  0.17018505  0.09104252  1
  O  O173  1  0.59062975  0.17023633  0.08995735  1
  O  O174  1  0.34626282  0.18327285  0.74323809  1
  O  O175  1  0.84438514  0.17820951  0.74679539  1
  O  O176  1  0.23820400  0.31731658  0.74210983  1
  O  O177  1  0.73375623  0.31276815  0.74574586  1
  O  O178  1  0.41456502  0.53562407  0.74206508  1
  O  O179  1  0.91809838  0.54037398  0.74563350  1
  O  O180  1  0.34498200  0.53000062  0.24300313  1
  O  O181  1  0.84679712  0.51441594  0.24608806  1
  O  O182  1  0.41920963  0.30973825  0.24297434  1
  O  O183  1  0.92101373  0.30125506  0.24476344  1
  O  O184  1  0.23594572  0.16261277  0.24370429  1
  O  O185  1  0.73548256  0.14807727  0.24332729  1
  O  O186  1  0.32456846  0.50844600  0.92436302  1
  O  O187  1  0.82449346  0.50836224  0.92434943  1
  O  O188  1  0.43163677  0.35171853  0.92331472  1
  O  O189  1  0.93216640  0.35253912  0.92243133  1
  O  O190  1  0.24345931  0.14031544  0.92393011  1
  O  O191  1  0.74360633  0.13937517  0.92282404  1
  O  O192  1  0.32305433  0.14790681  0.42518203  1
  O  O193  1  0.82333236  0.14021706  0.41946266  1
  O  O194  1  0.24852675  0.34786047  0.42343352  1
  O  O195  1  0.74744977  0.35752528  0.42079866  1
  O  O196  1  0.42873324  0.49712160  0.42203899  1
  O  O197  1  0.92928859  0.51060789  0.42089492  1
  O  O198  1  0.17293359  0.49464385  0.07585223  1
  O  O199  1  0.67199732  0.49494640  0.07501885  1
  O  O200  1  0.07550433  0.65148456  0.07519460  1
  O  O201  1  0.57490648  0.65394405  0.07572275  1
  O  O202  1  0.25212676  0.85115143  0.07605297  1
  O  O203  1  0.75181342  0.85243351  0.07613278  1
  O  O204  1  0.17718618  0.86627719  0.57852933  1
  O  O205  1  0.66995921  0.85502159  0.57892214  1
  O  O206  1  0.25540135  0.63885957  0.57992542  1
  O  O207  1  0.75586979  0.65322977  0.58019152  1
  O  O208  1  0.07378114  0.49435605  0.57775541  1
  O  O209  1  0.56776234  0.49175769  0.57759114  1
  O  O210  1  0.15165597  0.83837370  0.25497612  1
  O  O211  1  0.64980012  0.83034239  0.25577826  1
  O  O212  1  0.26476475  0.69333619  0.25300215  1
  O  O213  1  0.75458706  0.69590877  0.25807180  1
  O  O214  1  0.08118602  0.47437086  0.25498523  1
  O  O215  1  0.58057236  0.47247248  0.25483674  1
  O  O216  1  0.15034774  0.45903276  0.75437353  1
  O  O217  1  0.64909698  0.46226785  0.75560183  1
  O  O218  1  0.07738189  0.68344588  0.75471235  1
  O  O219  1  0.57644579  0.68460478  0.75505608  1
  O  O220  1  0.25827622  0.82259862  0.75191116  1
  O  O221  1  0.75535227  0.82276187  0.75457577  1
