# generated using pymatgen
data_NaScTiP2SO12
_symmetry_space_group_name_H-M   'P 1'
_cell_length_a   8.70137618
_cell_length_b   8.72826003
_cell_length_c   22.68459650
_cell_angle_alpha   89.46796134
_cell_angle_beta   90.00000000
_cell_angle_gamma   119.89816355
_symmetry_Int_Tables_number   1
_chemical_formula_structural   NaScTiP2SO12
_chemical_formula_sum   'Na6 Sc6 Ti6 P12 S6 O72'
_cell_volume   1493.47220020
_cell_formula_units_Z   6
loop_
 _symmetry_equiv_pos_site_id
 _symmetry_equiv_pos_as_xyz
  1  'x, y, z'
loop_
 _atom_site_type_symbol
 _atom_site_label
 _atom_site_symmetry_multiplicity
 _atom_site_fract_x
 _atom_site_fract_y
 _atom_site_fract_z
 _atom_site_occupancy
  Na  Na0  1  0.99178016  0.99553989  0.50064564  1
  Na  Na1  1  0.00375973  0.99553989  0.00064564  1
  Na  Na2  1  0.65844716  0.32887289  0.83397864  1
  Na  Na3  1  0.67042673  0.32887289  0.33397864  1
  Na  Na4  1  0.32511316  0.66220689  0.16731264  1
  Na  Na5  1  0.33709273  0.66220689  0.66731264  1
  Sc  Sc6  1  0.99408365  0.00447991  0.64665602  1
  Sc  Sc7  1  0.01039626  0.00447991  0.14665602  1
  Sc  Sc8  1  0.66075065  0.33781291  0.97998902  1
  Sc  Sc9  1  0.67706326  0.33781291  0.47998902  1
  Sc  Sc10  1  0.32741665  0.67114691  0.31332302  1
  Sc  Sc11  1  0.34372926  0.67114691  0.81332302  1
  Ti  Ti12  1  0.00278271  0.00531050  0.35272329  1
  Ti  Ti13  1  0.00252778  0.00531050  0.85272329  1
  Ti  Ti14  1  0.66944971  0.33864350  0.68605629  1
  Ti  Ti15  1  0.66919478  0.33864350  0.18605629  1
  Ti  Ti16  1  0.33611571  0.67197750  0.01939029  1
  Ti  Ti17  1  0.33586078  0.67197750  0.51939029  1
  P  P18  1  0.29376586  0.00629588  0.24987934  1
  P  P19  1  0.99669576  0.28821609  0.24916333  1
  P  P20  1  0.29152033  0.28821609  0.74916333  1
  P  P21  1  0.71253002  0.00629588  0.74987934  1
  P  P22  1  0.96043286  0.33962888  0.58321234  1
  P  P23  1  0.66336276  0.62154909  0.58249633  1
  P  P24  1  0.95818733  0.62154909  0.08249633  1
  P  P25  1  0.37919702  0.33962888  0.08321234  1
  P  P26  1  0.62709886  0.67296288  0.91654634  1
  P  P27  1  0.33002876  0.95488309  0.91583033  1
  P  P28  1  0.62485333  0.95488309  0.41583033  1
  P  P29  1  0.04586302  0.67296288  0.41654634  1
  S  S30  1  0.71227098  0.70911984  0.25017733  1
  S  S31  1  0.99684886  0.70911984  0.75017733  1
  S  S32  1  0.37893798  0.04245284  0.58351033  1
  S  S33  1  0.66351586  0.04245284  0.08351033  1
  S  S34  1  0.04560398  0.37578684  0.91684433  1
  S  S35  1  0.33018186  0.37578684  0.41684433  1
  O  O36  1  0.19780204  0.02962277  0.30524725  1
  O  O37  1  0.82255160  0.79132055  0.30362214  1
  O  O38  1  0.96888913  0.16772283  0.30546086  1
  O  O39  1  0.19883370  0.16772283  0.80546086  1
  O  O40  1  0.96876895  0.79132055  0.80362214  1
  O  O41  1  0.83182074  0.02962277  0.80524725  1
  O  O42  1  0.79370937  0.97371293  0.69544423  1
  O  O43  1  0.18041091  0.20215685  0.69499348  1
  O  O44  1  0.02504699  0.81482253  0.69669652  1
  O  O45  1  0.78977555  0.81482253  0.19669652  1
  O  O46  1  0.02174594  0.20215685  0.19499348  1
  O  O47  1  0.18000356  0.97371293  0.19544423  1
  O  O48  1  0.86446904  0.36295577  0.63858025  1
  O  O49  1  0.48921860  0.12465355  0.63695514  1
  O  O50  1  0.63555613  0.50105583  0.63879386  1
  O  O51  1  0.86550070  0.50105583  0.13879386  1
  O  O52  1  0.63543595  0.12465355  0.13695514  1
  O  O53  1  0.49848774  0.36295577  0.13858025  1
  O  O54  1  0.46037637  0.30704593  0.02877723  1
  O  O55  1  0.84707791  0.53548985  0.02832648  1
  O  O56  1  0.69171399  0.14815553  0.03002952  1
  O  O57  1  0.45644255  0.14815553  0.53002952  1
  O  O58  1  0.68841294  0.53548985  0.52832648  1
  O  O59  1  0.84667056  0.30704593  0.52877723  1
  O  O60  1  0.53113504  0.69628977  0.97191425  1
  O  O61  1  0.15588460  0.45798755  0.97028914  1
  O  O62  1  0.30222213  0.83438983  0.97212786  1
  O  O63  1  0.53216670  0.83438983  0.47212786  1
  O  O64  1  0.30210195  0.45798755  0.47028914  1
  O  O65  1  0.16515374  0.69628977  0.47191425  1
  O  O66  1  0.12704237  0.64037993  0.36211123  1
  O  O67  1  0.51374391  0.86882385  0.36166048  1
  O  O68  1  0.35837999  0.48148953  0.36336352  1
  O  O69  1  0.12310855  0.48148953  0.86336352  1
  O  O70  1  0.35507894  0.86882385  0.86166048  1
  O  O71  1  0.51333656  0.64037993  0.86211123  1
  O  O72  1  0.03190898  0.84309959  0.40904083  1
  O  O73  1  0.81093452  0.97056111  0.40878280  1
  O  O74  1  0.16624563  0.19752080  0.41141251  1
  O  O75  1  0.03127516  0.19752080  0.91141251  1
  O  O76  1  0.15962659  0.97056111  0.90878280  1
  O  O77  1  0.81119060  0.84309959  0.90904083  1
  O  O78  1  0.98617280  0.17932276  0.58965286  1
  O  O79  1  0.19969651  0.01720376  0.59025600  1
  O  O80  1  0.82613479  0.80397141  0.59014556  1
  O  O81  1  0.97783662  0.80397141  0.09014556  1
  O  O82  1  0.81750725  0.01720376  0.09025600  1
  O  O83  1  0.19314996  0.17932276  0.08965286  1
  O  O84  1  0.69857598  0.17643259  0.74237383  1
  O  O85  1  0.47760152  0.30389411  0.74211580  1
  O  O86  1  0.83291263  0.53085380  0.74474551  1
  O  O87  1  0.69794216  0.53085380  0.24474551  1
  O  O88  1  0.82629359  0.30389411  0.24211580  1
  O  O89  1  0.47785760  0.17643259  0.24237383  1
  O  O90  1  0.65283980  0.51265576  0.92298586  1
  O  O91  1  0.86636351  0.35053676  0.92358900  1
  O  O92  1  0.49280179  0.13730441  0.92347856  1
  O  O93  1  0.64450362  0.13730441  0.42347856  1
  O  O94  1  0.48417425  0.35053676  0.42358900  1
  O  O95  1  0.85981696  0.51265576  0.42298586  1
  O  O96  1  0.36524198  0.50976659  0.07570783  1
  O  O97  1  0.14426752  0.63722811  0.07544980  1
  O  O98  1  0.49957863  0.86418780  0.07807951  1
  O  O99  1  0.36460816  0.86418780  0.57807951  1
  O  O100  1  0.49295959  0.63722811  0.57544980  1
  O  O101  1  0.14452360  0.50976659  0.57570783  1
  O  O102  1  0.31950580  0.84598976  0.25631986  1
  O  O103  1  0.53302951  0.68387076  0.25692300  1
  O  O104  1  0.15946779  0.47063841  0.25681256  1
  O  O105  1  0.31116962  0.47063841  0.75681256  1
  O  O106  1  0.15084025  0.68387076  0.75692300  1
  O  O107  1  0.52648296  0.84598976  0.75631986  1
