# generated using pymatgen
data_Na4MgZr3Si3(SO8)3
_symmetry_space_group_name_H-M   'P 1'
_cell_length_a   9.07012483
_cell_length_b   9.07129016
_cell_length_c   23.21095005
_cell_angle_alpha   89.75687896
_cell_angle_beta   90.14390818
_cell_angle_gamma   120.13798709
_symmetry_Int_Tables_number   1
_chemical_formula_structural   Na4MgZr3Si3(SO8)3
_chemical_formula_sum   'Na12 Mg3 Zr9 Si9 S9 O72'
_cell_volume   1651.56767511
_cell_formula_units_Z   3
loop_
 _symmetry_equiv_pos_site_id
 _symmetry_equiv_pos_as_xyz
  1  'x, y, z'
loop_
 _atom_site_type_symbol
 _atom_site_label
 _atom_site_symmetry_multiplicity
 _atom_site_fract_x
 _atom_site_fract_y
 _atom_site_fract_z
 _atom_site_occupancy
  Na  Na0  1  0.63058826  0.00944686  0.23785085  1
  Na  Na1  1  0.37832528  0.35342429  0.25143985  1
  Na  Na2  1  0.99180565  0.64769049  0.24633055  1
  Na  Na3  1  0.99088050  0.35015184  0.75634577  1
  Na  Na4  1  0.38341361  0.01907968  0.75666985  1
  Na  Na5  1  0.70098718  0.67757699  0.40193838  1
  Na  Na6  1  0.00865170  0.02385576  0.48544780  1
  Na  Na7  1  0.00253525  0.01498309  0.00047555  1
  Na  Na8  1  0.65664838  0.32471006  0.83483303  1
  Na  Na9  1  0.64198350  0.31537064  0.32215030  1
  Na  Na10  1  0.35408198  0.69143353  0.16198103  1
  Na  Na11  1  0.35736289  0.66464668  0.67306013  1
  Mg  Mg12  1  0.00770953  0.00586090  0.35169754  1
  Mg  Mg13  1  0.66057843  0.33151722  0.68816007  1
  Mg  Mg14  1  0.64819827  0.31749446  0.18333477  1
  Zr  Zr15  1  0.01057450  0.02409203  0.85572789  1
  Zr  Zr16  1  0.99277588  0.00720807  0.64953172  1
  Zr  Zr17  1  0.99000139  0.98866410  0.14898456  1
  Zr  Zr18  1  0.66607812  0.31008491  0.97938337  1
  Zr  Zr19  1  0.65517372  0.32107347  0.47703855  1
  Zr  Zr20  1  0.33200003  0.67682283  0.01944114  1
  Zr  Zr21  1  0.34238191  0.66207680  0.51621533  1
  Zr  Zr22  1  0.35184025  0.67988043  0.31440444  1
  Zr  Zr23  1  0.34127587  0.66828510  0.81685594  1
  Si  Si24  1  0.28998205  0.00201654  0.25257076  1
  Si  Si25  1  0.70974535  0.70056552  0.25424802  1
  Si  Si26  1  0.30057713  0.29949959  0.74851633  1
  Si  Si27  1  0.70226758  0.00051708  0.74935529  1
  Si  Si28  1  0.66995026  0.03655420  0.08856404  1
  Si  Si29  1  0.04221703  0.38224157  0.91703356  1
  Si  Si30  1  0.32671510  0.95854748  0.91430672  1
  Si  Si31  1  0.63878474  0.96324717  0.41619752  1
  Si  Si32  1  0.32273009  0.36346415  0.41535593  1
  S  S33  1  -0.00067410  0.29137762  0.25118370  1
  S  S34  1  0.99637090  0.70759265  0.74870163  1
  S  S35  1  0.95692704  0.33734319  0.58532117  1
  S  S36  1  0.37231468  0.03799996  0.58537206  1
  S  S37  1  0.66939035  0.62262379  0.58404026  1
  S  S38  1  0.95395335  0.62011834  0.08500342  1
  S  S39  1  0.37630778  0.33541177  0.08456187  1
  S  S40  1  0.62768012  0.66582822  0.91875625  1
  S  S41  1  0.04141334  0.66551418  0.41861773  1
  O  O42  1  0.20407352  0.04052315  0.30598407  1
  O  O43  1  0.81649388  0.78170768  0.31251119  1
  O  O44  1  0.96754077  0.18390284  0.30210152  1
  O  O45  1  0.20610929  0.17309228  0.80396114  1
  O  O46  1  0.97221995  0.78353428  0.80045789  1
  O  O47  1  0.82570014  0.02147164  0.80353418  1
  O  O48  1  0.79256374  0.96796738  0.69193872  1
  O  O49  1  0.16883592  0.19881680  0.69315962  1
  O  O50  1  0.02397456  0.81883437  0.69670387  1
  O  O51  1  0.79802636  0.83340654  0.19878526  1
  O  O52  1  0.03235292  0.21568151  0.19890007  1
  O  O53  1  0.17091175  0.97172632  0.19432503  1
  O  O54  1  0.87752205  0.35245705  0.63808124  1
  O  O55  1  0.47338232  0.11767076  0.63716856  1
  O  O56  1  0.65067707  0.51861790  0.63476719  1
  O  O57  1  0.87561100  0.52620847  0.13831397  1
  O  O58  1  0.64766964  0.11854325  0.14662494  1
  O  O59  1  0.47332035  0.35747952  0.13802131  1
  O  O60  1  0.46563434  0.31999946  0.03327227  1
  O  O61  1  0.85086951  0.53636648  0.03329453  1
  O  O62  1  0.68628159  0.15293176  0.03060229  1
  O  O63  1  0.45977449  0.14522713  0.53322286  1
  O  O64  1  0.68412184  0.54319673  0.53031611  1
  O  O65  1  0.85279256  0.32015025  0.53374850  1
  O  O66  1  0.54525486  0.69099092  0.96924037  1
  O  O67  1  0.16475617  0.47568433  0.97158426  1
  O  O68  1  0.31711119  0.84383250  0.96992486  1
  O  O69  1  0.52581401  0.84012158  0.47121657  1
  O  O70  1  0.31037843  0.46904759  0.47217288  1
  O  O71  1  0.14811208  0.68037356  0.46974158  1
  O  O72  1  0.11265340  0.63582676  0.36570849  1
  O  O73  1  0.51981912  0.88293561  0.35842877  1
  O  O74  1  0.36222057  0.48902549  0.35944403  1
  O  O75  1  0.12989207  0.48358246  0.85607467  1
  O  O76  1  0.35846055  0.87585715  0.85548170  1
  O  O77  1  0.52193641  0.64099308  0.86530278  1
  O  O78  1  0.02138718  0.81509266  0.41576845  1
  O  O79  1  0.81348753  0.96223422  0.41409549  1
  O  O80  1  0.16389444  0.17777153  0.41345382  1
  O  O81  1  0.01520260  0.18906221  0.91341647  1
  O  O82  1  0.15055520  0.96340389  0.91045961  1
  O  O83  1  0.79688278  0.81849188  0.91099531  1
  O  O84  1  0.97535720  0.18079844  0.58690564  1
  O  O85  1  0.20001673  0.02039493  0.58785803  1
  O  O86  1  0.82331830  0.79619906  0.58752544  1
  O  O87  1  0.97811522  0.79658871  0.08680595  1
  O  O88  1  0.84460624  0.02193198  0.08778830  1
  O  O89  1  0.20397632  0.17917569  0.08763969  1
  O  O90  1  0.69664669  0.17591407  0.74262882  1
  O  O91  1  0.48208431  0.31171857  0.74194360  1
  O  O92  1  0.85200779  0.53398323  0.73954075  1
  O  O93  1  0.69008760  0.51480748  0.24220824  1
  O  O94  1  0.85261501  0.31838960  0.24269359  1
  O  O95  1  0.48491935  0.16004217  0.24545406  1
  O  O96  1  0.64174628  0.51235137  0.92484583  1
  O  O97  1  0.85627036  0.37008233  0.92200811  1
  O  O98  1  0.49240803  0.15102054  0.92100320  1
  O  O99  1  0.65597907  0.15104997  0.42596103  1
  O  O100  1  0.51030756  0.37146416  0.42639586  1
  O  O101  1  0.86702288  0.51143334  0.42734435  1
  O  O102  1  0.35523588  0.48742953  0.07802156  1
  O  O103  1  0.12810014  0.63845900  0.07989561  1
  O  O104  1  0.50175080  0.84393176  0.07897826  1
  O  O105  1  0.35254098  0.86561764  0.57796928  1
  O  O106  1  0.51370757  0.64316629  0.58022264  1
  O  O107  1  0.13092320  0.49016867  0.57933556  1
  O  O108  1  0.29488810  0.81871597  0.25633456  1
  O  O109  1  0.51452801  0.68010858  0.25462234  1
  O  O110  1  0.15623053  0.46385352  0.25726829  1
  O  O111  1  0.29775445  0.47856578  0.75320160  1
  O  O112  1  0.15694176  0.69699616  0.75229973  1
  O  O113  1  0.50706359  0.83787428  0.75265596  1
