# generated using pymatgen
data_Na4In2Si2SO12
_symmetry_space_group_name_H-M   'P 1'
_cell_length_a   9.28627388
_cell_length_b   9.28627353
_cell_length_c   22.62094480
_cell_angle_alpha   90.10385912
_cell_angle_beta   89.89614088
_cell_angle_gamma   119.55846790
_symmetry_Int_Tables_number   1
_chemical_formula_structural   Na4In2Si2SO12
_chemical_formula_sum   'Na24 In12 Si12 S6 O72'
_cell_volume   1696.83058244
_cell_formula_units_Z   6
loop_
 _symmetry_equiv_pos_site_id
 _symmetry_equiv_pos_as_xyz
  1  'x, y, z'
loop_
 _atom_site_type_symbol
 _atom_site_label
 _atom_site_symmetry_multiplicity
 _atom_site_fract_x
 _atom_site_fract_y
 _atom_site_fract_z
 _atom_site_occupancy
  Na  Na0  1  0.64834752  0.99862928  0.25594328  1
  Na  Na1  1  0.36753902  0.38047326  0.24050368  1
  Na  Na2  1  0.98865376  0.61780251  0.25462405  1
  Na  Na3  1  0.61952674  0.63246098  0.74050368  1
  Na  Na4  1  0.00137072  0.35165248  0.75594328  1
  Na  Na5  1  0.38219749  0.01134624  0.75462405  1
  Na  Na6  1  0.31501452  0.33196228  0.58927628  1
  Na  Na7  1  0.03420602  0.71380626  0.57383668  1
  Na  Na8  1  0.65532076  0.95113551  0.58795705  1
  Na  Na9  1  0.28619374  0.96579398  0.07383668  1
  Na  Na10  1  0.66803772  0.68498548  0.08927628  1
  Na  Na11  1  0.04886449  0.34467924  0.08795705  1
  Na  Na12  1  0.98168052  0.66529628  0.92261028  1
  Na  Na13  1  0.70087202  0.04714026  0.90717068  1
  Na  Na14  1  0.32198676  0.28446951  0.92129105  1
  Na  Na15  1  0.95285974  0.29912798  0.40717068  1
  Na  Na16  1  0.33470372  0.01831948  0.42261028  1
  Na  Na17  1  0.71553049  0.67801324  0.42129105  1
  Na  Na18  1  0.98854188  0.97527282  0.49999747  1
  Na  Na19  1  0.02472718  0.01145812  -0.00000253  1
  Na  Na20  1  0.65520888  0.30860582  0.83333047  1
  Na  Na21  1  0.69139418  0.34479112  0.33333047  1
  Na  Na22  1  0.32187488  0.64193982  0.16666447  1
  Na  Na23  1  0.35806018  0.67812512  0.66666447  1
  In  In24  1  0.98242476  0.98836980  0.34867417  1
  In  In25  1  0.01163020  0.01757524  0.84867417  1
  In  In26  1  0.99929141  0.00256423  0.65113729  1
  In  In27  1  0.99743577  0.00070859  0.15113729  1
  In  In28  1  0.64909176  0.32170280  0.68200717  1
  In  In29  1  0.67829720  0.35090824  0.18200717  1
  In  In30  1  0.66595841  0.33589723  0.98447029  1
  In  In31  1  0.66410277  0.33404159  0.48447029  1
  In  In32  1  0.31575776  0.65503680  0.01534117  1
  In  In33  1  0.34496320  0.68424224  0.51534117  1
  In  In34  1  0.33262441  0.66923123  0.31780429  1
  In  In35  1  0.33076877  0.66737559  0.81780429  1
  Si  Si36  1  0.69543255  0.69739476  0.24980949  1
  Si  Si37  1  0.00015509  0.29895958  0.24983482  1
  Si  Si38  1  0.30260524  0.30456745  0.74980949  1
  Si  Si39  1  0.70104042  0.99984491  0.74983482  1
  Si  Si40  1  0.36209955  0.03072776  0.58314249  1
  Si  Si41  1  0.66682209  0.63229258  0.58316782  1
  Si  Si42  1  0.96927224  0.63790045  0.08314249  1
  Si  Si43  1  0.36770742  0.33317791  0.08316782  1
  Si  Si44  1  0.02876555  0.36406176  0.91647649  1
  Si  Si45  1  0.33348809  0.96562658  0.91650182  1
  Si  Si46  1  0.63593824  0.97123445  0.41647649  1
  Si  Si47  1  0.03437342  0.66651191  0.41650182  1
  S  S48  1  0.29882215  0.00166734  0.25021951  1
  S  S49  1  0.99833266  0.70117785  0.75021951  1
  S  S50  1  0.96548915  0.33500034  0.58355251  1
  S  S51  1  0.66499966  0.03451085  0.08355251  1
  S  S52  1  0.63215515  0.66833434  0.91688651  1
  S  S53  1  0.33166566  0.36784485  0.41688651  1
  O  O54  1  0.22197397  0.02791013  0.30362309  1
  O  O55  1  0.81536221  0.77207939  0.30785443  1
  O  O56  1  0.97710713  0.18967108  0.30982953  1
  O  O57  1  0.22792061  0.18463779  0.80785443  1
  O  O58  1  0.97208987  0.77802603  0.80362309  1
  O  O59  1  0.81032892  0.02289287  0.80982953  1
  O  O60  1  0.78061881  0.96249084  0.69081426  1
  O  O61  1  0.18701792  0.22178302  0.69072052  1
  O  O62  1  0.02179990  0.80261422  0.69621282  1
  O  O63  1  0.77821698  0.81298208  0.19072052  1
  O  O64  1  0.03750916  0.21938119  0.19081426  1
  O  O65  1  0.19738578  0.97820010  0.19621282  1
  O  O66  1  0.88864097  0.36124313  0.63695609  1
  O  O67  1  0.48202921  0.10541239  0.64118743  1
  O  O68  1  0.64377413  0.52300408  0.64316253  1
  O  O69  1  0.89458761  0.51797079  0.14118743  1
  O  O70  1  0.63875687  0.11135903  0.13695609  1
  O  O71  1  0.47699592  0.35622587  0.14316253  1
  O  O72  1  0.44728581  0.29582384  0.02414726  1
  O  O73  1  0.85368492  0.55511602  0.02405352  1
  O  O74  1  0.68846690  0.13594722  0.02954582  1
  O  O75  1  0.44488398  0.14631508  0.52405352  1
  O  O76  1  0.70417616  0.55271419  0.52414726  1
  O  O77  1  0.86405278  0.31153310  0.52954582  1
  O  O78  1  0.55530697  0.69457713  0.97029009  1
  O  O79  1  0.14869521  0.43874639  0.97452143  1
  O  O80  1  0.31044013  0.85633808  0.97649653  1
  O  O81  1  0.56125361  0.85130479  0.47452143  1
  O  O82  1  0.30542287  0.44469303  0.47029009  1
  O  O83  1  0.14366192  0.68955987  0.47649653  1
  O  O84  1  0.11395181  0.62915784  0.35748126  1
  O  O85  1  0.52035092  0.88845002  0.35738752  1
  O  O86  1  0.35513290  0.46928122  0.36287982  1
  O  O87  1  0.11154998  0.47964908  0.85738752  1
  O  O88  1  0.37084216  0.88604819  0.85748126  1
  O  O89  1  0.53071878  0.64486710  0.86287982  1
  O  O90  1  0.03176049  0.84415367  0.41271444  1
  O  O91  1  0.82572739  0.99908931  0.41483241  1
  O  O92  1  0.18525967  0.19954701  0.41156622  1
  O  O93  1  0.00091069  0.17427261  0.91483241  1
  O  O94  1  0.15584633  0.96823951  0.91271444  1
  O  O95  1  0.80045299  0.81474033  0.91156622  1
  O  O96  1  0.97966271  0.18228840  0.58708708  1
  O  O97  1  0.17904114  0.02029707  0.58769935  1
  O  O98  1  0.82910456  0.82058637  0.58630210  1
  O  O99  1  0.97970293  0.82095886  0.08769935  1
  O  O100  1  0.81771160  0.02033729  0.08708708  1
  O  O101  1  0.17941363  0.17089544  0.08630210  1
  O  O102  1  0.69842749  0.17748667  0.74604744  1
  O  O103  1  0.49239439  0.33242231  0.74816541  1
  O  O104  1  0.85192667  0.53288001  0.74489922  1
  O  O105  1  0.66757769  0.50760561  0.24816541  1
  O  O106  1  0.82251333  0.30157251  0.24604744  1
  O  O107  1  0.46711999  0.14807333  0.24489922  1
  O  O108  1  0.64632971  0.51562140  0.92042008  1
  O  O109  1  0.84570814  0.35363007  0.92103235  1
  O  O110  1  0.49577156  0.15391937  0.91963510  1
  O  O111  1  0.64636993  0.15429186  0.42103235  1
  O  O112  1  0.48437860  0.35367029  0.42042008  1
  O  O113  1  0.84608063  0.50422844  0.41963510  1
  O  O114  1  0.36509349  0.51082067  0.07938144  1
  O  O115  1  0.15906039  0.66575631  0.08149941  1
  O  O116  1  0.51859267  0.86621401  0.07823322  1
  O  O117  1  0.33424369  0.84093961  0.58149941  1
  O  O118  1  0.48917933  0.63490651  0.57938144  1
  O  O119  1  0.13378599  0.48140733  0.57823322  1
  O  O120  1  0.31299571  0.84895540  0.25375408  1
  O  O121  1  0.51237414  0.68696407  0.25436635  1
  O  O122  1  0.16243756  0.48725337  0.25296910  1
  O  O123  1  0.31303593  0.48762586  0.75436635  1
  O  O124  1  0.15104460  0.68700429  0.75375408  1
  O  O125  1  0.51274663  0.83756244  0.75296910  1
