# generated using pymatgen
data_Na4CaZnSi(SO6)2
_symmetry_space_group_name_H-M   'P 1'
_cell_length_a   9.37573102
_cell_length_b   9.37423237
_cell_length_c   22.59201773
_cell_angle_alpha   89.24704275
_cell_angle_beta   89.30319683
_cell_angle_gamma   119.86227118
_symmetry_Int_Tables_number   1
_chemical_formula_structural   Na4CaZnSi(SO6)2
_chemical_formula_sum   'Na24 Ca6 Zn6 Si6 S12 O72'
_cell_volume   1721.42858880
_cell_formula_units_Z   6
loop_
 _symmetry_equiv_pos_site_id
 _symmetry_equiv_pos_as_xyz
  1  'x, y, z'
loop_
 _atom_site_type_symbol
 _atom_site_label
 _atom_site_symmetry_multiplicity
 _atom_site_fract_x
 _atom_site_fract_y
 _atom_site_fract_z
 _atom_site_occupancy
  Na  Na0  1  0.62001674  0.00019396  0.25587157  1
  Na  Na1  1  0.36363678  0.35374919  0.25382204  1
  Na  Na2  1  0.00641604  0.63979554  0.23856863  1
  Na  Na3  1  0.63736379  0.64565242  0.73353404  1
  Na  Na4  1  0.97597004  0.34057775  0.74927225  1
  Na  Na5  1  0.38226094  0.00548171  0.75557767  1
  Na  Na6  1  0.31579583  0.34247480  0.59151221  1
  Na  Na7  1  0.01239211  0.69417767  0.58233869  1
  Na  Na8  1  0.67556563  0.95033804  0.58587701  1
  Na  Na9  1  0.27621945  0.94870376  0.08474700  1
  Na  Na10  1  0.68433134  0.69689301  0.08396175  1
  Na  Na11  1  0.02488513  0.34102543  0.09413917  1
  Na  Na12  1  0.99377970  0.68895106  0.93164564  1
  Na  Na13  1  0.67213900  0.02961290  0.90244316  1
  Na  Na14  1  0.33213881  0.28581071  0.91614610  1
  Na  Na15  1  0.96038319  0.28338282  0.40995003  1
  Na  Na16  1  0.34493436  0.03198604  0.40208426  1
  Na  Na17  1  0.70047124  0.68748437  0.42642059  1
  Na  Na18  1  0.96521111  0.97931401  0.49821764  1
  Na  Na19  1  0.01641340  0.98106428  0.00281167  1
  Na  Na20  1  0.65086423  0.29933388  0.82973096  1
  Na  Na21  1  0.65570856  0.30804492  0.32944757  1
  Na  Na22  1  0.31569462  0.67822468  0.17137456  1
  Na  Na23  1  0.36248331  0.68182087  0.66745941  1
  Ca  Ca24  1  0.98990890  -0.00000843  0.84485005  1
  Ca  Ca25  1  0.66788914  0.33310896  0.98849652  1
  Ca  Ca26  1  0.66644573  0.33149887  0.48436520  1
  Ca  Ca27  1  0.32382798  0.67479848  0.01792043  1
  Ca  Ca28  1  0.35801253  0.67861147  0.51467675  1
  Ca  Ca29  1  0.34058303  0.68259039  0.81749279  1
  Zn  Zn30  1  0.00536039  0.00299658  0.34227387  1
  Zn  Zn31  1  0.96635699  0.96751717  0.65326138  1
  Zn  Zn32  1  0.00343700  0.96468658  0.15763273  1
  Zn  Zn33  1  0.66388448  0.32856332  0.67786952  1
  Zn  Zn34  1  0.65737934  0.32413808  0.18122291  1
  Zn  Zn35  1  0.34467690  0.71362984  0.32186516  1
  Si  Si36  1  0.30259742  0.00520185  0.24991787  1
  Si  Si37  1  0.69524497  0.01280204  0.74537936  1
  Si  Si38  1  0.67262759  0.63202478  0.58612953  1
  Si  Si39  1  0.95881871  0.63131748  0.08869754  1
  Si  Si40  1  0.33217785  0.98286574  0.91640593  1
  Si  Si41  1  0.65562173  0.97651990  0.41164689  1
  S  S42  1  0.69768017  0.70006252  0.25108387  1
  S  S43  1  0.00149314  0.29774787  0.24919917  1
  S  S44  1  0.30293691  0.30108268  0.74649431  1
  S  S45  1  0.99643227  0.69300691  0.74798086  1
  S  S46  1  0.97316675  0.33227056  0.58460683  1
  S  S47  1  0.35431363  0.03004896  0.58645660  1
  S  S48  1  0.67556314  0.03027041  0.08795970  1
  S  S49  1  0.35797794  0.33004050  0.08712341  1
  S  S50  1  0.63463575  0.66305270  0.91732179  1
  S  S51  1  0.03071239  0.36104511  0.91673128  1
  S  S52  1  0.32784170  0.36583826  0.41333581  1
  S  S53  1  0.03699731  0.66752809  0.41459858  1
  O  O54  1  0.21685127  0.03606673  0.30914709  1
  O  O55  1  0.79915783  0.78332478  0.30326866  1
  O  O56  1  0.98321803  0.19791161  0.30366651  1
  O  O57  1  0.22172454  0.20631200  0.80184825  1
  O  O58  1  0.98247440  0.77514483  0.80157821  1
  O  O59  1  0.79508926  0.04685825  0.80751406  1
  O  O60  1  0.79774715  0.99283129  0.68981156  1
  O  O61  1  0.20580465  0.21393828  0.69401432  1
  O  O62  1  0.02488415  0.80077024  0.69438913  1
  O  O63  1  0.77518992  0.80409420  0.19620720  1
  O  O64  1  0.01511963  0.21437166  0.19559820  1
  O  O65  1  0.19430792  0.97696702  0.19084364  1
  O  O66  1  0.88795825  0.34617328  0.63822447  1
  O  O67  1  0.46186220  0.10795372  0.63766773  1
  O  O68  1  0.65604966  0.51433529  0.64383114  1
  O  O69  1  0.85226210  0.50858420  0.14530141  1
  O  O70  1  0.64349316  0.10878985  0.13958271  1
  O  O71  1  0.45781075  0.34318375  0.13959407  1
  O  O72  1  0.43426058  0.30797466  0.03238762  1
  O  O73  1  0.86636982  0.56213906  0.02608980  1
  O  O74  1  0.69217861  0.12468296  0.03246973  1
  O  O75  1  0.43326256  0.12499372  0.53084307  1
  O  O76  1  0.69499151  0.55670807  0.52435859  1
  O  O77  1  0.87250555  0.30880691  0.53125072  1
  O  O78  1  0.54864360  0.67133793  0.97163304  1
  O  O79  1  0.12947592  0.44310383  0.96949903  1
  O  O80  1  0.31196466  0.87530185  0.97703186  1
  O  O81  1  0.58401973  0.87129603  0.47389322  1
  O  O82  1  0.31119500  0.44340362  0.46824883  1
  O  O83  1  0.13029790  0.67985687  0.46893057  1
  O  O84  1  0.12065701  0.64585391  0.36146352  1
  O  O85  1  0.53388343  0.88788236  0.35569766  1
  O  O86  1  0.33958646  0.46676571  0.36022121  1
  O  O87  1  0.11615713  0.45519473  0.86203725  1
  O  O88  1  0.35356873  0.89594464  0.85697074  1
  O  O89  1  0.53745830  0.64781865  0.86418150  1
  O  O90  1  0.02480610  0.81985029  0.41024636  1
  O  O91  1  0.84005509  0.99048928  0.40345277  1
  O  O92  1  0.18115941  0.19738064  0.41238049  1
  O  O93  1  0.00795094  0.19211075  0.91609057  1
  O  O94  1  0.16393390  0.99849686  0.91526947  1
  O  O95  1  0.79866347  0.81672928  0.91439391  1
  O  O96  1  0.00360752  0.19077785  0.58807176  1
  O  O97  1  0.19249430  0.02340247  0.59301589  1
  O  O98  1  0.84180000  0.81872323  0.58797775  1
  O  O99  1  0.97774886  0.81882566  0.09095989  1
  O  O100  1  0.83085987  0.02499094  0.09398980  1
  O  O101  1  0.18704445  0.18777561  0.09156830  1
  O  O102  1  0.67226037  0.17853206  0.73814025  1
  O  O103  1  0.47096883  0.32185728  0.74506570  1
  O  O104  1  0.84391637  0.53116855  0.74486580  1
  O  O105  1  0.68601460  0.53528906  0.24785116  1
  O  O106  1  0.85243228  0.31786868  0.24841348  1
  O  O107  1  0.49216606  0.17159923  0.24450955  1
  O  O108  1  0.65851631  0.51775137  0.91900590  1
  O  O109  1  0.86661141  0.35056617  0.91935038  1
  O  O110  1  0.50024755  0.16656788  0.91659648  1
  O  O111  1  0.67159172  0.16021069  0.41307112  1
  O  O112  1  0.48089639  0.35166445  0.41477652  1
  O  O113  1  0.86898757  0.52030155  0.41655044  1
  O  O114  1  0.35160630  0.48638443  0.08335143  1
  O  O115  1  0.14322362  0.64837092  0.09177518  1
  O  O116  1  0.53299761  0.85806864  0.08517659  1
  O  O117  1  0.32596069  0.85792490  0.58280043  1
  O  O118  1  0.50581371  0.65043962  0.58917843  1
  O  O119  1  0.13539020  0.48908410  0.57965485  1
  O  O120  1  0.31727945  0.83484464  0.25405460  1
  O  O121  1  0.52757880  0.67568019  0.25479544  1
  O  O122  1  0.15318135  0.46412854  0.25152720  1
  O  O123  1  0.31581515  0.46747105  0.74765140  1
  O  O124  1  0.14073718  0.66592683  0.74993537  1
  O  O125  1  0.51452406  0.84311831  0.74523884  1
