# generated using pymatgen
data_MgFe12(OF)12
_symmetry_space_group_name_H-M   'P 1'
_cell_length_a   9.67205222
_cell_length_b   14.85565023
_cell_length_c   3.11571400
_cell_angle_alpha   90.00000000
_cell_angle_beta   90.00000000
_cell_angle_gamma   92.17798979
_symmetry_Int_Tables_number   1
_chemical_formula_structural   MgFe12(OF)12
_chemical_formula_sum   'Mg1 Fe12 O12 F12'
_cell_volume   447.35678819
_cell_formula_units_Z   1
loop_
 _symmetry_equiv_pos_site_id
 _symmetry_equiv_pos_as_xyz
  1  'x, y, z'
loop_
 _atom_site_type_symbol
 _atom_site_label
 _atom_site_symmetry_multiplicity
 _atom_site_fract_x
 _atom_site_fract_y
 _atom_site_fract_z
 _atom_site_occupancy
  Mg  Mg0  1  0.27238700  0.67441100  0.00000000  1
  Fe  Fe1  1  0.99179500  0.01666500  0.00000000  1
  Fe  Fe2  1  0.01663100  0.31849400  0.00000000  1
  Fe  Fe3  1  0.97035400  0.67457200  0.00000000  1
  Fe  Fe4  1  0.23000500  0.16366800  0.50000000  1
  Fe  Fe5  1  0.25496300  0.45626000  0.50000000  1
  Fe  Fe6  1  0.23459000  0.88551300  0.50000000  1
  Fe  Fe7  1  0.50843300  0.33387200  0.00000000  1
  Fe  Fe8  1  0.50542300  0.00477700  0.00000000  1
  Fe  Fe9  1  0.61084500  0.65583800  0.00000000  1
  Fe  Fe10  1  0.74288900  0.14827900  0.50000000  1
  Fe  Fe11  1  0.74560400  0.47819300  0.50000000  1
  Fe  Fe12  1  0.71291500  0.85143800  0.50000000  1
  O  O13  1  0.10241200  0.26639700  0.50000000  1
  O  O14  1  0.07271700  0.94553400  0.50000000  1
  O  O15  1  0.15386400  0.10538900  0.00000000  1
  O  O16  1  0.14702100  0.42643900  0.00000000  1
  O  O17  1  0.34049500  0.91364800  0.00000000  1
  O  O18  1  0.41463900  0.38735900  0.50000000  1
  O  O19  1  0.58934200  0.94901000  0.50000000  1
  O  O20  1  0.63746800  0.58219200  0.50000000  1
  O  O21  1  0.63909600  0.10909300  0.00000000  1
  O  O22  1  0.66976000  0.41725200  0.00000000  1
  O  O23  1  0.64525900  0.78475900  0.00000000  1
  O  O24  1  0.89558400  0.07187300  0.50000000  1
  F  F25  1  0.12365800  0.62956500  0.50000000  1
  F  F26  1  0.14614900  0.77696800  0.00000000  1
  F  F27  1  0.35463100  0.23042200  0.00000000  1
  F  F28  1  0.33167100  0.55009500  0.00000000  1
  F  F29  1  0.39507800  0.07314400  0.50000000  1
  F  F30  1  0.37287200  0.71689200  0.50000000  1
  F  F31  1  0.59811600  0.26426100  0.50000000  1
  F  F32  1  0.84364900  0.23408800  0.00000000  1
  F  F33  1  0.83576200  0.90691600  0.00000000  1
  F  F34  1  0.87938000  0.54907000  0.00000000  1
  F  F35  1  0.90952900  0.38823300  0.50000000  1
  F  F36  1  0.88358200  0.73997200  0.50000000  1
