# generated using pymatgen
data_H2O2
_symmetry_space_group_name_H-M   'P 1'
_cell_length_a   3.96769180
_cell_length_b   3.96769180
_cell_length_c   7.48783716
_cell_angle_alpha   90.00000000
_cell_angle_beta   90.00000000
_cell_angle_gamma   90.00000000
_symmetry_Int_Tables_number   1
_chemical_formula_structural   H2O2
_chemical_formula_sum   'H8 O8'
_cell_volume   117.87786219
_cell_formula_units_Z   4
loop_
 _symmetry_equiv_pos_site_id
 _symmetry_equiv_pos_as_xyz
  1  'x, y, z'
loop_
 _atom_site_type_symbol
 _atom_site_label
 _atom_site_symmetry_multiplicity
 _atom_site_fract_x
 _atom_site_fract_y
 _atom_site_fract_z
 _atom_site_occupancy
  H  H0  1  0.70645716  0.06042398  0.37792361  1
  H  H1  1  0.29354284  0.93957602  0.87792361  1
  H  H2  1  0.06042398  0.70645716  0.62207639  1
  H  H3  1  0.56042398  0.79354284  0.12792361  1
  H  H4  1  0.43957602  0.20645716  0.62792361  1
  H  H5  1  0.79354284  0.56042398  0.87207639  1
  H  H6  1  0.20645716  0.43957602  0.37207639  1
  H  H7  1  0.93957602  0.29354284  0.12207639  1
  O  O8  1  0.82630187  0.92967769  0.28307212  1
  O  O9  1  0.17369813  0.07032231  0.78307212  1
  O  O10  1  0.92967769  0.82630187  0.71692788  1
  O  O11  1  0.42967769  0.67369813  0.03307212  1
  O  O12  1  0.57032231  0.32630187  0.53307212  1
  O  O13  1  0.67369813  0.42967769  0.96692788  1
  O  O14  1  0.32630187  0.57032231  0.46692788  1
  O  O15  1  0.07032231  0.17369813  0.21692788  1
