# generated using pymatgen
data_MgMn2(AgO3)2
_symmetry_space_group_name_H-M   'P 1'
_cell_length_a   5.30224908
_cell_length_b   6.05280598
_cell_length_c   5.30275531
_cell_angle_alpha   115.98650708
_cell_angle_beta   59.99373689
_cell_angle_gamma   115.99553636
_symmetry_Int_Tables_number   1
_chemical_formula_structural   MgMn2(AgO3)2
_chemical_formula_sum   'Mg1 Mn2 Ag2 O6'
_cell_volume   127.11448477
_cell_formula_units_Z   1
loop_
 _symmetry_equiv_pos_site_id
 _symmetry_equiv_pos_as_xyz
  1  'x, y, z'
loop_
 _atom_site_type_symbol
 _atom_site_label
 _atom_site_symmetry_multiplicity
 _atom_site_fract_x
 _atom_site_fract_y
 _atom_site_fract_z
 _atom_site_occupancy
  Mg  Mg0  1  0.50000300  0.50001200  0.50000800  1
  Mn  Mn1  1  0.32620800  0.97845900  0.32604400  1
  Mn  Mn2  1  0.67377600  0.02145500  0.67394900  1
  Ag  Ag3  1  0.12463900  0.37354500  0.12457600  1
  Ag  Ag4  1  0.87535900  0.62645000  0.87541600  1
  O  O5  1  0.08920400  0.21852700  0.46530800  1
  O  O6  1  0.53466700  0.78146600  0.33592900  1
  O  O7  1  0.33586000  0.78146100  0.91086900  1
  O  O8  1  0.66414200  0.21856000  0.08913600  1
  O  O9  1  0.46533100  0.21856400  0.66407400  1
  O  O10  1  0.91080900  0.78150300  0.53469100  1
