# generated using pymatgen
data_Na6La4In4Si3(S3O16)3
_symmetry_space_group_name_H-M   'P 1'
_cell_length_a   18.50638026
_cell_length_b   9.26998395
_cell_length_c   24.21630855
_cell_angle_alpha   90.18829616
_cell_angle_beta   89.42407465
_cell_angle_gamma   120.00593426
_symmetry_Int_Tables_number   1
_chemical_formula_structural   Na6La4In4Si3(S3O16)3
_chemical_formula_sum   'Na18 La12 In12 Si9 S27 O144'
_cell_volume   3597.41255732
_cell_formula_units_Z   3
loop_
 _symmetry_equiv_pos_site_id
 _symmetry_equiv_pos_as_xyz
  1  'x, y, z'
loop_
 _atom_site_type_symbol
 _atom_site_label
 _atom_site_symmetry_multiplicity
 _atom_site_fract_x
 _atom_site_fract_y
 _atom_site_fract_z
 _atom_site_occupancy
  Na  Na0  1  0.00505273  0.64247895  0.25875467  1
  Na  Na1  1  0.50404131  0.36849317  0.74255840  1
  Na  Na2  1  0.16023969  0.30520380  0.90943608  1
  Na  Na3  1  0.65903295  0.30081617  0.90628696  1
  Na  Na4  1  0.16128119  0.02175847  0.41431160  1
  Na  Na5  1  0.65721576  0.00860166  0.41728362  1
  Na  Na6  1  0.99167696  0.97855825  0.49514823  1
  Na  Na7  1  0.49023074  -0.00003601  0.49973442  1
  Na  Na8  1  0.99265257  0.00579740  0.98968588  1
  Na  Na9  1  0.49166824  0.00431707  0.99109422  1
  Na  Na10  1  0.33430760  0.33290195  0.82617432  1
  Na  Na11  1  0.83987697  0.33496667  0.83450698  1
  Na  Na12  1  0.34330001  0.35154837  0.34169134  1
  Na  Na13  1  0.83114189  0.33047836  0.33532194  1
  Na  Na14  1  0.17512146  0.68964115  0.17736046  1
  Na  Na15  1  0.66672070  0.69158781  0.17504747  1
  Na  Na16  1  0.17193837  0.64718901  0.67150534  1
  Na  Na17  1  0.65983069  0.63798119  0.66639393  1
  La  La18  1  0.00238138  0.01243937  0.64920575  1
  La  La19  1  0.50872450  0.01791576  0.64720800  1
  La  La20  1  0.01002819  0.00720267  0.14969412  1
  La  La21  1  0.50280675  0.99205360  0.14993135  1
  La  La22  1  0.82686611  0.33462654  0.69087395  1
  La  La23  1  0.32831980  0.32187966  0.19230452  1
  La  La24  1  0.15768925  0.65502430  0.01339655  1
  La  La25  1  0.66363008  0.65686334  0.01359412  1
  La  La26  1  0.16573093  0.67133003  0.51435968  1
  La  La27  1  0.64664735  0.64186033  0.51836859  1
  La  La28  1  0.65984652  0.67318192  0.31881274  1
  La  La29  1  0.16047782  0.64646133  0.81615960  1
  In  In30  1  0.99875782  0.99235458  0.35008387  1
  In  In31  1  0.50600868  0.99372039  0.34694052  1
  In  In32  1  0.00747992  0.02314056  0.84442441  1
  In  In33  1  0.50013732  0.00792311  0.84687335  1
  In  In34  1  0.33032228  0.33413985  0.68337135  1
  In  In35  1  0.82648170  0.31914597  0.18682142  1
  In  In36  1  0.34216126  0.33184512  0.97947323  1
  In  In37  1  0.83651820  0.32965036  0.98105204  1
  In  In38  1  0.34686909  0.34998328  0.48529350  1
  In  In39  1  0.84187161  0.35096079  0.48019110  1
  In  In40  1  0.16244368  0.66840678  0.32177890  1
  In  In41  1  0.66129858  0.65633885  0.81953391  1
  Si  Si42  1  0.14695013  0.98652683  0.25721069  1
  Si  Si43  1  0.65552562  0.00943176  0.25107358  1
  Si  Si44  1  0.15829050  0.30058743  0.75039786  1
  Si  Si45  1  0.64887635  0.30871217  0.75855274  1
  Si  Si46  1  0.47433581  0.33010639  0.58905876  1
  Si  Si47  1  0.00731987  0.34451845  0.91687183  1
  Si  Si48  1  0.51328288  0.35565477  0.91336310  1
  Si  Si49  1  0.01301114  0.66827550  0.41303566  1
  Si  Si50  1  0.50595071  0.67069793  0.41572021  1
  S  S51  1  0.34524211  0.70606989  0.25621620  1
  S  S52  1  0.85342641  0.69660043  0.24893241  1
  S  S53  1  0.00023116  0.30148128  0.25292176  1
  S  S54  1  0.50034532  0.28876277  0.25373821  1
  S  S55  1  0.99915209  0.71173935  0.75414626  1
  S  S56  1  0.50078567  0.70411867  0.75503279  1
  S  S57  1  0.35261203  0.00740708  0.75185559  1
  S  S58  1  0.84583398  0.98681222  0.75704581  1
  S  S59  1  0.97733513  0.33055140  0.58027851  1
  S  S60  1  0.19141811  0.05136367  0.57937377  1
  S  S61  1  0.69268404  0.04859497  0.57594421  1
  S  S62  1  0.33084821  0.62059406  0.58363661  1
  S  S63  1  0.83461129  0.63022654  0.57923899  1
  S  S64  1  0.47690383  0.62395214  0.08026445  1
  S  S65  1  0.97117489  0.61041777  0.08635387  1
  S  S66  1  0.33329086  0.03800171  0.07954397  1
  S  S67  1  0.83334452  0.04639276  0.08377861  1
  S  S68  1  0.19087701  0.33437900  0.07693322  1
  S  S69  1  0.69462186  0.33490551  0.08043646  1
  S  S70  1  0.32350054  0.66581541  0.91799758  1
  S  S71  1  0.82004400  0.66668145  0.91411471  1
  S  S72  1  0.16674136  0.98184755  0.91742836  1
  S  S73  1  0.66595756  0.96952745  0.91424400  1
  S  S74  1  0.31960602  0.97293963  0.41216503  1
  S  S75  1  0.82310973  0.97916239  0.41803861  1
  S  S76  1  0.16548750  0.36294266  0.41272243  1
  S  S77  1  0.66797589  0.35211067  0.41608313  1
  O  O78  1  0.10223763  0.01325456  0.31151117  1
  O  O79  1  0.61350127  0.02584594  0.30909541  1
  O  O80  1  0.39772449  0.79726363  0.30353248  1
  O  O81  1  0.90360268  0.77948773  0.29894982  1
  O  O82  1  0.49391011  0.18753772  0.30257307  1
  O  O83  1  0.98465130  0.19293223  0.30128810  1
  O  O84  1  0.11934985  0.20543206  0.81063588  1
  O  O85  1  0.60859328  0.19996335  0.81523449  1
  O  O86  1  0.48866373  0.78605245  0.80460114  1
  O  O87  1  0.99279118  0.80026176  0.80367361  1
  O  O88  1  0.40136523  0.01848649  0.80234833  1
  O  O89  1  0.89852479  0.00270285  0.80504187  1
  O  O90  1  0.39033567  0.98143405  0.70194076  1
  O  O91  1  0.88087105  0.96320469  0.70480238  1
  O  O92  1  0.09605705  0.19989278  0.69934396  1
  O  O93  1  0.59113930  0.21873514  0.70476408  1
  O  O94  1  -0.00092303  0.79484825  0.70232496  1
  O  O95  1  0.50893436  0.79608811  0.70400350  1
  O  O96  1  0.37957739  0.79732111  0.20338388  1
  O  O97  1  0.89124059  0.79995528  0.19900552  1
  O  O98  1  0.00974379  0.22581897  0.20133125  1
  O  O99  1  0.50023647  0.20565894  0.20133078  1
  O  O100  1  0.09018422  0.95862428  0.20157679  1
  O  O101  1  0.59868119  0.99143258  0.19704347  1
  O  O102  1  0.43136533  0.34224945  0.64789387  1
  O  O103  1  0.93656764  0.33691018  0.63210678  1
  O  O104  1  0.23775817  0.13811068  0.62908692  1
  O  O105  1  0.73639714  0.13586657  0.62687586  1
  O  O106  1  0.32292651  0.52414396  0.63414498  1
  O  O107  1  0.83025653  0.53883946  0.63044692  1
  O  O108  1  0.43606124  0.53627191  0.13195137  1
  O  O109  1  0.93005566  0.51762001  0.13818736  1
  O  O110  1  0.32838709  0.11995343  0.13081433  1
  O  O111  1  0.82875473  0.13161306  0.13468546  1
  O  O112  1  0.23444369  0.33799420  0.12809180  1
  O  O113  1  0.74374654  0.34630573  0.12950651  1
  O  O114  1  0.23587119  0.32919846  0.02637287  1
  O  O115  1  0.73505799  0.32439854  0.02754512  1
  O  O116  1  0.42926278  0.53386473  0.03076977  1
  O  O117  1  0.92421102  0.52602069  0.03601656  1
  O  O118  1  0.33673132  0.13519502  0.02999553  1
  O  O119  1  0.83823044  0.14072683  0.03309610  1
  O  O120  1  0.23124816  0.14125212  0.52656035  1
  O  O121  1  0.73725651  0.14601243  0.52523494  1
  O  O122  1  0.33187580  0.53459499  0.53207631  1
  O  O123  1  0.83898528  0.54003512  0.52962594  1
  O  O124  1  0.42491460  0.31625861  0.53229752  1
  O  O125  1  0.92982196  0.32497289  0.53080393  1
  O  O126  1  0.28673624  0.69965012  0.96769920  1
  O  O127  1  0.78775653  0.70241839  0.96582229  1
  O  O128  1  0.06997337  0.43027503  0.97018529  1
  O  O129  1  0.57611270  0.44152843  0.96661462  1
  O  O130  1  0.15726238  0.88384947  0.96805484  1
  O  O131  1  0.65802077  0.87575885  0.96544559  1
  O  O132  1  0.28660230  0.87165401  0.46317282  1
  O  O133  1  0.78665802  0.87340325  0.46699342  1
  O  O134  1  0.15605760  0.44068321  0.46355044  1
  O  O135  1  0.65956962  0.43171864  0.46644430  1
  O  O136  1  0.07821505  0.70714944  0.46408730  1
  O  O137  1  0.57034308  0.71027890  0.46717884  1
  O  O138  1  0.05271727  0.63778829  0.35579142  1
  O  O139  1  0.54903293  0.64192921  0.36063966  1
  O  O140  1  0.26336867  0.88421790  0.36472998  1
  O  O141  1  0.77130184  0.90312872  0.36833187  1
  O  O142  1  0.17946012  0.47086583  0.36366038  1
  O  O143  1  0.68405014  0.45656418  0.36691407  1
  O  O144  1  0.05197887  0.46078158  0.86333085  1
  O  O145  1  0.55686166  0.47289574  0.85903657  1
  O  O146  1  0.18301803  0.90854199  0.86875768  1
  O  O147  1  0.68177667  0.89204172  0.86558218  1
  O  O148  1  0.26969563  0.63628818  0.86957759  1
  O  O149  1  0.76296113  0.63896894  0.86744896  1
  O  O150  1  0.00729248  0.84202031  0.41144766  1
  O  O151  1  0.50339499  0.84643427  0.41144311  1
  O  O152  1  0.40537701  0.00676672  0.40266011  1
  O  O153  1  0.90967983  0.00943701  0.40893514  1
  O  O154  1  0.08733795  0.19703150  0.40765540  1
  O  O155  1  0.59015615  0.18634847  0.41115303  1
  O  O156  1  0.00387154  0.16293525  0.91128703  1
  O  O157  1  0.50618952  0.16956747  0.91060837  1
  O  O158  1  0.08930141  0.99346147  0.91262757  1
  O  O159  1  0.58892026  0.98117404  0.90941859  1
  O  O160  1  0.40902069  0.80782484  0.90959198  1
  O  O161  1  0.90581077  0.80389819  0.90473903  1
  O  O162  1  0.48594407  0.16573679  0.58659375  1
  O  O163  1  0.98466664  0.17779286  0.57828684  1
  O  O164  1  0.10567222  0.02849520  0.58066237  1
  O  O165  1  0.60789563  0.02728052  0.57514437  1
  O  O166  1  0.40792450  0.78517655  0.58450514  1
  O  O167  1  0.91185097  0.79658170  0.57896051  1
  O  O168  1  0.48440780  0.79131142  0.07838004  1
  O  O169  1  0.97912830  0.77792172  0.08702876  1
  O  O170  1  0.40967101  0.02353650  0.07898015  1
  O  O171  1  0.90939825  0.03056571  0.08472831  1
  O  O172  1  0.10620371  0.18295535  0.07620350  1
  O  O173  1  0.61046356  0.18501420  0.08210072  1
  O  O174  1  0.35408517  0.17013767  0.74980527  1
  O  O175  1  0.84111474  0.14239446  0.75429745  1
  O  O176  1  0.24987248  0.31177506  0.74486878  1
  O  O177  1  0.74250294  0.33127700  0.75461510  1
  O  O178  1  0.42808348  0.53056673  0.75240061  1
  O  O179  1  0.92617220  0.54013836  0.75593339  1
  O  O180  1  0.34014743  0.54076455  0.25358954  1
  O  O181  1  0.85732359  0.53781190  0.24391540  1
  O  O182  1  0.42699940  0.31397722  0.25526253  1
  O  O183  1  0.92822587  0.33306288  0.24726735  1
  O  O184  1  0.23951690  0.15102116  0.25222836  1
  O  O185  1  0.74776140  0.18349277  0.24831578  1
  O  O186  1  0.32422991  0.50563962  0.92519867  1
  O  O187  1  0.81809185  0.50181103  0.92098422  1
  O  O188  1  0.42091593  0.33822797  0.91983735  1
  O  O189  1  0.91554903  0.32932717  0.92362120  1
  O  O190  1  0.23802820  0.15823245  0.92406916  1
  O  O191  1  0.73810323  0.14587411  0.91952770  1
  O  O192  1  0.31706937  0.13213250  0.41828835  1
  O  O193  1  0.82545151  0.14309808  0.42418578  1
  O  O194  1  0.23675025  0.33139722  0.41749228  1
  O  O195  1  0.73921520  0.31702789  0.42173755  1
  O  O196  1  0.41306473  0.50457897  0.42145026  1
  O  O197  1  0.92058080  0.50162910  0.41969174  1
  O  O198  1  0.18284310  0.48600740  0.07745426  1
  O  O199  1  0.68755065  0.48744408  0.07974085  1
  O  O200  1  0.05592206  0.62935799  0.08467769  1
  O  O201  1  0.56182090  0.64357208  0.07909059  1
  O  O202  1  0.25757563  0.86961648  0.07824742  1
  O  O203  1  0.75748179  0.87874337  0.08268832  1
  O  O204  1  0.18441678  0.88392306  0.57951638  1
  O  O205  1  0.68871198  0.88574272  0.57617832  1
  O  O206  1  0.25623800  0.64327799  0.58310606  1
  O  O207  1  0.76002415  0.64864810  0.57782517  1
  O  O208  1  0.06218353  0.48038809  0.57909692  1
  O  O209  1  0.56779435  0.49955613  0.58966832  1
  O  O210  1  0.15219604  0.81326295  0.25835434  1
  O  O211  1  0.66749854  0.84547900  0.25026266  1
  O  O212  1  0.25920694  0.68062585  0.26213090  1
  O  O213  1  0.76701651  0.65983440  0.25398362  1
  O  O214  1  0.07754501  0.46751884  0.25819797  1
  O  O215  1  0.57802604  0.45239567  0.25364414  1
  O  O216  1  0.16878543  0.48762711  0.74998101  1
  O  O217  1  0.65296135  0.49166889  0.75821691  1
  O  O218  1  0.07695407  0.70367196  0.75433379  1
  O  O219  1  0.57857243  0.69240020  0.75984461  1
  O  O220  1  0.26609697  0.86854153  0.75646760  1
  O  O221  1  0.76056664  0.84103451  0.76386843  1
