# generated using pymatgen
data_Er2MgMo2(ClO4)2
_symmetry_space_group_name_H-M   'P 1'
_cell_length_a   6.47566705
_cell_length_b   6.47167422
_cell_length_c   6.92365452
_cell_angle_alpha   72.82297185
_cell_angle_beta   72.81064971
_cell_angle_gamma   65.83100840
_symmetry_Int_Tables_number   1
_chemical_formula_structural   Er2MgMo2(ClO4)2
_chemical_formula_sum   'Er2 Mg1 Mo2 Cl2 O8'
_cell_volume   247.79003402
_cell_formula_units_Z   1
loop_
 _symmetry_equiv_pos_site_id
 _symmetry_equiv_pos_as_xyz
  1  'x, y, z'
loop_
 _atom_site_type_symbol
 _atom_site_label
 _atom_site_symmetry_multiplicity
 _atom_site_fract_x
 _atom_site_fract_y
 _atom_site_fract_z
 _atom_site_occupancy
  Er  Er0  1  0.24640100  0.23437600  0.89482500  1
  Er  Er1  1  0.76475600  0.75279500  0.10509700  1
  Mg  Mg2  1  0.30683300  0.69231900  0.50058000  1
  Mo  Mo3  1  0.63996600  0.64152600  0.73219100  1
  Mo  Mo4  1  0.35738300  0.35975200  0.26762900  1
  Cl  Cl5  1  0.04381600  0.95720500  0.24824900  1
  Cl  Cl6  1  0.04101400  0.95705300  0.75185700  1
  O  O7  1  0.53872500  0.90565600  0.84344700  1
  O  O8  1  0.51389400  0.11562200  0.13005000  1
  O  O9  1  0.09350700  0.46054000  0.15635000  1
  O  O10  1  0.52621500  0.55076600  0.22188300  1
  O  O11  1  0.24704900  0.37978300  0.54526400  1
  O  O12  1  0.88388200  0.48551400  0.86974900  1
  O  O13  1  0.61966000  0.75207800  0.45471100  1
  O  O14  1  0.44773100  0.47376600  0.77811600  1
