# generated using pymatgen
data_Na3HfMg(PO4)3
_symmetry_space_group_name_H-M   'P 1'
_cell_length_a   9.00917091
_cell_length_b   8.99549579
_cell_length_c   22.25782628
_cell_angle_alpha   90.00000000
_cell_angle_beta   90.17826087
_cell_angle_gamma   119.94980290
_symmetry_Int_Tables_number   1
_chemical_formula_structural   Na3HfMg(PO4)3
_chemical_formula_sum   'Na18 Hf6 Mg6 P18 O72'
_cell_volume   1562.93156924
_cell_formula_units_Z   6
loop_
 _symmetry_equiv_pos_site_id
 _symmetry_equiv_pos_as_xyz
  1  'x, y, z'
loop_
 _atom_site_type_symbol
 _atom_site_label
 _atom_site_symmetry_multiplicity
 _atom_site_fract_x
 _atom_site_fract_y
 _atom_site_fract_z
 _atom_site_occupancy
  Na  Na0  1  0.98155613  0.96478547  0.49181429  1
  Na  Na1  1  0.98155613  0.01677067  0.99181429  1
  Na  Na2  1  0.66698660  0.33816021  0.82499419  1
  Na  Na3  1  0.66698660  0.32882538  0.32499419  1
  Na  Na4  1  0.32876218  0.66194809  0.15834058  1
  Na  Na5  1  0.32876218  0.66681509  0.65834058  1
  Na  Na6  1  0.37042035  0.35977286  0.24528370  1
  Na  Na7  1  0.98697888  0.63301016  0.24546365  1
  Na  Na8  1  0.98697888  0.35396872  0.74546365  1
  Na  Na9  1  0.37042035  0.01064748  0.74528370  1
  Na  Na10  1  0.31059687  0.34581599  0.57879934  1
  Na  Na11  1  0.65668675  0.96515643  0.57860216  1
  Na  Na12  1  0.31059687  0.96477988  0.07879934  1
  Na  Na13  1  0.65668675  0.69152933  0.07860216  1
  Na  Na14  1  0.97897347  0.68184760  0.91134368  1
  Na  Na15  1  0.32299048  0.29774399  0.91272760  1
  Na  Na16  1  0.97897347  0.29712688  0.41134368  1
  Na  Na17  1  0.32299048  0.02524749  0.41272760  1
  Hf  Hf18  1  0.99710449  0.99246620  0.64836410  1
  Hf  Hf19  1  0.99710449  0.00463829  0.14836410  1
  Hf  Hf20  1  0.67166007  0.32789216  0.98153559  1
  Hf  Hf21  1  0.67166007  0.34376691  0.48153559  1
  Hf  Hf22  1  0.34218138  0.67283572  0.31502201  1
  Hf  Hf23  1  0.34218138  0.66934666  0.81502201  1
  Mg  Mg24  1  0.99151821  0.99383276  0.35070655  1
  Mg  Mg25  1  0.99151821  0.99768544  0.85070655  1
  Mg  Mg26  1  0.66900721  0.34204921  0.68411457  1
  Mg  Mg27  1  0.66900721  0.32695699  0.18411457  1
  Mg  Mg28  1  0.33001371  0.66153647  0.01766424  1
  Mg  Mg29  1  0.33001371  0.66847825  0.51766424  1
  P  P30  1  0.29575737  0.00207126  0.25232540  1
  P  P31  1  0.70581898  0.70385526  0.24967951  1
  P  P32  1  0.99904201  0.29702313  0.25519690  1
  P  P33  1  0.29575737  0.29368610  0.75232540  1
  P  P34  1  0.99904201  0.70201889  0.75519690  1
  P  P35  1  0.70581898  0.00196372  0.74967951  1
  P  P36  1  0.96432202  0.33496801  0.58638641  1
  P  P37  1  0.37278281  0.03872755  0.58565760  1
  P  P38  1  0.66286749  0.62790229  0.58548321  1
  P  P39  1  0.96432202  0.62935301  0.08638641  1
  P  P40  1  0.66286749  0.03496420  0.08548321  1
  P  P41  1  0.37278281  0.33405426  0.08565760  1
  P  P42  1  0.63230000  0.66922591  0.92214944  1
  P  P43  1  0.04172952  0.37312513  0.91616584  1
  P  P44  1  0.33289593  0.96301482  0.91893517  1
  P  P45  1  0.63230000  0.96307509  0.42214944  1
  P  P46  1  0.33289593  0.36988211  0.41893517  1
  P  P47  1  0.04172952  0.66860539  0.41616584  1
  O  O48  1  0.20954109  0.02303635  0.30807665  1
  O  O49  1  0.82175540  0.79573045  0.30248334  1
  O  O50  1  0.98507837  0.20124662  0.31304876  1
  O  O51  1  0.20954109  0.18650475  0.80807665  1
  O  O52  1  0.98507837  0.78383175  0.81304876  1
  O  O53  1  0.82175540  0.02602495  0.80248334  1
  O  O54  1  0.78665559  0.97847094  0.69031085  1
  O  O55  1  0.17698432  0.20342370  0.69570021  1
  O  O56  1  0.02285419  0.82310077  0.70068323  1
  O  O57  1  0.78665559  0.80818465  0.19031085  1
  O  O58  1  0.02285419  0.19975342  0.20068323  1
  O  O59  1  0.17698432  0.97356062  0.19570021  1
  O  O60  1  0.87834668  0.34882300  0.64311180  1
  O  O61  1  0.47935408  0.12499138  0.64180968  1
  O  O62  1  0.63863195  0.51606628  0.63933594  1
  O  O63  1  0.87834668  0.52952268  0.14311180  1
  O  O64  1  0.63863195  0.12256467  0.13933594  1
  O  O65  1  0.47935408  0.35436169  0.14180968  1
  O  O66  1  0.46418489  0.30603435  0.02951891  1
  O  O67  1  0.84898294  0.53752707  0.02965832  1
  O  O68  1  0.68737675  0.14450145  0.02751709  1
  O  O69  1  0.46418489  0.15814954  0.52951891  1
  O  O70  1  0.68737675  0.54287430  0.52751709  1
  O  O71  1  0.84898294  0.31145487  0.52965832  1
  O  O72  1  0.55112277  0.68385462  0.97984794  1
  O  O73  1  0.15718030  0.46449408  0.96933454  1
  O  O74  1  0.31398479  0.85676503  0.97464626  1
  O  O75  1  0.55112277  0.86726914  0.47984794  1
  O  O76  1  0.31398479  0.45722076  0.47464626  1
  O  O77  1  0.15718030  0.69268722  0.46933454  1
  O  O78  1  0.12409157  0.63986951  0.35774604  1
  O  O79  1  0.51001883  0.86794154  0.36739189  1
  O  O80  1  0.35252800  0.48025343  0.36147920  1
  O  O81  1  0.12409157  0.48422306  0.85774604  1
  O  O82  1  0.35252800  0.87227556  0.86147920  1
  O  O83  1  0.51001883  0.64207829  0.86739189  1
  O  O84  1  0.01826022  0.82480256  0.40949648  1
  O  O85  1  0.81395054  0.99402041  0.41353043  1
  O  O86  1  0.17600592  0.18840839  0.41331645  1
  O  O87  1  0.01826022  0.19345766  0.90949648  1
  O  O88  1  0.17600592  0.98759753  0.91331645  1
  O  O89  1  0.81395054  0.81993013  0.91353043  1
  O  O90  1  0.97389536  0.16346458  0.58732756  1
  O  O91  1  0.19395059  0.02968724  0.58867342  1
  O  O92  1  0.82740744  0.81042867  0.58830177  1
  O  O93  1  0.97389536  0.81043077  0.08732756  1
  O  O94  1  0.82740744  0.01697877  0.08830177  1
  O  O95  1  0.19395059  0.16426335  0.08867342  1
  O  O96  1  0.67897267  0.15775522  0.74470028  1
  O  O97  1  0.47254566  0.31256390  0.74478479  1
  O  O98  1  0.84959454  0.51891583  0.74696244  1
  O  O99  1  0.67897267  0.52121645  0.24470028  1
  O  O100  1  0.84959454  0.33067771  0.24696244  1
  O  O101  1  0.47254566  0.15998076  0.24478479  1
  O  O102  1  0.64186575  0.49778611  0.92210835  1
  O  O103  1  0.86432228  0.36643433  0.92112243  1
  O  O104  1  0.49594116  0.14741042  0.92066829  1
  O  O105  1  0.64186575  0.14407864  0.42210835  1
  O  O106  1  0.49594116  0.34852974  0.42066829  1
  O  O107  1  0.86432228  0.49788695  0.42112243  1
  O  O108  1  0.35230552  0.49129621  0.07821076  1
  O  O109  1  0.14778372  0.66298085  0.07955468  1
  O  O110  1  0.50740702  0.85371427  0.07876425  1
  O  O111  1  0.35230552  0.86101031  0.57821076  1
  O  O112  1  0.50740702  0.65369376  0.57876425  1
  O  O113  1  0.14778372  0.48480387  0.57955468  1
  O  O114  1  0.30497201  0.83214416  0.25510126  1
  O  O115  1  0.52250689  0.68402770  0.25441230  1
  O  O116  1  0.17138730  0.47672620  0.25450765  1
  O  O117  1  0.30497201  0.47282885  0.75510126  1
  O  O118  1  0.17138730  0.69466210  0.75450765  1
  O  O119  1  0.52250689  0.83848019  0.75441230  1
