# generated using pymatgen
data_Na10Nb7Al(SiO4)12
_symmetry_space_group_name_H-M   'P 1'
_cell_length_a   18.00369799
_cell_length_b   9.00281797
_cell_length_c   22.67665949
_cell_angle_alpha   90.02127426
_cell_angle_beta   89.98225806
_cell_angle_gamma   119.97189656
_symmetry_Int_Tables_number   1
_chemical_formula_structural   Na10Nb7Al(SiO4)12
_chemical_formula_sum   'Na30 Nb21 Al3 Si36 O144'
_cell_volume   3183.99796992
_cell_formula_units_Z   3
loop_
 _symmetry_equiv_pos_site_id
 _symmetry_equiv_pos_as_xyz
  1  'x, y, z'
loop_
 _atom_site_type_symbol
 _atom_site_label
 _atom_site_symmetry_multiplicity
 _atom_site_fract_x
 _atom_site_fract_y
 _atom_site_fract_z
 _atom_site_occupancy
  Na  Na0  1  0.81726894  0.00764341  0.24781503  1
  Na  Na1  1  0.18287287  0.36571735  0.24956189  1
  Na  Na2  1  0.68649732  0.36469094  0.24733433  1
  Na  Na3  1  0.99585767  0.62511382  0.24777461  1
  Na  Na4  1  0.31718879  0.62718986  0.74800638  1
  Na  Na5  1  0.81751991  0.62721588  0.74769957  1
  Na  Na6  1  0.99614483  0.36469140  0.74747941  1
  Na  Na7  1  0.49600331  0.36421713  0.74748238  1
  Na  Na8  1  0.18636072  0.00766566  0.74815064  1
  Na  Na9  1  0.68654141  0.00818328  0.74784626  1
  Na  Na10  1  0.15158598  0.33522610  0.58409464  1
  Na  Na11  1  0.65241829  0.33516650  0.58371762  1
  Na  Na12  1  0.33380645  0.97010214  0.58379724  1
  Na  Na13  1  0.83418962  0.97167647  0.58367286  1
  Na  Na14  1  0.65145743  0.96990822  0.08441662  1
  Na  Na15  1  0.83300577  0.69613055  0.08379193  1
  Na  Na16  1  0.01563232  0.33491070  0.08323397  1
  Na  Na17  1  0.48327721  0.29939912  0.41681718  1
  Na  Na18  1  0.99994566  0.99441418  0.49781943  1
  Na  Na19  1  0.50081888  0.99041431  0.49857511  1
  Na  Na20  1  0.00297161  0.99948023  0.99790400  1
  Na  Na21  1  0.49725344  0.00085537  0.99952109  1
  Na  Na22  1  0.33306401  0.33314649  0.83379572  1
  Na  Na23  1  0.83345223  0.33320109  0.83334614  1
  Na  Na24  1  0.33322206  0.33335727  0.33274262  1
  Na  Na25  1  0.83311826  0.33257113  0.33293022  1
  Na  Na26  1  0.17184529  0.67804539  0.16497073  1
  Na  Na27  1  0.66103596  0.65994536  0.16635852  1
  Na  Na28  1  0.16389894  0.66676196  0.66583569  1
  Na  Na29  1  0.66400582  0.66695738  0.66568791  1
  Nb  Nb30  1  0.99888247  0.99963689  0.35530972  1
  Nb  Nb31  1  0.50072307  0.99656323  0.35318706  1
  Nb  Nb32  1  0.00015882  0.00084882  0.85542243  1
  Nb  Nb33  1  0.49989420  0.99933719  0.85543126  1
  Nb  Nb34  1  0.99990386  0.99550362  0.64591442  1
  Nb  Nb35  1  0.50044275  0.99631350  0.64593086  1
  Nb  Nb36  1  0.00302712  0.99958003  0.14567259  1
  Nb  Nb37  1  0.49722854  0.99978628  0.14511133  1
  Nb  Nb38  1  0.33654555  0.33345250  0.18635680  1
  Nb  Nb39  1  0.33283776  0.33246654  0.97823825  1
  Nb  Nb40  1  0.83354847  0.33403279  0.97838388  1
  Nb  Nb41  1  0.33020050  0.33470032  0.47960934  1
  Nb  Nb42  1  0.83424305  0.33424463  0.47844352  1
  Nb  Nb43  1  0.16914920  0.67297637  0.02092822  1
  Nb  Nb44  1  0.66403830  0.65964079  0.02013360  1
  Nb  Nb45  1  0.16353920  0.66608717  0.52010566  1
  Nb  Nb46  1  0.66511401  0.66859170  0.52066990  1
  Nb  Nb47  1  0.16921452  0.67153241  0.31382038  1
  Nb  Nb48  1  0.66470437  0.66700955  0.31317656  1
  Nb  Nb49  1  0.16673648  0.66632436  0.81569193  1
  Nb  Nb50  1  0.66688427  0.66670148  0.81534758  1
  Al  Al51  1  0.33369746  0.33329915  0.68516859  1
  Al  Al52  1  0.83364370  0.33347864  0.68491343  1
  Al  Al53  1  0.83292209  0.33345672  0.18503460  1
  Si  Si54  1  0.14620514  0.00072465  0.25105572  1
  Si  Si55  1  0.64700600  0.00394393  0.24785904  1
  Si  Si56  1  0.35582528  0.71028268  0.24974810  1
  Si  Si57  1  0.85512778  0.70435609  0.24901104  1
  Si  Si58  1  0.99692541  0.29016834  0.24918637  1
  Si  Si59  1  0.49846968  0.28782092  0.25055807  1
  Si  Si60  1  0.14792069  0.28999082  0.74907637  1
  Si  Si61  1  0.64785751  0.28977730  0.74922501  1
  Si  Si62  1  0.99701067  0.70324053  0.74993525  1
  Si  Si63  1  0.49691293  0.70304417  0.74981073  1
  Si  Si64  1  0.35488494  0.00589775  0.74931128  1
  Si  Si65  1  0.85496210  0.00610601  0.74939590  1
  Si  Si66  1  0.47514457  0.33748440  0.58604764  1
  Si  Si67  1  0.97514774  0.33732933  0.58666139  1
  Si  Si68  1  0.19108684  0.04749220  0.58678142  1
  Si  Si69  1  0.69202475  0.05003497  0.58602912  1
  Si  Si70  1  0.33430837  0.61746607  0.58665795  1
  Si  Si71  1  0.83456957  0.61588330  0.58597785  1
  Si  Si72  1  0.47701068  0.62191628  0.08232232  1
  Si  Si73  1  0.97575112  0.61612696  0.08610344  1
  Si  Si74  1  0.33318119  0.04523461  0.08257411  1
  Si  Si75  1  0.83291112  0.04951798  0.08612421  1
  Si  Si76  1  0.19064911  0.33542320  0.08347604  1
  Si  Si77  1  0.69110826  0.33285521  0.08622334  1
  Si  Si78  1  0.31231592  0.66554515  0.91716861  1
  Si  Si79  1  0.81237000  0.66684679  0.91745219  1
  Si  Si80  1  0.02150414  0.37673626  0.91806921  1
  Si  Si81  1  0.51987586  0.37401116  0.91637943  1
  Si  Si82  1  0.16690156  0.95843329  0.91708600  1
  Si  Si83  1  0.66695233  0.95809319  0.91756952  1
  Si  Si84  1  0.31194401  0.95682933  0.41781312  1
  Si  Si85  1  0.81133865  0.95658721  0.41683454  1
  Si  Si86  1  0.16609535  0.37630156  0.41655762  1
  Si  Si87  1  0.66851319  0.37737168  0.41652122  1
  Si  Si88  1  0.02093391  0.66622505  0.41564414  1
  Si  Si89  1  0.52091910  0.66919454  0.41704060  1
  O  O90  1  0.09893281  0.03445050  0.30659560  1
  O  O91  1  0.59848613  0.03351909  0.30536380  1
  O  O92  1  0.41656373  0.80483701  0.30730770  1
  O  O93  1  0.91858869  0.80243955  0.30529284  1
  O  O94  1  0.48537270  0.17199038  0.30954052  1
  O  O95  1  0.98284659  0.16322513  0.30541806  1
  O  O96  1  0.09891398  0.16320213  0.80512755  1
  O  O97  1  0.59878671  0.16294047  0.80516896  1
  O  O98  1  0.48257420  0.80107107  0.80574050  1
  O  O99  1  0.98254181  0.80146221  0.80574633  1
  O  O100  1  0.41843399  0.03450712  0.80524124  1
  O  O101  1  0.91824063  0.03412801  0.80530650  1
  O  O102  1  0.39887769  0.96483299  0.69164307  1
  O  O103  1  0.89865858  0.96465161  0.69173610  1
  O  O104  1  0.08343677  0.20245630  0.69150065  1
  O  O105  1  0.58342389  0.20279741  0.69156225  1
  O  O106  1  0.01755683  0.83690529  0.69350680  1
  O  O107  1  0.51754830  0.83685988  0.69351604  1
  O  O108  1  0.40167372  0.83370238  0.19286433  1
  O  O109  1  0.89931005  0.83386769  0.19175910  1
  O  O110  1  0.01751647  0.20146392  0.19193668  1
  O  O111  1  0.51747231  0.19788705  0.19412734  1
  O  O112  1  0.08239885  0.96527571  0.19365709  1
  O  O113  1  0.58475510  0.96930746  0.19084011  1
  O  O114  1  0.43120455  0.36201959  0.64401881  1
  O  O115  1  0.93182003  0.36260644  0.64489177  1
  O  O116  1  0.25119484  0.13351096  0.64364999  1
  O  O117  1  0.75102792  0.13300185  0.64385521  1
  O  O118  1  0.31524239  0.49581494  0.64337231  1
  O  O119  1  0.81501776  0.49630765  0.64357133  1
  O  O120  1  0.43196106  0.50081523  0.14050316  1
  O  O121  1  0.93268947  0.49714512  0.14367044  1
  O  O122  1  0.31855180  0.13719379  0.14076587  1
  O  O123  1  0.81541125  0.13429065  0.14357006  1
  O  O124  1  0.24772399  0.36265363  0.14302378  1
  O  O125  1  0.75154241  0.37011875  0.14360621  1
  O  O126  1  0.23536700  0.30299517  0.02651783  1
  O  O127  1  0.73493030  0.29909544  0.02761967  1
  O  O128  1  0.41653373  0.52942126  0.02570901  1
  O  O129  1  0.91438878  0.53137321  0.02762561  1
  O  O130  1  0.34839098  0.16705986  0.02579282  1
  O  O131  1  0.85109583  0.17121072  0.02769643  1
  O  O132  1  0.23463739  0.16925624  0.52774473  1
  O  O133  1  0.73431580  0.17027926  0.52746629  1
  O  O134  1  0.34832187  0.52878236  0.52702653  1
  O  O135  1  0.84829068  0.52826054  0.52678013  1
  O  O136  1  0.41672561  0.29918894  0.52570368  1
  O  O137  1  0.91472310  0.29818507  0.52786837  1
  O  O138  1  0.26405687  0.69566746  0.97324995  1
  O  O139  1  0.76615615  0.69609085  0.97520930  1
  O  O140  1  0.08172635  0.46693077  0.97563745  1
  O  O141  1  0.58341948  0.47114740  0.97286878  1
  O  O142  1  0.15179773  0.83229497  0.97322814  1
  O  O143  1  0.65234571  0.83622297  0.97525249  1
  O  O144  1  0.26649358  0.83713290  0.47595108  1
  O  O145  1  0.76576920  0.83568641  0.47523370  1
  O  O146  1  0.15290413  0.46806469  0.47530245  1
  O  O147  1  0.65014290  0.46656569  0.47431937  1
  O  O148  1  0.08363943  0.69516833  0.47299626  1
  O  O149  1  0.58303725  0.69561284  0.47397471  1
  O  O150  1  0.06728524  0.63743796  0.35762878  1
  O  O151  1  0.56739439  0.63317657  0.36048365  1
  O  O152  1  0.25002739  0.86235902  0.36039566  1
  O  O153  1  0.75112623  0.86397280  0.35845117  1
  O  O154  1  0.18124464  0.49633370  0.35811655  1
  O  O155  1  0.68064200  0.49660452  0.35817377  1
  O  O156  1  0.06739477  0.49664176  0.85854875  1
  O  O157  1  0.56711748  0.49610322  0.85788351  1
  O  O158  1  0.18093529  0.86591628  0.85786457  1
  O  O159  1  0.68081244  0.86499646  0.85850759  1
  O  O160  1  0.25216838  0.63799298  0.85785410  1
  O  O161  1  0.75175700  0.63826283  0.85850074  1
  O  O162  1  0.01314333  0.83773993  0.40914408  1
  O  O163  1  0.51269514  0.83918987  0.41030821  1
  O  O164  1  0.40783037  0.98193328  0.41040773  1
  O  O165  1  0.90540320  0.97348143  0.40932234  1
  O  O166  1  0.08130340  0.18807541  0.40944152  1
  O  O167  1  0.57980796  0.19221488  0.40997514  1
  O  O168  1  0.01292852  0.18885779  0.90873508  1
  O  O169  1  0.51325568  0.18828465  0.90890340  1
  O  O170  1  0.08120383  0.97410947  0.90883051  1
  O  O171  1  0.58126977  0.97361569  0.90889680  1
  O  O172  1  0.40559172  0.83754546  0.90871099  1
  O  O173  1  0.90578046  0.83788347  0.90908073  1
  O  O174  1  0.48730259  0.16481375  0.59038905  1
  O  O175  1  0.98755115  0.16510699  0.59079219  1
  O  O176  1  0.09606881  0.03227155  0.59036065  1
  O  O177  1  0.59599189  0.03162829  0.59075198  1
  O  O178  1  0.41692346  0.81450595  0.59023069  1
  O  O179  1  0.91654153  0.81434412  0.59052572  1
  O  O180  1  0.49122009  0.81533043  0.08981322  1
  O  O181  1  0.98404975  0.80783603  0.09100082  1
  O  O182  1  0.41820511  0.02555054  0.09089601  1
  O  O183  1  0.91834803  0.02564101  0.09049480  1
  O  O184  1  0.09313103  0.16657835  0.09053540  1
  O  O185  1  0.59577247  0.16056409  0.09056382  1
  O  O186  1  0.34499362  0.17396632  0.74220811  1
  O  O187  1  0.84482471  0.17384099  0.74238965  1
  O  O188  1  0.24177408  0.30939180  0.74175125  1
  O  O189  1  0.74177666  0.30945775  0.74189220  1
  O  O190  1  0.41281746  0.51645088  0.74181647  1
  O  O191  1  0.91276948  0.51654445  0.74192345  1
  O  O192  1  0.34192821  0.51756717  0.24395217  1
  O  O193  1  0.84554561  0.51655151  0.24203785  1
  O  O194  1  0.41456683  0.30953015  0.24383057  1
  O  O195  1  0.91246243  0.30860034  0.24204472  1
  O  O196  1  0.23827138  0.17418851  0.24374386  1
  O  O197  1  0.74116590  0.17394834  0.24226166  1
  O  O198  1  0.32052331  0.49537613  0.92302525  1
  O  O199  1  0.82021323  0.49573140  0.92354109  1
  O  O200  1  0.42716677  0.35886669  0.92282101  1
  O  O201  1  0.92747057  0.35939022  0.92369376  1
  O  O202  1  0.25202662  0.14508871  0.92299347  1
  O  O203  1  0.75224107  0.14509483  0.92368530  1
  O  O204  1  0.32405083  0.14872374  0.42349102  1
  O  O205  1  0.82033347  0.14432194  0.42402372  1
  O  O206  1  0.25196025  0.35885297  0.42351550  1
  O  O207  1  0.75245536  0.35774908  0.42314132  1
  O  O208  1  0.42922365  0.49263623  0.42358899  1
  O  O209  1  0.92780159  0.49569404  0.42377476  1
  O  O210  1  0.17521072  0.49941604  0.07725762  1
  O  O211  1  0.68218814  0.50591386  0.07655608  1
  O  O212  1  0.07072299  0.63581521  0.07683069  1
  O  O213  1  0.57420201  0.64813917  0.07692654  1
  O  O214  1  0.24826703  0.85485026  0.07665767  1
  O  O215  1  0.74884231  0.85544421  0.07741486  1
  O  O216  1  0.18223513  0.85808101  0.57695282  1
  O  O217  1  0.68216026  0.85850288  0.57691442  1
  O  O218  1  0.24937246  0.64178868  0.57723927  1
  O  O219  1  0.74943604  0.64170015  0.57683190  1
  O  O220  1  0.07411305  0.49945269  0.57732776  1
  O  O221  1  0.57418304  0.49934448  0.57712492  1
  O  O222  1  0.15066156  0.82452990  0.25631279  1
  O  O223  1  0.65722980  0.83317796  0.25697784  1
  O  O224  1  0.25926653  0.68567583  0.25681988  1
  O  O225  1  0.76076814  0.69136416  0.25611302  1
  O  O226  1  0.08493968  0.47799523  0.25624628  1
  O  O227  1  0.58674388  0.47523054  0.25693742  1
  O  O228  1  0.15415535  0.47894072  0.75592536  1
  O  O229  1  0.65415851  0.47887080  0.75605073  1
  O  O230  1  0.08529660  0.69153459  0.75584741  1
  O  O231  1  0.58529728  0.69162814  0.75590994  1
  O  O232  1  0.26047142  0.82938456  0.75586270  1
  O  O233  1  0.76047433  0.82934362  0.75605079  1
