# generated using pymatgen
data_NaCa3Ta(SO4)6
_symmetry_space_group_name_H-M   'P 1'
_cell_length_a   9.13071965
_cell_length_b   9.13071933
_cell_length_c   23.90983931
_cell_angle_alpha   90.00000000
_cell_angle_beta   90.00000000
_cell_angle_gamma   120.00000119
_symmetry_Int_Tables_number   1
_chemical_formula_structural   NaCa3Ta(SO4)6
_chemical_formula_sum   'Na3 Ca9 Ta3 S18 O72'
_cell_volume   1726.30403419
_cell_formula_units_Z   3
loop_
 _symmetry_equiv_pos_site_id
 _symmetry_equiv_pos_as_xyz
  1  'x, y, z'
loop_
 _atom_site_type_symbol
 _atom_site_label
 _atom_site_symmetry_multiplicity
 _atom_site_fract_x
 _atom_site_fract_y
 _atom_site_fract_z
 _atom_site_occupancy
  Na  Na0  1  0.00000000  -0.00000000  0.00623998  1
  Na  Na1  1  0.66666700  0.33333300  0.83754986  1
  Na  Na2  1  0.66666700  0.33333300  0.31850584  1
  Ca  Ca3  1  0.00000000  -0.00000000  0.35282219  1
  Ca  Ca4  1  0.00000000  -0.00000000  0.85986858  1
  Ca  Ca5  1  0.00000000  -0.00000000  0.15431394  1
  Ca  Ca6  1  0.66666700  0.33333300  0.67848953  1
  Ca  Ca7  1  0.66666700  0.33333300  0.18243365  1
  Ca  Ca8  1  0.66666700  0.33333300  0.98466206  1
  Ca  Ca9  1  0.66666700  0.33333300  0.48608967  1
  Ca  Ca10  1  0.33333300  0.66666700  0.30584894  1
  Ca  Ca11  1  0.33333300  0.66666700  0.80601371  1
  Ta  Ta12  1  0.00000000  -0.00000000  0.64856999  1
  Ta  Ta13  1  0.33333300  0.66666700  0.02012092  1
  Ta  Ta14  1  0.33333300  0.66666700  0.51417366  1
  S  S15  1  0.30306925  0.01056477  0.25161042  1
  S  S16  1  0.70749552  0.69693075  0.25161042  1
  S  S17  1  0.98943523  0.29250448  0.25161042  1
  S  S18  1  0.28459248  0.27948317  0.74787028  1
  S  S19  1  0.99489069  0.71540752  0.74787028  1
  S  S20  1  0.72051683  0.00510931  0.74787028  1
  S  S21  1  0.97997925  0.33356012  0.58393107  1
  S  S22  1  0.35358187  0.02002075  0.58393107  1
  S  S23  1  0.66643988  0.64641813  0.58393107  1
  S  S24  1  0.97543878  0.63759012  0.07848657  1
  S  S25  1  0.66215234  0.02456122  0.07848657  1
  S  S26  1  0.36240988  0.33784766  0.07848657  1
  S  S27  1  0.61593040  0.66664724  0.91863067  1
  S  S28  1  0.05071584  0.38406960  0.91863067  1
  S  S29  1  0.33335276  0.94928416  0.91863067  1
  S  S30  1  0.61937658  0.95533474  0.41816659  1
  S  S31  1  0.33595715  0.38062342  0.41816659  1
  S  S32  1  0.04466526  0.66404285  0.41816659  1
  O  O33  1  0.21876062  0.02882903  0.30214332  1
  O  O34  1  0.81006841  0.78123938  0.30214332  1
  O  O35  1  0.97117097  0.18993159  0.30214332  1
  O  O36  1  0.20579495  0.18025867  0.79797129  1
  O  O37  1  0.97446372  0.79420505  0.79797129  1
  O  O38  1  0.81974133  0.02553628  0.79797129  1
  O  O39  1  0.82336542  0.99827154  0.69590966  1
  O  O40  1  0.17490612  0.17663458  0.69590966  1
  O  O41  1  0.00172846  0.82509388  0.69590966  1
  O  O42  1  0.78985433  0.79117631  0.19992621  1
  O  O43  1  0.00132198  0.21014567  0.19992621  1
  O  O44  1  0.20882369  0.99867802  0.19992621  1
  O  O45  1  0.91272499  0.37568897  0.63286249  1
  O  O46  1  0.46296498  0.08727501  0.63286249  1
  O  O47  1  0.62431103  0.53703502  0.63286249  1
  O  O48  1  0.91369871  0.53582880  0.12871782  1
  O  O49  1  0.62213109  0.08630129  0.12871782  1
  O  O50  1  0.46417120  0.37786891  0.12871782  1
  O  O51  1  0.44374043  0.31545253  0.02907472  1
  O  O52  1  0.87171310  0.55625957  0.02907472  1
  O  O53  1  0.68454747  0.12828690  0.02907472  1
  O  O54  1  0.41649781  0.13230996  0.53580185  1
  O  O55  1  0.71581314  0.58350219  0.53580185  1
  O  O56  1  0.86769004  0.28418686  0.53580185  1
  O  O57  1  0.51477407  0.67213775  0.96883221  1
  O  O58  1  0.15736268  0.48522593  0.96883221  1
  O  O59  1  0.32786225  0.84263732  0.96883221  1
  O  O60  1  0.51135364  0.84109339  0.47245242  1
  O  O61  1  0.32973875  0.48864636  0.47245242  1
  O  O62  1  0.15890661  0.67026125  0.47245242  1
  O  O63  1  0.12636203  0.64219194  0.37015112  1
  O  O64  1  0.51582891  0.87363797  0.37015112  1
  O  O65  1  0.35780806  0.48417109  0.37015112  1
  O  O66  1  0.13131411  0.47490100  0.86707079  1
  O  O67  1  0.34358589  0.86868589  0.86707079  1
  O  O68  1  0.52509900  0.65641411  0.86707079  1
  O  O69  1  0.04449263  0.82224745  0.42139532  1
  O  O70  1  0.77775482  0.95550737  0.42139532  1
  O  O71  1  0.17775255  0.22224518  0.42139532  1
  O  O72  1  0.04255872  0.21820944  0.92204037  1
  O  O73  1  0.17565072  0.95744128  0.92204037  1
  O  O74  1  0.78179056  0.82434928  0.92204037  1
  O  O75  1  0.00524461  0.18318474  0.59921151  1
  O  O76  1  0.17794013  0.99475539  0.59921151  1
  O  O77  1  0.81681526  0.82205987  0.59921151  1
  O  O78  1  0.01055631  0.81209301  0.08305921  1
  O  O79  1  0.80153670  0.98944369  0.08305921  1
  O  O80  1  0.18790699  0.19846330  0.08305921  1
  O  O81  1  0.70298955  0.15522915  0.73938793  1
  O  O82  1  0.45224061  0.29701045  0.73938793  1
  O  O83  1  0.84477085  0.54775939  0.73938793  1
  O  O84  1  0.68869288  0.52491909  0.24846584  1
  O  O85  1  0.83622721  0.31130712  0.24846584  1
  O  O86  1  0.47508091  0.16377279  0.24846584  1
  O  O87  1  0.63454037  0.51583871  0.92336484  1
  O  O88  1  0.88129934  0.36545963  0.92336484  1
  O  O89  1  0.48416129  0.11870066  0.92336484  1
  O  O90  1  0.63310490  0.11951612  0.42924788  1
  O  O91  1  0.48641222  0.36689510  0.42924788  1
  O  O92  1  0.88048388  0.51358778  0.42924788  1
  O  O93  1  0.34691667  0.49877362  0.06526387  1
  O  O94  1  0.15185595  0.65308333  0.06526387  1
  O  O95  1  0.50122638  0.84814405  0.06526387  1
  O  O96  1  0.32420385  0.84637721  0.57049097  1
  O  O97  1  0.52217236  0.67579615  0.57049097  1
  O  O98  1  0.15362279  0.47782764  0.57049097  1
  O  O99  1  0.31819193  0.85853161  0.25575027  1
  O  O100  1  0.54033868  0.68180807  0.25575027  1
  O  O101  1  0.14146839  0.45966132  0.25575027  1
  O  O102  1  0.28667605  0.43990518  0.74636698  1
  O  O103  1  0.15322813  0.71332395  0.74636698  1
  O  O104  1  0.56009482  0.84677187  0.74636698  1
