# generated using pymatgen
data_NaTiGe(PO4)3
_symmetry_space_group_name_H-M   'P 1'
_cell_length_a   8.46584403
_cell_length_b   8.46584379
_cell_length_c   22.05518831
_cell_angle_alpha   90.00000000
_cell_angle_beta   90.00000000
_cell_angle_gamma   120.00000099
_symmetry_Int_Tables_number   1
_chemical_formula_structural   NaTiGe(PO4)3
_chemical_formula_sum   'Na6 Ti6 Ge6 P18 O72'
_cell_volume   1368.93211168
_cell_formula_units_Z   6
loop_
 _symmetry_equiv_pos_site_id
 _symmetry_equiv_pos_as_xyz
  1  'x, y, z'
loop_
 _atom_site_type_symbol
 _atom_site_label
 _atom_site_symmetry_multiplicity
 _atom_site_fract_x
 _atom_site_fract_y
 _atom_site_fract_z
 _atom_site_occupancy
  Na  Na0  1  -0.00000000  -0.00000000  0.49993640  1
  Na  Na1  1  -0.00000000  -0.00000000  0.99979532  1
  Na  Na2  1  0.66666700  0.33333300  0.83363616  1
  Na  Na3  1  0.66666700  0.33333300  0.33313889  1
  Na  Na4  1  0.33333300  0.66666700  0.16641104  1
  Na  Na5  1  0.33333300  0.66666700  0.66681400  1
  Ti  Ti6  1  -0.00000000  -0.00000000  0.64731679  1
  Ti  Ti7  1  -0.00000000  -0.00000000  0.14471892  1
  Ti  Ti8  1  0.66666700  0.33333300  0.68822646  1
  Ti  Ti9  1  0.66666700  0.33333300  0.47920995  1
  Ti  Ti10  1  0.33333300  0.66666700  0.51932070  1
  Ti  Ti11  1  0.33333300  0.66666700  0.31208968  1
  Ge  Ge12  1  -0.00000000  -0.00000000  0.35195945  1
  Ge  Ge13  1  -0.00000000  -0.00000000  0.85386882  1
  Ge  Ge14  1  0.66666700  0.33333300  0.18582190  1
  Ge  Ge15  1  0.66666700  0.33333300  0.97953522  1
  Ge  Ge16  1  0.33333300  0.66666700  0.01928232  1
  Ge  Ge17  1  0.33333300  0.66666700  0.81459983  1
  P  P18  1  0.28967115  0.00443579  0.24986159  1
  P  P19  1  0.71476463  0.71032885  0.24986159  1
  P  P20  1  0.99556421  0.28523537  0.24986159  1
  P  P21  1  0.28556940  0.28983581  0.75225935  1
  P  P22  1  0.00426641  0.71443060  0.75225935  1
  P  P23  1  0.71016419  0.99573359  0.75225935  1
  P  P24  1  0.95508020  0.33347609  0.58342518  1
  P  P25  1  0.37839688  0.04491980  0.58342518  1
  P  P26  1  0.66652391  0.62160312  0.58342518  1
  P  P27  1  0.95316352  0.61536070  0.08222480  1
  P  P28  1  0.66219818  0.04683648  0.08222480  1
  P  P29  1  0.38463930  0.33780182  0.08222480  1
  P  P30  1  0.62057460  0.66668116  0.91673106  1
  P  P31  1  0.04610556  0.37942540  0.91673106  1
  P  P32  1  0.33331884  0.95389444  0.91673106  1
  P  P33  1  0.62658463  0.95554440  0.41553418  1
  P  P34  1  0.32895876  0.37341537  0.41553418  1
  P  P35  1  0.04445560  0.67104124  0.41553418  1
  O  O36  1  0.20731191  0.03931960  0.30746487  1
  O  O37  1  0.83200769  0.79268809  0.30746487  1
  O  O38  1  0.96068040  0.16799231  0.30746487  1
  O  O39  1  0.20343626  0.16769965  0.80880256  1
  O  O40  1  0.96426338  0.79656374  0.80880256  1
  O  O41  1  0.83230035  0.03573662  0.80880256  1
  O  O42  1  0.79381302  0.96358094  0.69489699  1
  O  O43  1  0.16976792  0.20618698  0.69489699  1
  O  O44  1  0.03641906  0.83023208  0.69489699  1
  O  O45  1  0.79852610  0.82990867  0.19344356  1
  O  O46  1  0.03138257  0.20147390  0.19344356  1
  O  O47  1  0.17009133  0.96861743  0.19344356  1
  O  O48  1  0.86949972  0.36631981  0.64011792  1
  O  O49  1  0.49682109  0.13050028  0.64011792  1
  O  O50  1  0.63368019  0.50317891  0.64011792  1
  O  O51  1  0.87269005  0.49980515  0.14030605  1
  O  O52  1  0.62711610  0.12730995  0.14030605  1
  O  O53  1  0.50019485  0.37288390  0.14030605  1
  O  O54  1  0.46422892  0.29745873  0.02518946  1
  O  O55  1  0.83323080  0.53577108  0.02518946  1
  O  O56  1  0.70254127  0.16676920  0.02518946  1
  O  O57  1  0.46345036  0.16318411  0.52673189  1
  O  O58  1  0.69973476  0.53654964  0.52673189  1
  O  O59  1  0.83681589  0.30026524  0.52673189  1
  O  O60  1  0.53926362  0.70429733  0.97405999  1
  O  O61  1  0.16503271  0.46073638  0.97405999  1
  O  O62  1  0.29570267  0.83496729  0.97405999  1
  O  O63  1  0.54079864  0.83796339  0.47247576  1
  O  O64  1  0.29716375  0.45920136  0.47247576  1
  O  O65  1  0.16203661  0.70283625  0.47247576  1
  O  O66  1  0.13017340  0.63535028  0.35958631  1
  O  O67  1  0.50517588  0.86982660  0.35958631  1
  O  O68  1  0.36464972  0.49482412  0.35958631  1
  O  O69  1  0.12704492  0.49804947  0.85942746  1
  O  O70  1  0.37100354  0.87295508  0.85942746  1
  O  O71  1  0.50195053  0.62899646  0.85942746  1
  O  O72  1  0.02621986  0.84259643  0.40836395  1
  O  O73  1  0.81637657  0.97378014  0.40836395  1
  O  O74  1  0.15740357  0.18362343  0.40836395  1
  O  O75  1  0.02592752  0.18797674  0.90908365  1
  O  O76  1  0.16204922  0.97407248  0.90908365  1
  O  O77  1  0.81202326  0.83795078  0.90908365  1
  O  O78  1  0.97419291  0.16354267  0.59044789  1
  O  O79  1  0.18934976  0.02580709  0.59044789  1
  O  O80  1  0.83645733  0.81065024  0.59044789  1
  O  O81  1  0.97358394  0.80549820  0.08989375  1
  O  O82  1  0.83191426  0.02641606  0.08989375  1
  O  O83  1  0.19450180  0.16808574  0.08989375  1
  O  O84  1  0.69128889  0.16565131  0.74408748  1
  O  O85  1  0.47436342  0.30871111  0.74408748  1
  O  O86  1  0.83434869  0.52563658  0.74408748  1
  O  O87  1  0.69318329  0.51874119  0.24214171  1
  O  O88  1  0.82555890  0.30681671  0.24214171  1
  O  O89  1  0.48125881  0.17444110  0.24214171  1
  O  O90  1  0.64067502  0.49527277  0.92433026  1
  O  O91  1  0.85459876  0.35932498  0.92433026  1
  O  O92  1  0.50472723  0.14540124  0.92433026  1
  O  O93  1  0.64371858  0.14343296  0.42325664  1
  O  O94  1  0.49971538  0.35628142  0.42325664  1
  O  O95  1  0.85656704  0.50028462  0.42325664  1
  O  O96  1  0.36135567  0.50744154  0.07509750  1
  O  O97  1  0.14608487  0.63864433  0.07509750  1
  O  O98  1  0.49255846  0.85391513  0.07509750  1
  O  O99  1  0.35915613  0.85599451  0.57627159  1
  O  O100  1  0.49683738  0.64084387  0.57627159  1
  O  O101  1  0.14400549  0.50316262  0.57627159  1
  O  O102  1  0.30868197  0.83418252  0.25716543  1
  O  O103  1  0.52549955  0.69131803  0.25716543  1
  O  O104  1  0.16581748  0.47450045  0.25716543  1
  O  O105  1  0.30557987  0.48115853  0.75876056  1
  O  O106  1  0.17557766  0.69442013  0.75876056  1
  O  O107  1  0.51884147  0.82442234  0.75876056  1
