# generated using pymatgen
data_Na2NbSi2GePO12
_symmetry_space_group_name_H-M   'P 1'
_cell_length_a   8.78404479
_cell_length_b   8.78404451
_cell_length_c   22.24251730
_cell_angle_alpha   89.47162825
_cell_angle_beta   90.52837180
_cell_angle_gamma   120.06996912
_symmetry_Int_Tables_number   1
_chemical_formula_structural   Na2NbSi2GePO12
_chemical_formula_sum   'Na12 Nb6 Si12 Ge6 P6 O72'
_cell_volume   1485.15711212
_cell_formula_units_Z   6
loop_
 _symmetry_equiv_pos_site_id
 _symmetry_equiv_pos_as_xyz
  1  'x, y, z'
loop_
 _atom_site_type_symbol
 _atom_site_label
 _atom_site_symmetry_multiplicity
 _atom_site_fract_x
 _atom_site_fract_y
 _atom_site_fract_z
 _atom_site_occupancy
  Na  Na0  1  0.99603188  0.63061209  0.24982521  1
  Na  Na1  1  0.36938791  0.00396812  0.74982521  1
  Na  Na2  1  0.66269888  0.96394509  0.58315821  1
  Na  Na3  1  0.03605491  0.33730112  0.08315821  1
  Na  Na4  1  0.32936488  0.29727909  0.91649221  1
  Na  Na5  1  0.70272091  0.67063512  0.41649221  1
  Na  Na6  1  0.01530821  0.00574936  0.49677478  1
  Na  Na7  1  0.99425064  0.98469179  0.99677478  1
  Na  Na8  1  0.68197521  0.33908236  0.83010778  1
  Na  Na9  1  0.66091764  0.31802479  0.33010778  1
  Na  Na10  1  0.34864121  0.67241636  0.16344178  1
  Na  Na11  1  0.32758364  0.65135879  0.66344178  1
  Nb  Nb12  1  0.00068216  0.99981239  0.64432426  1
  Nb  Nb13  1  0.00018761  0.99931784  0.14432426  1
  Nb  Nb14  1  0.66734916  0.33314539  0.97765726  1
  Nb  Nb15  1  0.66685461  0.33265084  0.47765726  1
  Nb  Nb16  1  0.33401516  0.66647939  0.31099126  1
  Nb  Nb17  1  0.33352061  0.66598484  0.81099126  1
  Si  Si18  1  0.71106471  0.70701212  0.25092814  1
  Si  Si19  1  0.98814372  0.27829591  0.25054175  1
  Si  Si20  1  0.29298788  0.28893529  0.75092814  1
  Si  Si21  1  0.72170409  0.01185628  0.75054175  1
  Si  Si22  1  0.37773171  0.04034512  0.58426114  1
  Si  Si23  1  0.65481072  0.61162891  0.58387475  1
  Si  Si24  1  0.95965488  0.62226829  0.08426114  1
  Si  Si25  1  0.38837109  0.34518928  0.08387475  1
  Si  Si26  1  0.04439771  0.37367912  0.91759514  1
  Si  Si27  1  0.32147672  0.94496291  0.91720875  1
  Si  Si28  1  0.62632088  0.95560229  0.41759514  1
  Si  Si29  1  0.05503709  0.67852328  0.41720875  1
  Ge  Ge30  1  0.99371883  0.99715369  0.35343428  1
  Ge  Ge31  1  0.00284631  0.00628117  0.85343428  1
  Ge  Ge32  1  0.66038583  0.33048669  0.68676728  1
  Ge  Ge33  1  0.66951331  0.33961417  0.18676728  1
  Ge  Ge34  1  0.32705183  0.66382069  0.02010128  1
  Ge  Ge35  1  0.33617931  0.67294817  0.52010128  1
  P  P36  1  0.29354113  0.01266210  0.25169946  1
  P  P37  1  0.98733790  0.70645887  0.75169946  1
  P  P38  1  0.96020813  0.34599510  0.58503246  1
  P  P39  1  0.65400490  0.03979187  0.08503246  1
  P  P40  1  0.62687413  0.67932910  0.91836646  1
  P  P41  1  0.32067090  0.37312587  0.41836646  1
  O  O42  1  0.20659336  0.03647808  0.30771243  1
  O  O43  1  0.83662594  0.79109477  0.31068971  1
  O  O44  1  0.96533866  0.15771957  0.30915850  1
  O  O45  1  0.20890523  0.16337406  0.81068971  1
  O  O46  1  0.96352192  0.79340664  0.80771243  1
  O  O47  1  0.84228043  0.03466134  0.80915850  1
  O  O48  1  0.79829062  0.97140640  0.68966765  1
  O  O49  1  0.16650994  0.19300433  0.69282681  1
  O  O50  1  0.02782811  0.82730784  0.69528373  1
  O  O51  1  0.80699567  0.83349006  0.19282681  1
  O  O52  1  0.02859360  0.20170938  0.18966765  1
  O  O53  1  0.17269216  0.97217189  0.19528373  1
  O  O54  1  0.87326036  0.36981108  0.64104543  1
  O  O55  1  0.50329294  0.12442777  0.64402271  1
  O  O56  1  0.63200566  0.49105257  0.64249150  1
  O  O57  1  0.87557223  0.49670706  0.14402271  1
  O  O58  1  0.63018892  0.12673964  0.14104543  1
  O  O59  1  0.50894743  0.36799434  0.14249150  1
  O  O60  1  0.46495762  0.30473940  0.02300065  1
  O  O61  1  0.83317694  0.52633733  0.02615981  1
  O  O62  1  0.69449511  0.16064084  0.02861673  1
  O  O63  1  0.47366267  0.16682306  0.52615981  1
  O  O64  1  0.69526060  0.53504238  0.52300065  1
  O  O65  1  0.83935916  0.30550489  0.52861673  1
  O  O66  1  0.53992636  0.70314508  0.97437943  1
  O  O67  1  0.16995894  0.45776177  0.97735671  1
  O  O68  1  0.29867166  0.82438657  0.97582550  1
  O  O69  1  0.54223823  0.83004106  0.47735671  1
  O  O70  1  0.29685492  0.46007364  0.47437943  1
  O  O71  1  0.17561343  0.70132834  0.47582550  1
  O  O72  1  0.13162362  0.63807340  0.35633465  1
  O  O73  1  0.49984294  0.85967133  0.35949381  1
  O  O74  1  0.36116111  0.49397484  0.36195073  1
  O  O75  1  0.14032867  0.50015706  0.85949381  1
  O  O76  1  0.36192660  0.86837638  0.85633465  1
  O  O77  1  0.50602516  0.63883889  0.86195073  1
  O  O78  1  0.02942781  0.85042388  0.40952882  1
  O  O79  1  0.81779565  0.96911217  0.41001855  1
  O  O80  1  0.16190915  0.18946923  0.40991516  1
  O  O81  1  0.03088783  0.18220435  0.91001855  1
  O  O82  1  0.14957612  0.97057219  0.90952882  1
  O  O83  1  0.81053077  0.83809085  0.90991516  1
  O  O84  1  0.97003042  0.17283738  0.58914496  1
  O  O85  1  0.18468522  0.02213243  0.58873242  1
  O  O86  1  0.82667890  0.81262069  0.58979337  1
  O  O87  1  0.97786757  0.81531478  0.08873242  1
  O  O88  1  0.82716262  0.02996958  0.08914496  1
  O  O89  1  0.18737931  0.17332110  0.08979337  1
  O  O90  1  0.69609481  0.18375688  0.74286182  1
  O  O91  1  0.48446265  0.30244517  0.74335155  1
  O  O92  1  0.82857615  0.52280223  0.74324816  1
  O  O93  1  0.69755483  0.51553735  0.24335155  1
  O  O94  1  0.81624312  0.30390519  0.24286182  1
  O  O95  1  0.47719777  0.17142385  0.24324816  1
  O  O96  1  0.63669742  0.50617038  0.92247796  1
  O  O97  1  0.85135222  0.35546543  0.92206542  1
  O  O98  1  0.49334590  0.14595369  0.92312637  1
  O  O99  1  0.64453457  0.14864778  0.42206542  1
  O  O100  1  0.49382962  0.36330258  0.42247796  1
  O  O101  1  0.85404631  0.50665410  0.42312637  1
  O  O102  1  0.36276081  0.51709088  0.07619582  1
  O  O103  1  0.15112865  0.63577917  0.07668555  1
  O  O104  1  0.49524215  0.85613623  0.07658216  1
  O  O105  1  0.36422083  0.84887135  0.57668555  1
  O  O106  1  0.48290912  0.63723919  0.57619582  1
  O  O107  1  0.14386377  0.50475785  0.57658216  1
  O  O108  1  0.30336342  0.83950438  0.25581196  1
  O  O109  1  0.51801822  0.68879943  0.25539942  1
  O  O110  1  0.16001190  0.47928769  0.25646037  1
  O  O111  1  0.31120057  0.48198178  0.75539942  1
  O  O112  1  0.16049562  0.69663658  0.75581196  1
  O  O113  1  0.52071231  0.83998810  0.75646037  1
