# generated using pymatgen
data_Na3La2Ti2P5SO24
_symmetry_space_group_name_H-M   'P 1'
_cell_length_a   9.09371423
_cell_length_b   9.09578460
_cell_length_c   23.00107552
_cell_angle_alpha   90.20200462
_cell_angle_beta   89.96213448
_cell_angle_gamma   119.37737572
_symmetry_Int_Tables_number   1
_chemical_formula_structural   Na3La2Ti2P5SO24
_chemical_formula_sum   'Na9 La6 Ti6 P15 S3 O72'
_cell_volume   1657.86026990
_cell_formula_units_Z   3
loop_
 _symmetry_equiv_pos_site_id
 _symmetry_equiv_pos_as_xyz
  1  'x, y, z'
loop_
 _atom_site_type_symbol
 _atom_site_label
 _atom_site_symmetry_multiplicity
 _atom_site_fract_x
 _atom_site_fract_y
 _atom_site_fract_z
 _atom_site_occupancy
  Na  Na0  1  0.00367812  0.35916281  0.75295604  1
  Na  Na1  1  0.67172603  0.95125440  0.58314391  1
  Na  Na2  1  0.05134871  0.32976593  0.08325863  1
  Na  Na3  1  0.01777608  0.99387516  0.49143308  1
  Na  Na4  1  0.00697943  0.98799236  0.99038724  1
  Na  Na5  1  0.65533374  0.32529006  0.83418740  1
  Na  Na6  1  0.67489661  0.33264107  0.33240489  1
  Na  Na7  1  0.35449768  0.67497834  0.16991279  1
  Na  Na8  1  0.33686506  0.66961536  0.66959639  1
  La  La9  1  0.01553278  0.99582152  0.64255573  1
  La  La10  1  0.99664848  0.98503613  0.14306105  1
  La  La11  1  0.33690425  0.67857511  0.01643693  1
  La  La12  1  0.31761701  0.66306401  0.51634350  1
  La  La13  1  0.32459347  0.66324077  0.32270710  1
  La  La14  1  0.33886210  0.68189332  0.82559987  1
  Ti  Ti15  1  0.97026266  0.98716390  0.34637410  1
  Ti  Ti16  1  0.01052968  0.01008040  0.84453794  1
  Ti  Ti17  1  0.66165237  0.34000170  0.68797630  1
  Ti  Ti18  1  0.67358143  0.34227739  0.18694231  1
  Ti  Ti19  1  0.66095111  0.32175067  0.98243433  1
  Ti  Ti20  1  0.67815729  0.34128281  0.48252530  1
  P  P21  1  0.70221362  0.68930687  0.24963630  1
  P  P22  1  0.98157684  0.28518051  0.24679666  1
  P  P23  1  0.30375130  0.29351531  0.75035949  1
  P  P24  1  0.98240737  0.69241972  0.75176687  1
  P  P25  1  0.71107366  0.01295786  0.74596168  1
  P  P26  1  0.94356932  0.34245332  0.58641046  1
  P  P27  1  0.40423748  0.06622795  0.58188816  1
  P  P28  1  0.65645545  0.60479839  0.58339939  1
  P  P29  1  0.93776891  0.59915399  0.08157165  1
  P  P30  1  0.65934610  0.05736825  0.08511037  1
  P  P31  1  0.39816178  0.34219489  0.08474984  1
  P  P32  1  0.00633258  0.33706754  0.91659479  1
  P  P33  1  0.33028613  0.99847897  0.91667253  1
  P  P34  1  0.65415854  0.99107425  0.41999372  1
  P  P35  1  0.00347025  0.67176252  0.41598572  1
  S  S36  1  0.31031417  0.01997211  0.25205140  1
  S  S37  1  0.66736552  0.66906556  0.91683003  1
  S  S38  1  0.32920309  0.33246163  0.41665904  1
  O  O39  1  0.20846329  0.02336477  0.30203804  1
  O  O40  1  0.81981428  0.79918085  0.30203700  1
  O  O41  1  0.96843965  0.15692062  0.29625412  1
  O  O42  1  0.19958160  0.17107277  0.80187178  1
  O  O43  1  0.97886693  0.80430836  0.80331065  1
  O  O44  1  0.84167548  0.03033045  0.79509842  1
  O  O45  1  0.77639715  0.99047988  0.68683077  1
  O  O46  1  0.19881190  0.22720556  0.69520878  1
  O  O47  1  0.01275291  0.78545431  0.69458640  1
  O  O48  1  0.77705713  0.78847301  0.19403326  1
  O  O49  1  0.00995307  0.22298780  0.18776285  1
  O  O50  1  0.22131088  0.00034338  0.19635672  1
  O  O51  1  0.84650578  0.34006310  0.64318311  1
  O  O52  1  0.49483300  0.16419478  0.63919953  1
  O  O53  1  0.66420909  0.51209486  0.64029859  1
  O  O54  1  0.84298202  0.51057374  0.13961872  1
  O  O55  1  0.66561140  0.16107552  0.13997186  1
  O  O56  1  0.49351738  0.33908575  0.14142617  1
  O  O57  1  0.50298117  0.35291966  0.03045149  1
  O  O58  1  0.84384961  0.48900470  0.02865440  1
  O  O59  1  0.64401494  0.14550630  0.02903855  1
  O  O60  1  0.51242613  0.15703420  0.52822074  1
  O  O61  1  0.64419129  0.49844861  0.52945855  1
  O  O62  1  0.85248582  0.35890960  0.53115212  1
  O  O63  1  0.58544446  0.70226709  0.96759497  1
  O  O64  1  0.12256668  0.41283454  0.97059459  1
  O  O65  1  0.28802126  0.87656592  0.96851928  1
  O  O66  1  0.59163024  0.88223001  0.47559573  1
  O  O67  1  0.29536035  0.41188974  0.46817685  1
  O  O68  1  0.12251673  0.71754334  0.46917154  1
  O  O69  1  0.07151037  0.61734990  0.36417006  1
  O  O70  1  0.53023777  0.91013963  0.36966234  1
  O  O71  1  0.36809063  0.44321212  0.36521946  1
  O  O72  1  0.07899876  0.45305854  0.86333200  1
  O  O73  1  0.38691074  0.93632298  0.86372438  1
  O  O74  1  0.55902919  0.63054855  0.86443560  1
  O  O75  1  0.98771028  0.83112032  0.40182319  1
  O  O76  1  0.83074238  0.00787817  0.40265000  1
  O  O77  1  0.17712824  0.16518922  0.40647707  1
  O  O78  1  0.98764354  0.15972733  0.90212595  1
  O  O79  1  0.16849667  0.01046244  0.90350158  1
  O  O80  1  0.83423093  0.82143144  0.90791459  1
  O  O81  1  0.94500297  0.17462055  0.57923830  1
  O  O82  1  0.23032065  0.05056903  0.57389707  1
  O  O83  1  0.81434424  0.78072820  0.57788530  1
  O  O84  1  0.95432966  0.77340869  0.07408876  1
  O  O85  1  0.82735857  0.05474304  0.07830279  1
  O  O86  1  0.22157980  0.18320815  0.08008231  1
  O  O87  1  0.70751122  0.18442090  0.74680607  1
  O  O88  1  0.47719606  0.30025945  0.74615981  1
  O  O89  1  0.81361801  0.51859741  0.74931098  1
  O  O90  1  0.70180376  0.51774051  0.24765463  1
  O  O91  1  0.81352966  0.29313604  0.24574318  1
  O  O92  1  0.47627902  0.18039408  0.25111422  1
  O  O93  1  0.69105581  0.52051493  0.92718437  1
  O  O94  1  0.82395490  0.30782943  0.92833544  1
  O  O95  1  0.47704709  0.17926678  0.93036379  1
  O  O96  1  0.69125716  0.17603554  0.42911602  1
  O  O97  1  0.47817717  0.30866656  0.42683998  1
  O  O98  1  0.82362483  0.52195937  0.42974275  1
  O  O99  1  0.37189556  0.49882929  0.08763091  1
  O  O100  1  0.11258118  0.60816853  0.08609991  1
  O  O101  1  0.50519859  0.88012194  0.08900180  1
  O  O102  1  0.39319454  0.89026472  0.58684352  1
  O  O103  1  0.49901444  0.62851171  0.58770190  1
  O  O104  1  0.12167910  0.49680770  0.58961716  1
  O  O105  1  0.34112058  0.87351302  0.25571841  1
  O  O106  1  0.52315328  0.66118460  0.25770291  1
  O  O107  1  0.13108148  0.46142156  0.25888840  1
  O  O108  1  0.32262186  0.46893974  0.76182533  1
  O  O109  1  0.12805695  0.65069405  0.75918276  1
  O  O110  1  0.53395857  0.86308372  0.75662249  1
