# generated using pymatgen
data_Na7CaSi3Sn3(PO8)3
_symmetry_space_group_name_H-M   'P 1'
_cell_length_a   9.16069960
_cell_length_b   9.16972465
_cell_length_c   22.57665855
_cell_angle_alpha   89.73871864
_cell_angle_beta   90.19940593
_cell_angle_gamma   119.92700664
_symmetry_Int_Tables_number   1
_chemical_formula_structural   Na7CaSi3Sn3(PO8)3
_chemical_formula_sum   'Na21 Ca3 Si9 Sn9 P9 O72'
_cell_volume   1643.57400677
_cell_formula_units_Z   3
loop_
 _symmetry_equiv_pos_site_id
 _symmetry_equiv_pos_as_xyz
  1  'x, y, z'
loop_
 _atom_site_type_symbol
 _atom_site_label
 _atom_site_symmetry_multiplicity
 _atom_site_fract_x
 _atom_site_fract_y
 _atom_site_fract_z
 _atom_site_occupancy
  Na  Na0  1  0.63770906  0.00984834  0.24657961  1
  Na  Na1  1  0.37358927  0.36319666  0.24693570  1
  Na  Na2  1  0.99062183  0.63072263  0.25073295  1
  Na  Na3  1  0.63728754  0.62268630  0.75003314  1
  Na  Na4  1  0.98934836  0.37308559  0.74613670  1
  Na  Na5  1  0.37289324  0.00702199  0.74581538  1
  Na  Na6  1  0.02830239  0.68900553  0.58357861  1
  Na  Na7  1  0.66882636  0.97677069  0.57795415  1
  Na  Na8  1  0.31527651  0.97854542  0.08347767  1
  Na  Na9  1  0.65811509  0.68873603  0.08240022  1
  Na  Na10  1  0.02590546  0.33182854  0.07888022  1
  Na  Na11  1  0.33400828  0.30348661  0.91907498  1
  Na  Na12  1  0.96847484  0.28827587  0.41751756  1
  Na  Na13  1  0.31932757  0.03073300  0.41626552  1
  Na  Na14  1  0.71252150  0.67942254  0.41579432  1
  Na  Na15  1  0.00871191  0.01088226  0.49471365  1
  Na  Na16  1  0.98370293  0.99327363  0.99726464  1
  Na  Na17  1  0.68897161  0.34767155  0.83591563  1
  Na  Na18  1  0.66623284  0.33327777  0.33541266  1
  Na  Na19  1  0.34030327  0.66806969  0.16388100  1
  Na  Na20  1  0.32276878  0.64956558  0.66337779  1
  Ca  Ca21  1  0.99869505  0.00054415  0.35388961  1
  Ca  Ca22  1  0.66976329  0.33727107  0.68257451  1
  Ca  Ca23  1  0.66520285  0.33070071  0.17751178  1
  Si  Si24  1  0.00816945  0.71558979  0.75206883  1
  Si  Si25  1  0.97268506  0.33407283  0.58542798  1
  Si  Si26  1  0.66319582  0.02980409  0.08372759  1
  Si  Si27  1  0.36543074  0.33473873  0.08262658  1
  Si  Si28  1  0.63020148  0.66496446  0.91643804  1
  Si  Si29  1  0.03261266  0.36983679  0.91537290  1
  Si  Si30  1  0.61904347  0.96131416  0.41927220  1
  Si  Si31  1  0.34284210  0.37805373  0.41772099  1
  Si  Si32  1  0.03786405  0.65916779  0.41885425  1
  Sn  Sn33  1  0.99222417  0.99540537  0.85637843  1
  Sn  Sn34  1  0.00555860  0.00308994  0.64764025  1
  Sn  Sn35  1  0.00012472  0.00300897  0.14889547  1
  Sn  Sn36  1  0.67075792  0.33284020  0.98074896  1
  Sn  Sn37  1  0.66838878  0.33106973  0.48283922  1
  Sn  Sn38  1  0.33562476  0.66488869  0.01294838  1
  Sn  Sn39  1  0.33068636  0.66009257  0.51744378  1
  Sn  Sn40  1  0.33377421  0.66492146  0.31892360  1
  Sn  Sn41  1  0.32876834  0.66449638  0.81806819  1
  P  P42  1  0.29410486  0.99105912  0.25082269  1
  P  P43  1  0.69775709  0.70455785  0.25059389  1
  P  P44  1  0.00897234  0.30583803  0.25066364  1
  P  P45  1  0.28398208  0.29156700  0.75357801  1
  P  P46  1  0.70636649  0.99181925  0.75134279  1
  P  P47  1  0.36540715  0.03220174  0.58353122  1
  P  P48  1  0.66600896  0.63509137  0.58461598  1
  P  P49  1  0.96859984  0.63523139  0.08287843  1
  P  P50  1  0.33539157  0.96270256  0.91596656  1
  O  O51  1  0.21276216  0.01204946  0.30531458  1
  O  O52  1  0.79895906  0.78423518  0.30560200  1
  O  O53  1  0.98376542  0.20246062  0.30551231  1
  O  O54  1  0.20226015  0.18635301  0.81021206  1
  O  O55  1  0.97995570  0.81429794  0.80626921  1
  O  O56  1  0.82506941  0.02809189  0.80476555  1
  O  O57  1  0.78348466  0.96155596  0.69380556  1
  O  O58  1  0.16907402  0.20976695  0.69834719  1
  O  O59  1  0.04209466  0.82870683  0.69006005  1
  O  O60  1  0.78520660  0.81589672  0.19295816  1
  O  O61  1  0.03440571  0.21981183  0.19325675  1
  O  O62  1  0.18180629  0.96469263  0.19298734  1
  O  O63  1  0.90392781  0.37261409  0.64480151  1
  O  O64  1  0.46463406  0.10364710  0.63990129  1
  O  O65  1  0.63853162  0.54068227  0.64173091  1
  O  O66  1  0.91172353  0.53653020  0.14000710  1
  O  O67  1  0.62067237  0.08584592  0.14512830  1
  O  O68  1  0.47281436  0.38202727  0.14228870  1
  O  O69  1  0.45468531  0.29504952  0.02558966  1
  O  O70  1  0.84228134  0.54958813  0.03087700  1
  O  O71  1  0.71234239  0.17082964  0.03060101  1
  O  O72  1  0.45074097  0.14362308  0.52771351  1
  O  O73  1  0.69594619  0.54862562  0.52975210  1
  O  O74  1  0.84252737  0.29413895  0.52779262  1
  O  O75  1  0.54603658  0.69299978  0.97565942  1
  O  O76  1  0.15348045  0.45595265  0.97332323  1
  O  O77  1  0.30713615  0.85364770  0.97177959  1
  O  O78  1  0.53309062  0.84581153  0.47782771  1
  O  O79  1  0.30458674  0.46722023  0.47199898  1
  O  O80  1  0.15626918  0.69430373  0.47690824  1
  O  O81  1  0.11676452  0.62198774  0.35774060  1
  O  O82  1  0.50476568  0.88086861  0.35796199  1
  O  O83  1  0.38137487  0.49120376  0.35544224  1
  O  O84  1  0.11599398  0.48199119  0.85520869  1
  O  O85  1  0.36165195  0.88269073  0.85945714  1
  O  O86  1  0.50838011  0.62982086  0.85759973  1
  O  O87  1  0.01219922  0.81940348  0.41695857  1
  O  O88  1  0.80487424  0.98602330  0.41804464  1
  O  O89  1  0.18279295  0.19249622  0.41610287  1
  O  O90  1  0.03193227  0.18850812  0.91207337  1
  O  O91  1  0.17995860  0.98841921  0.91188372  1
  O  O92  1  0.81676515  0.83179517  0.91328818  1
  O  O93  1  0.97582117  0.15362182  0.58842322  1
  O  O94  1  0.18256176  0.00618974  0.58522649  1
  O  O95  1  0.83405633  0.81237862  0.58649681  1
  O  O96  1  0.98424509  0.81385549  0.08797036  1
  O  O97  1  0.83360238  0.00730387  0.08748692  1
  O  O98  1  0.17827272  0.15774733  0.08756787  1
  O  O99  1  0.67741022  0.14143018  0.74758786  1
  O  O100  1  0.45775947  0.30840222  0.74898253  1
  O  O101  1  0.84410152  0.53018972  0.75200176  1
  O  O102  1  0.67560657  0.52798968  0.24533590  1
  O  O103  1  0.85762442  0.33307769  0.24452922  1
  O  O104  1  0.47085609  0.14540570  0.24570963  1
  O  O105  1  0.63302871  0.48648971  0.92187890  1
  O  O106  1  0.84642037  0.34965273  0.92146144  1
  O  O107  1  0.49259386  0.14056763  0.92112542  1
  O  O108  1  0.62571167  0.14474056  0.42213485  1
  O  O109  1  0.51960901  0.37229592  0.42439710  1
  O  O110  1  0.85368773  0.48361764  0.42316898  1
  O  O111  1  0.33172306  0.49529577  0.07422375  1
  O  O112  1  0.14786756  0.66207382  0.07081648  1
  O  O113  1  0.49368362  0.84344263  0.07249507  1
  O  O114  1  0.34843083  0.85377833  0.57763221  1
  O  O115  1  0.51759473  0.67106541  0.57710724  1
  O  O116  1  0.15792440  0.50588530  0.57787086  1
  O  O117  1  0.30296250  0.82276948  0.25168448  1
  O  O118  1  0.52124024  0.69726549  0.25092473  1
  O  O119  1  0.17848297  0.48160909  0.25162448  1
  O  O120  1  0.30162785  0.47149459  0.75519093  1
  O  O121  1  0.18681147  0.70595808  0.75541874  1
  O  O122  1  0.53182134  0.82412781  0.75721854  1
