# generated using pymatgen
data_Na10Y4Ti4Si7S5O48
_symmetry_space_group_name_H-M   'P 1'
_cell_length_a   18.39001756
_cell_length_b   9.22105912
_cell_length_c   22.73331977
_cell_angle_alpha   90.05196870
_cell_angle_beta   87.67735993
_cell_angle_gamma   119.88466249
_symmetry_Int_Tables_number   1
_chemical_formula_structural   Na10Y4Ti4Si7S5O48
_chemical_formula_sum   'Na30 Y12 Ti12 Si21 S15 O144'
_cell_volume   3338.83869415
_cell_formula_units_Z   3
loop_
 _symmetry_equiv_pos_site_id
 _symmetry_equiv_pos_as_xyz
  1  'x, y, z'
loop_
 _atom_site_type_symbol
 _atom_site_label
 _atom_site_symmetry_multiplicity
 _atom_site_fract_x
 _atom_site_fract_y
 _atom_site_fract_z
 _atom_site_occupancy
  Na  Na0  1  0.18447603  0.36735378  0.24018393  1
  Na  Na1  1  0.68508859  0.36888354  0.24081997  1
  Na  Na2  1  0.99233321  0.63821704  0.25454448  1
  Na  Na3  1  0.49385732  0.63838474  0.25398648  1
  Na  Na4  1  0.49255443  0.34325992  0.75969987  1
  Na  Na5  1  0.18458666  0.00288234  0.74322468  1
  Na  Na6  1  0.68166036  0.00233952  0.74333383  1
  Na  Na7  1  0.65699515  0.34206344  0.58153464  1
  Na  Na8  1  0.01578920  0.70048064  0.57706402  1
  Na  Na9  1  0.82690481  0.96725365  0.59031872  1
  Na  Na10  1  0.49135656  0.67587249  0.91681587  1
  Na  Na11  1  0.99263228  0.67576535  0.91542625  1
  Na  Na12  1  0.84961197  0.03495158  0.91051818  1
  Na  Na13  1  0.15593173  0.30383987  0.92324520  1
  Na  Na14  1  0.49107962  0.30867919  0.41472978  1
  Na  Na15  1  0.98598372  0.30056299  0.41462024  1
  Na  Na16  1  0.34596617  0.66215880  0.40871832  1
  Na  Na17  1  0.84887341  0.66706238  0.41022353  1
  Na  Na18  1  0.02606851  0.01458780  0.50065707  1
  Na  Na19  1  0.51799056  0.98772277  0.49977468  1
  Na  Na20  1  0.01173236  0.01419841  0.00556225  1
  Na  Na21  1  0.51553300  0.04218418  0.99968021  1
  Na  Na22  1  0.34347221  0.33361447  0.83446787  1
  Na  Na23  1  0.84831932  0.34524546  0.82885430  1
  Na  Na24  1  0.33760785  0.32418764  0.33040142  1
  Na  Na25  1  0.83626154  0.32173636  0.33477668  1
  Na  Na26  1  0.17908141  0.66349180  0.16383901  1
  Na  Na27  1  0.67902288  0.66515903  0.16442993  1
  Na  Na28  1  0.17810017  0.67486840  0.67245268  1
  Na  Na29  1  0.67669346  0.68298302  0.66845915  1
  Y  Y30  1  0.00132269  0.99482887  0.35131367  1
  Y  Y31  1  0.50192675  0.99791831  0.35050082  1
  Y  Y32  1  0.99844794  0.00291365  0.84790501  1
  Y  Y33  1  0.49422670  0.00375351  0.85502380  1
  Y  Y34  1  0.33416905  0.33320859  0.68413403  1
  Y  Y35  1  0.83678116  0.33667425  0.68691886  1
  Y  Y36  1  0.33548792  0.33932000  0.18163835  1
  Y  Y37  1  0.83548657  0.33815634  0.18231314  1
  Y  Y38  1  0.16152108  0.65360300  0.02019411  1
  Y  Y39  1  0.66010418  0.65010513  0.02189961  1
  Y  Y40  1  0.16674555  0.67505988  0.51908889  1
  Y  Y41  1  0.65922950  0.67263504  0.51911846  1
  Ti  Ti42  1  0.99252626  0.96576066  0.64967643  1
  Ti  Ti43  1  0.49540800  0.96703107  0.65049281  1
  Ti  Ti44  1  0.99638816  0.02384109  0.14926940  1
  Ti  Ti45  1  0.49607183  0.02108440  0.14909323  1
  Ti  Ti46  1  0.32253599  0.30263330  0.97721862  1
  Ti  Ti47  1  0.81959910  0.31500524  0.97668399  1
  Ti  Ti48  1  0.32069000  0.32774066  0.47623258  1
  Ti  Ti49  1  0.82372043  0.35440039  0.47965509  1
  Ti  Ti50  1  0.16017289  0.62985723  0.31267607  1
  Ti  Ti51  1  0.65956956  0.63155151  0.31344044  1
  Ti  Ti52  1  0.15816137  0.68870233  0.81189653  1
  Ti  Ti53  1  0.65970063  0.69100785  0.81317379  1
  Si  Si54  1  0.35016085  0.71463137  0.25161248  1
  Si  Si55  1  0.85047416  0.71512731  0.25147009  1
  Si  Si56  1  0.00020571  0.30035483  0.25427026  1
  Si  Si57  1  0.50054915  0.30120026  0.25375079  1
  Si  Si58  1  0.00084842  0.69844625  0.75407433  1
  Si  Si59  1  0.50039623  0.69955472  0.75522660  1
  Si  Si60  1  0.34988745  0.98587003  0.74903033  1
  Si  Si61  1  0.84660398  0.98216162  0.75317392  1
  Si  Si62  1  0.18107828  0.04383242  0.58836093  1
  Si  Si63  1  0.68389259  0.04958777  0.58770126  1
  Si  Si64  1  0.83413064  0.63534788  0.58272714  1
  Si  Si65  1  0.18115918  0.31846056  0.08761679  1
  Si  Si66  1  0.68010386  0.31736499  0.08943473  1
  Si  Si67  1  0.01700583  0.37901616  0.91674247  1
  Si  Si68  1  0.51483206  0.37879550  0.91738346  1
  Si  Si69  1  0.16743754  0.96491430  0.91671512  1
  Si  Si70  1  0.66682588  0.96505851  0.91904482  1
  Si  Si71  1  0.16622916  0.36773315  0.41785312  1
  Si  Si72  1  0.66633690  0.36710228  0.42046045  1
  Si  Si73  1  0.01570289  0.65302220  0.41926323  1
  Si  Si74  1  0.51299708  0.65321212  0.41580335  1
  S  S75  1  0.14505029  0.98554806  0.24541751  1
  S  S76  1  0.64506327  0.98537164  0.24523501  1
  S  S77  1  0.14434199  0.30618323  0.74756296  1
  S  S78  1  0.64143826  0.29713884  0.74538045  1
  S  S79  1  0.47882019  0.31211866  0.58035241  1
  S  S80  1  0.97975678  0.31779065  0.57848479  1
  S  S81  1  0.34116119  0.63692388  0.57926585  1
  S  S82  1  0.48026846  0.65131033  0.08190703  1
  S  S83  1  0.97976200  0.64799205  0.08073266  1
  S  S84  1  0.33995438  0.04365451  0.08108320  1
  S  S85  1  0.84031519  0.04371910  0.07990730  1
  S  S86  1  0.30935004  0.64632209  0.91647983  1
  S  S87  1  0.81114486  0.64964350  0.91720418  1
  S  S88  1  0.31194435  0.97494396  0.41519176  1
  S  S89  1  0.81013578  0.96841134  0.41560369  1
  O  O90  1  0.11158499  0.01618137  0.30170267  1
  O  O91  1  0.61177539  0.01610077  0.30151239  1
  O  O92  1  0.40222693  0.77647479  0.31035768  1
  O  O93  1  0.90371316  0.77525929  0.30975858  1
  O  O94  1  0.49127436  0.20552927  0.31431970  1
  O  O95  1  0.99227732  0.20440839  0.31439894  1
  O  O96  1  0.11192671  0.21809720  0.80576762  1
  O  O97  1  0.60188363  0.19495464  0.79931540  1
  O  O98  1  0.49272373  0.78256940  0.81429875  1
  O  O99  1  0.99720026  0.78365575  0.81417604  1
  O  O100  1  0.41268217  0.04258959  0.80158125  1
  O  O101  1  0.89368410  0.00784181  0.81319053  1
  O  O102  1  0.40681451  0.96795294  0.69064949  1
  O  O103  1  0.90498076  0.97231552  0.69457538  1
  O  O104  1  0.09149971  0.20500648  0.70015598  1
  O  O105  1  0.59236161  0.20775598  0.69301389  1
  O  O106  1  0.01040987  0.82359774  0.69499819  1
  O  O107  1  0.51117054  0.82630802  0.69602082  1
  O  O108  1  0.40898417  0.84645029  0.19582471  1
  O  O109  1  0.90950299  0.84791835  0.19566968  1
  O  O110  1  0.01268320  0.19741289  0.19623030  1
  O  O111  1  0.51181595  0.19513729  0.19624038  1
  O  O112  1  0.09202297  0.97595760  0.19686938  1
  O  O113  1  0.59167055  0.97526792  0.19688558  1
  O  O114  1  0.43872523  0.32691503  0.63594593  1
  O  O115  1  0.93829147  0.33959478  0.63176950  1
  O  O116  1  0.23058899  0.12290134  0.64621901  1
  O  O117  1  0.73269928  0.12113074  0.64679505  1
  O  O118  1  0.32970889  0.53577940  0.63191106  1
  O  O119  1  0.81858585  0.50807873  0.63476038  1
  O  O120  1  0.44106615  0.55534760  0.13811550  1
  O  O121  1  0.93994527  0.55357668  0.13684812  1
  O  O122  1  0.32871415  0.11826757  0.13503227  1
  O  O123  1  0.82978801  0.12309426  0.13267457  1
  O  O124  1  0.22679144  0.32671625  0.14693106  1
  O  O125  1  0.72601821  0.32422687  0.14817213  1
  O  O126  1  0.23918824  0.30100562  0.02912938  1
  O  O127  1  0.74090427  0.30414270  0.03103167  1
  O  O128  1  0.43395718  0.55586767  0.03105218  1
  O  O129  1  0.93324351  0.55256605  0.02952188  1
  O  O130  1  0.34793817  0.14894730  0.02829129  1
  O  O131  1  0.84819424  0.14304730  0.02548201  1
  O  O132  1  0.24184299  0.17494383  0.52949514  1
  O  O133  1  0.74133475  0.19028917  0.53109143  1
  O  O134  1  0.34750290  0.55121037  0.52460486  1
  O  O135  1  0.84754358  0.54645958  0.51986594  1
  O  O136  1  0.43385131  0.31547989  0.52872050  1
  O  O137  1  0.93321922  0.31023378  0.52571350  1
  O  O138  1  0.27325859  0.66687619  0.97224520  1
  O  O139  1  0.77393298  0.67272752  0.97179574  1
  O  O140  1  0.07969692  0.44947449  0.96962693  1
  O  O141  1  0.56980938  0.46718374  0.97205458  1
  O  O142  1  0.15162669  0.84179080  0.97025322  1
  O  O143  1  0.66624709  0.85496758  0.97225574  1
  O  O144  1  0.27514456  0.88027906  0.47058055  1
  O  O145  1  0.77527739  0.87827700  0.47250227  1
  O  O146  1  0.16315506  0.47372670  0.47141404  1
  O  O147  1  0.66045194  0.45752861  0.47860412  1
  O  O148  1  0.06418246  0.67637457  0.47873140  1
  O  O149  1  0.56739803  0.68161713  0.47136601  1
  O  O150  1  0.07291059  0.63383280  0.36127931  1
  O  O151  1  0.56583090  0.62988646  0.35614778  1
  O  O152  1  0.26273322  0.89165284  0.36424095  1
  O  O153  1  0.75947200  0.87494367  0.36611021  1
  O  O154  1  0.18161392  0.48560170  0.35573254  1
  O  O155  1  0.67712068  0.49011093  0.36022885  1
  O  O156  1  0.07070259  0.51597596  0.85951820  1
  O  O157  1  0.56602845  0.50823641  0.85699591  1
  O  O158  1  0.17773374  0.87633675  0.85386866  1
  O  O159  1  0.68193536  0.87628239  0.85638938  1
  O  O160  1  0.26101916  0.63722197  0.86566180  1
  O  O161  1  0.76314418  0.63396801  0.86536773  1
  O  O162  1  0.99404461  0.80220522  0.41322024  1
  O  O163  1  0.48893639  0.79962953  0.41149846  1
  O  O164  1  0.39795278  0.99856846  0.41104057  1
  O  O165  1  0.89612695  0.98718438  0.41115665  1
  O  O166  1  0.08456246  0.18582517  0.41585379  1
  O  O167  1  0.58448869  0.18485279  0.41586088  1
  O  O168  1  0.99666858  0.18708981  0.90981522  1
  O  O169  1  0.49496812  0.18942333  0.91323910  1
  O  O170  1  0.09228983  0.00927433  0.91377753  1
  O  O171  1  0.58488316  0.98295072  0.91593048  1
  O  O172  1  0.39754864  0.78398813  0.91278828  1
  O  O173  1  0.89856158  0.79670946  0.91289666  1
  O  O174  1  0.48532783  0.15787608  0.58162310  1
  O  O175  1  0.98195719  0.15992527  0.58309588  1
  O  O176  1  0.08746485  0.03197720  0.59166882  1
  O  O177  1  0.59051092  0.04114529  0.59157986  1
  O  O178  1  0.42222062  0.80068320  0.58267313  1
  O  O179  1  0.92470980  0.81546975  0.58989796  1
  O  O180  1  0.48233872  0.81361052  0.08440438  1
  O  O181  1  0.98242660  0.81086520  0.08262852  1
  O  O182  1  0.42066553  0.03992781  0.08396337  1
  O  O183  1  0.92122435  0.03961545  0.08395734  1
  O  O184  1  0.08631162  0.14265826  0.09246335  1
  O  O185  1  0.58587895  0.14217564  0.09262770  1
  O  O186  1  0.33119977  0.14080690  0.74136593  1
  O  O187  1  0.82435929  0.13037461  0.74585484  1
  O  O188  1  0.23038738  0.32703878  0.74210292  1
  O  O189  1  0.72699999  0.32150947  0.74271164  1
  O  O190  1  0.42882153  0.50712721  0.74736180  1
  O  O191  1  0.92467897  0.51258026  0.74886944  1
  O  O192  1  0.33157484  0.52256059  0.24293171  1
  O  O193  1  0.83246897  0.52396923  0.24200967  1
  O  O194  1  0.42802543  0.34907122  0.24651046  1
  O  O195  1  0.92786524  0.34837785  0.24715044  1
  O  O196  1  0.23219473  0.12766337  0.24014575  1
  O  O197  1  0.73225112  0.12695763  0.23991901  1
  O  O198  1  0.31092176  0.48290381  0.91952139  1
  O  O199  1  0.82132652  0.49669866  0.92254807  1
  O  O200  1  0.42260908  0.38003044  0.92673129  1
  O  O201  1  0.92525498  0.37527269  0.92693396  1
  O  O202  1  0.25723942  0.15012928  0.92356146  1
  O  O203  1  0.75761980  0.15278933  0.92371524  1
  O  O204  1  0.32141748  0.14673247  0.42010781  1
  O  O205  1  0.82071248  0.13892703  0.41778957  1
  O  O206  1  0.25664004  0.36176000  0.42305394  1
  O  O207  1  0.75800371  0.36753095  0.42009335  1
  O  O208  1  0.42110882  0.46983726  0.42417606  1
  O  O209  1  0.92385395  0.47024661  0.42272716  1
  O  O210  1  0.16922150  0.47983859  0.08270057  1
  O  O211  1  0.66911771  0.47903139  0.08451829  1
  O  O212  1  0.06588403  0.67256852  0.08027069  1
  O  O213  1  0.56722835  0.67856766  0.08169749  1
  O  O214  1  0.26874622  0.87273456  0.07693438  1
  O  O215  1  0.76950379  0.87114991  0.07786933  1
  O  O216  1  0.16227970  0.85246909  0.58217516  1
  O  O217  1  0.67629229  0.86933444  0.57947751  1
  O  O218  1  0.27025639  0.66881939  0.57717792  1
  O  O219  1  0.75776956  0.67379092  0.57986983  1
  O  O220  1  0.06567108  0.46618708  0.57740512  1
  O  O221  1  0.56629771  0.45886992  0.58092931  1
  O  O222  1  0.14453142  0.82403171  0.24920741  1
  O  O223  1  0.64499822  0.82424423  0.24881213  1
  O  O224  1  0.25645969  0.70369442  0.25894256  1
  O  O225  1  0.75647690  0.70216713  0.25940415  1
  O  O226  1  0.09344603  0.48292604  0.25449833  1
  O  O227  1  0.59418234  0.48221060  0.25412559  1
  O  O228  1  0.15088797  0.47237210  0.74907102  1
  O  O229  1  0.64267980  0.45873326  0.74815671  1
  O  O230  1  0.09503361  0.70697182  0.75186819  1
  O  O231  1  0.59439776  0.70657834  0.75336550  1
  O  O232  1  0.25812877  0.81172010  0.75799583  1
  O  O233  1  0.75432861  0.80040913  0.75820375  1
