# generated using pymatgen
data_Na6Zn7Ge(SO4)12
_symmetry_space_group_name_H-M   'P 1'
_cell_length_a   17.42446577
_cell_length_b   8.70940711
_cell_length_c   22.44667056
_cell_angle_alpha   89.96762181
_cell_angle_beta   90.00676428
_cell_angle_gamma   119.97747726
_symmetry_Int_Tables_number   1
_chemical_formula_structural   Na6Zn7Ge(SO4)12
_chemical_formula_sum   'Na18 Zn21 Ge3 S36 O144'
_cell_volume   2950.72726976
_cell_formula_units_Z   3
loop_
 _symmetry_equiv_pos_site_id
 _symmetry_equiv_pos_as_xyz
  1  'x, y, z'
loop_
 _atom_site_type_symbol
 _atom_site_label
 _atom_site_symmetry_multiplicity
 _atom_site_fract_x
 _atom_site_fract_y
 _atom_site_fract_z
 _atom_site_occupancy
  Na  Na0  1  0.31931268  0.63808859  0.74963511  1
  Na  Na1  1  0.65104964  0.33357985  0.58417651  1
  Na  Na2  1  0.98617120  0.66719005  0.91745573  1
  Na  Na3  1  0.66572798  0.30218551  0.91570934  1
  Na  Na4  1  0.16676814  0.02962720  0.41724514  1
  Na  Na5  1  0.66657090  0.02940620  0.41711667  1
  Na  Na6  1  0.99546535  0.00175454  0.49857167  1
  Na  Na7  1  0.48767041  0.98486014  0.50085040  1
  Na  Na8  1  0.00233488  0.01374387  0.99977053  1
  Na  Na9  1  0.49266020  0.98759110  0.99811420  1
  Na  Na10  1  0.33657154  0.32610253  0.83588377  1
  Na  Na11  1  0.83170740  0.31982728  0.82994482  1
  Na  Na12  1  0.33905298  0.34372661  0.33272941  1
  Na  Na13  1  0.83954280  0.34404056  0.33245392  1
  Na  Na14  1  0.16732611  0.66679990  0.16629840  1
  Na  Na15  1  0.66617142  0.66626363  0.16640359  1
  Na  Na16  1  0.16472682  0.67040302  0.66426125  1
  Na  Na17  1  0.66420530  0.67439918  0.66892310  1
  Zn  Zn18  1  0.99646828  0.99938940  0.35052630  1
  Zn  Zn19  1  0.49558375  0.99867518  0.35052910  1
  Zn  Zn20  1  0.00123688  0.00807963  0.85054250  1
  Zn  Zn21  1  0.49645083  0.99512256  0.84879070  1
  Zn  Zn22  1  0.49676330  0.99323170  0.65136045  1
  Zn  Zn23  1  0.33706303  0.33158152  0.68065018  1
  Zn  Zn24  1  0.83148226  0.32968510  0.68410943  1
  Zn  Zn25  1  0.33339118  0.33318950  0.18228406  1
  Zn  Zn26  1  0.83329136  0.33319166  0.18292483  1
  Zn  Zn27  1  0.33365340  0.33699690  0.98455011  1
  Zn  Zn28  1  0.83318087  0.32109550  0.98752263  1
  Zn  Zn29  1  0.33626655  0.34141069  0.48518747  1
  Zn  Zn30  1  0.84081506  0.34017083  0.48525134  1
  Zn  Zn31  1  0.16990772  0.66812672  0.01647784  1
  Zn  Zn32  1  0.66429421  0.66781544  0.01669536  1
  Zn  Zn33  1  0.16821787  0.66243600  0.51682767  1
  Zn  Zn34  1  0.66524581  0.67101120  0.51472917  1
  Zn  Zn35  1  0.16699587  0.66396504  0.31621714  1
  Zn  Zn36  1  0.66665131  0.66405640  0.31537196  1
  Zn  Zn37  1  0.16717959  0.67281081  0.81884912  1
  Zn  Zn38  1  0.66453760  0.66494683  0.81602410  1
  Ge  Ge39  1  0.00064904  0.00273944  0.65062456  1
  Ge  Ge40  1  0.00051011  0.00153738  0.15077689  1
  Ge  Ge41  1  0.49874030  0.99906435  0.15035266  1
  S  S42  1  0.14530385  0.00011298  0.24972223  1
  S  S43  1  0.64505561  0.00036259  0.24963324  1
  S  S44  1  0.35483229  0.70914734  0.24890694  1
  S  S45  1  0.85541940  0.71046539  0.24879451  1
  S  S46  1  0.99995328  0.29028034  0.24891011  1
  S  S47  1  0.49999518  0.28980565  0.24876566  1
  S  S48  1  0.14492323  0.28945461  0.74888995  1
  S  S49  1  0.64873517  0.29718190  0.75006187  1
  S  S50  1  0.99971785  0.71012831  0.74946461  1
  S  S51  1  0.50148800  0.70502234  0.74979305  1
  S  S52  1  0.35137956  0.00232177  0.75030998  1
  S  S53  1  0.85599718  0.00053317  0.74885151  1
  S  S54  1  0.48132158  0.33335713  0.58281194  1
  S  S55  1  0.98136234  0.32827062  0.58658970  1
  S  S56  1  0.18113047  0.03479260  0.58547157  1
  S  S57  1  0.68644236  0.03686111  0.58261464  1
  S  S58  1  0.33277876  0.62975912  0.58462787  1
  S  S59  1  0.83718157  0.63516664  0.58567612  1
  S  S60  1  0.48142709  0.63497512  0.08599142  1
  S  S61  1  0.98208132  0.63575228  0.08492545  1
  S  S62  1  0.33576195  0.03785087  0.08567140  1
  S  S63  1  0.83581201  0.03540685  0.08624360  1
  S  S64  1  0.18272360  0.32794784  0.08591110  1
  S  S65  1  0.68209199  0.32836475  0.08512037  1
  S  S66  1  0.31473158  0.66519843  0.91593242  1
  S  S67  1  0.81406907  0.66952598  0.91741309  1
  S  S68  1  0.01978151  0.37132686  0.91713373  1
  S  S69  1  0.51809931  0.37244289  0.91718533  1
  S  S70  1  0.16805234  0.96460286  0.91730170  1
  S  S71  1  0.66710472  0.96068986  0.91665386  1
  S  S72  1  0.31424623  0.96101666  0.41693351  1
  S  S73  1  0.81456413  0.95999607  0.41651051  1
  S  S74  1  0.16674680  0.37222393  0.41635493  1
  S  S75  1  0.66731287  0.37257036  0.41732152  1
  S  S76  1  0.01921998  0.66336400  0.41664453  1
  S  S77  1  0.51814841  0.66407926  0.41524990  1
  O  O78  1  0.10586682  0.02510261  0.30409736  1
  O  O79  1  0.60588590  0.02537353  0.30416824  1
  O  O80  1  0.40873018  0.78950763  0.30183637  1
  O  O81  1  0.90899736  0.79027303  0.30177928  1
  O  O82  1  0.48727559  0.18323549  0.30190724  1
  O  O83  1  0.98681324  0.18311460  0.30184290  1
  O  O84  1  0.10506916  0.18262136  0.80169325  1
  O  O85  1  0.60778372  0.19183045  0.80475684  1
  O  O86  1  0.48495931  0.78419111  0.80310490  1
  O  O87  1  0.98733371  0.78858861  0.80415924  1
  O  O88  1  0.40402641  0.02702736  0.80442732  1
  O  O89  1  0.90939332  0.02604123  0.80194524  1
  O  O90  1  0.39080552  0.96862935  0.69680430  1
  O  O91  1  0.89875766  0.96998104  0.69284221  1
  O  O92  1  0.08773738  0.20577414  0.69317853  1
  O  O93  1  0.59663430  0.21568855  0.69501850  1
  O  O94  1  0.01487111  0.82916735  0.69444306  1
  O  O95  1  0.51351886  0.81011227  0.69541094  1
  O  O96  1  0.39725512  0.82570063  0.19287582  1
  O  O97  1  0.89795040  0.82685092  0.19279813  1
  O  O98  1  0.01514617  0.20504867  0.19281018  1
  O  O99  1  0.51525827  0.20409248  0.19278406  1
  O  O100  1  0.08595215  0.96987549  0.19457795  1
  O  O101  1  0.58594767  0.97084238  0.19459618  1
  O  O102  1  0.44278567  0.36020725  0.63713239  1
  O  O103  1  0.94037967  0.35372055  0.63958874  1
  O  O104  1  0.23548399  0.12024660  0.63795977  1
  O  O105  1  0.74061596  0.12188426  0.63560678  1
  O  O106  1  0.32044638  0.52680200  0.64031136  1
  O  O107  1  0.82174573  0.52431277  0.63823483  1
  O  O108  1  0.44117861  0.52869936  0.13974267  1
  O  O109  1  0.93927386  0.52533647  0.13738108  1
  O  O110  1  0.32291997  0.11754852  0.13961545  1
  O  O111  1  0.82280900  0.11789909  0.13940999  1
  O  O112  1  0.23556318  0.35341644  0.13970330  1
  O  O113  1  0.73717530  0.35271197  0.13754171  1
  O  O114  1  0.21900650  0.29266792  0.03200992  1
  O  O115  1  0.71769407  0.29547123  0.02949177  1
  O  O116  1  0.42795566  0.56291371  0.03204654  1
  O  O117  1  0.92982602  0.56539595  0.02941809  1
  O  O118  1  0.35262776  0.14522565  0.03186128  1
  O  O119  1  0.85390599  0.14240970  0.03186459  1
  O  O120  1  0.21537910  0.13718684  0.52964181  1
  O  O121  1  0.72590867  0.14784455  0.52760676  1
  O  O122  1  0.34453879  0.54423058  0.53137943  1
  O  O123  1  0.85391027  0.56295575  0.53118503  1
  O  O124  1  0.42776523  0.30670150  0.52903828  1
  O  O125  1  0.92818687  0.29148597  0.53188589  1
  O  O126  1  0.27211990  0.69106937  0.96873903  1
  O  O127  1  0.77387424  0.69314289  0.97154092  1
  O  O128  1  0.07216299  0.45332032  0.97118849  1
  O  O129  1  0.57511857  0.45132686  0.97043588  1
  O  O130  1  0.15026497  0.84916234  0.97005393  1
  O  O131  1  0.65523318  0.85792836  0.97111860  1
  O  O132  1  0.27351600  0.85542462  0.47107019  1
  O  O133  1  0.77404275  0.85425028  0.47089251  1
  O  O134  1  0.15320328  0.45063181  0.47018248  1
  O  O135  1  0.65543322  0.44944248  0.47315458  1
  O  O136  1  0.07510680  0.69578479  0.46995399  1
  O  O137  1  0.57388951  0.69836018  0.46903762  1
  O  O138  1  0.05900507  0.63912809  0.36185670  1
  O  O139  1  0.55955801  0.64056238  0.36124992  1
  O  O140  1  0.25848261  0.88268631  0.36299557  1
  O  O141  1  0.75832149  0.88101607  0.36299684  1
  O  O142  1  0.17972223  0.47676715  0.36179912  1
  O  O143  1  0.67934030  0.48033664  0.36410851  1
  O  O144  1  0.05860576  0.48241354  0.86295619  1
  O  O145  1  0.55853195  0.47791938  0.86285232  1
  O  O146  1  0.17958441  0.88502780  0.86229869  1
  O  O147  1  0.68125459  0.88246809  0.86255515  1
  O  O148  1  0.26344632  0.63900639  0.85965385  1
  O  O149  1  0.75935358  0.63792458  0.86360662  1
  O  O150  1  0.01196342  0.82859982  0.41154363  1
  O  O151  1  0.51151291  0.82976370  0.41032880  1
  O  O152  1  0.40335112  0.98136478  0.41141819  1
  O  O153  1  0.90352845  0.98024475  0.41130384  1
  O  O154  1  0.08741495  0.18875444  0.41163129  1
  O  O155  1  0.58781559  0.19039951  0.41243164  1
  O  O156  1  0.00884124  0.19295872  0.91151493  1
  O  O157  1  0.51148202  0.19366765  0.91181025  1
  O  O158  1  0.08482329  0.97748511  0.91204115  1
  O  O159  1  0.58827340  0.98530347  0.91163225  1
  O  O160  1  0.40397751  0.82635545  0.91152194  1
  O  O161  1  0.90519787  0.82429035  0.91188813  1
  O  O162  1  0.49343259  0.17489423  0.58762263  1
  O  O163  1  0.98927031  0.15822078  0.59305110  1
  O  O164  1  0.08859217  0.02033816  0.59265961  1
  O  O165  1  0.59772267  0.02450252  0.58761832  1
  O  O166  1  0.41343076  0.80805496  0.58832637  1
  O  O167  1  0.91998643  0.81928906  0.59274026  1
  O  O168  1  0.48965281  0.82086220  0.09274992  1
  O  O169  1  0.98944985  0.81968268  0.09216772  1
  O  O170  1  0.42088608  0.02225949  0.09221640  1
  O  O171  1  0.92065767  0.02098324  0.09279655  1
  O  O172  1  0.08978382  0.15762427  0.09264946  1
  O  O173  1  0.59045204  0.15889609  0.09213695  1
  O  O174  1  0.34023390  0.15853548  0.74424472  1
  O  O175  1  0.84872303  0.16081760  0.74182221  1
  O  O176  1  0.23419588  0.31138386  0.74167510  1
  O  O177  1  0.73830765  0.31330714  0.74588592  1
  O  O178  1  0.41845990  0.52598438  0.74497802  1
  O  O179  1  0.91994952  0.53598532  0.74167583  1
  O  O180  1  0.34673563  0.53378090  0.24144264  1
  O  O181  1  0.84724025  0.53476264  0.24122589  1
  O  O182  1  0.42017688  0.30550635  0.24153717  1
  O  O183  1  0.92000013  0.30615162  0.24155808  1
  O  O184  1  0.23259505  0.16040896  0.24191821  1
  O  O185  1  0.73255721  0.16098832  0.24193632  1
  O  O186  1  0.32306567  0.50369639  0.92194360  1
  O  O187  1  0.82344973  0.50575024  0.92254674  1
  O  O188  1  0.42921193  0.35249945  0.92373740  1
  O  O189  1  0.93006803  0.35864070  0.92233303  1
  O  O190  1  0.24671881  0.14171749  0.92355690  1
  O  O191  1  0.74699869  0.14528683  0.92166468  1
  O  O192  1  0.32098062  0.13992202  0.42242717  1
  O  O193  1  0.82139849  0.13890977  0.42182485  1
  O  O194  1  0.24595796  0.34750683  0.42127214  1
  O  O195  1  0.74685744  0.34888882  0.42157609  1
  O  O196  1  0.42918837  0.50640959  0.42110151  1
  O  O197  1  0.92966750  0.50555066  0.42244512  1
  O  O198  1  0.16935364  0.48153525  0.07968045  1
  O  O199  1  0.66991478  0.48303051  0.07954318  1
  O  O200  1  0.07173716  0.66027066  0.07925215  1
  O  O201  1  0.57153436  0.66079168  0.08008844  1
  O  O202  1  0.25884193  0.85712330  0.07981433  1
  O  O203  1  0.75871787  0.85627337  0.07991260  1
  O  O204  1  0.16815208  0.85495796  0.58013233  1
  O  O205  1  0.67667462  0.85910551  0.57739648  1
  O  O206  1  0.25226674  0.64790946  0.57956057  1
  O  O207  1  0.75755255  0.65428346  0.57942390  1
  O  O208  1  0.07085866  0.48248496  0.58006139  1
  O  O209  1  0.57297904  0.49227062  0.57782189  1
  O  O210  1  0.15218511  0.83829128  0.25168373  1
  O  O211  1  0.65229580  0.83896074  0.25153249  1
  O  O212  1  0.26704468  0.69616128  0.25173263  1
  O  O213  1  0.76746016  0.69689356  0.25149459  1
  O  O214  1  0.08081830  0.46592126  0.25136955  1
  O  O215  1  0.58110736  0.46524438  0.25110832  1
  O  O216  1  0.15387893  0.46806517  0.75163967  1
  O  O217  1  0.65821302  0.47630645  0.75441103  1
  O  O218  1  0.08062834  0.69613797  0.75151690  1
  O  O219  1  0.58061274  0.68542235  0.75514820  1
  O  O220  1  0.26201763  0.83468507  0.75524560  1
  O  O221  1  0.76814040  0.83936429  0.75137366  1
