# generated using pymatgen
data_CaPbO3
_symmetry_space_group_name_H-M   'P 1'
_cell_length_a   5.67798819
_cell_length_b   5.92801194
_cell_length_c   8.17824295
_cell_angle_alpha   90.00000000
_cell_angle_beta   90.00000000
_cell_angle_gamma   90.00000000
_symmetry_Int_Tables_number   1
_chemical_formula_structural   CaPbO3
_chemical_formula_sum   'Ca4 Pb4 O12'
_cell_volume   275.27296614
_cell_formula_units_Z   4
loop_
 _symmetry_equiv_pos_site_id
 _symmetry_equiv_pos_as_xyz
  1  'x, y, z'
loop_
 _atom_site_type_symbol
 _atom_site_label
 _atom_site_symmetry_multiplicity
 _atom_site_fract_x
 _atom_site_fract_y
 _atom_site_fract_z
 _atom_site_occupancy
  Ca  Ca0  1  0.98200795  0.06071201  0.25000000  1
  Ca  Ca1  1  0.48200795  0.43928799  0.75000000  1
  Ca  Ca2  1  0.51799205  0.56071201  0.25000000  1
  Ca  Ca3  1  0.01799205  0.93928799  0.75000000  1
  Pb  Pb4  1  0.50000000  0.00000000  -0.00000000  1
  Pb  Pb5  1  0.00000000  0.50000000  -0.00000000  1
  Pb  Pb6  1  0.00000000  0.50000000  0.50000000  1
  Pb  Pb7  1  0.50000000  0.00000000  0.50000000  1
  O  O8  1  0.68999406  0.30473324  0.43403992  1
  O  O9  1  0.18999406  0.19526676  0.56596008  1
  O  O10  1  0.81000594  0.80473324  0.06596008  1
  O  O11  1  0.31000594  0.69526676  0.93403992  1
  O  O12  1  0.31000594  0.69526676  0.56596008  1
  O  O13  1  0.81000594  0.80473324  0.43403992  1
  O  O14  1  0.18999406  0.19526676  0.93403992  1
  O  O15  1  0.68999406  0.30473324  0.06596008  1
  O  O16  1  0.12623130  0.43997373  0.25000000  1
  O  O17  1  0.62623130  0.06002627  0.75000000  1
  O  O18  1  0.37376870  0.93997373  0.25000000  1
  O  O19  1  0.87376870  0.56002627  0.75000000  1
