# generated using pymatgen
data_Na2ZnSiGe(SO6)2
_symmetry_space_group_name_H-M   'P 1'
_cell_length_a   8.77060111
_cell_length_b   8.77469148
_cell_length_c   22.04053539
_cell_angle_alpha   90.49628151
_cell_angle_beta   90.00000000
_cell_angle_gamma   119.98458093
_symmetry_Int_Tables_number   1
_chemical_formula_structural   Na2ZnSiGe(SO6)2
_chemical_formula_sum   'Na12 Zn6 Si6 Ge6 S12 O72'
_cell_volume   1469.12830878
_cell_formula_units_Z   6
loop_
 _symmetry_equiv_pos_site_id
 _symmetry_equiv_pos_as_xyz
  1  'x, y, z'
loop_
 _atom_site_type_symbol
 _atom_site_label
 _atom_site_symmetry_multiplicity
 _atom_site_fract_x
 _atom_site_fract_y
 _atom_site_fract_z
 _atom_site_occupancy
  Na  Na0  1  0.99612649  0.63256713  0.24149850  1
  Na  Na1  1  0.63644064  0.63256713  0.74149850  1
  Na  Na2  1  0.65785372  0.95889490  0.57996639  1
  Na  Na3  1  0.30104218  0.95889490  0.07996639  1
  Na  Na4  1  0.69847949  0.03047021  0.91024775  1
  Na  Na5  1  0.33198973  0.03047021  0.41024775  1
  Na  Na6  1  0.98358638  0.99363711  0.49582291  1
  Na  Na7  1  0.01005073  0.99363711  0.99582291  1
  Na  Na8  1  0.66272639  0.31746545  0.82877664  1
  Na  Na9  1  0.65474006  0.31746545  0.32877664  1
  Na  Na10  1  0.33013037  0.65418206  0.16221555  1
  Na  Na11  1  0.32405069  0.65418206  0.66221555  1
  Zn  Zn12  1  0.99938520  0.00753426  0.35180720  1
  Zn  Zn13  1  0.00814907  0.00753426  0.85180720  1
  Zn  Zn14  1  0.66492260  0.32239525  0.68455824  1
  Zn  Zn15  1  0.65747365  0.32239525  0.18455824  1
  Zn  Zn16  1  0.31030965  0.66963267  0.01867826  1
  Zn  Zn17  1  0.35932202  0.66963267  0.51867826  1
  Si  Si18  1  0.29649347  0.00371708  0.25428293  1
  Si  Si19  1  0.70722361  0.00371708  0.75428293  1
  Si  Si20  1  0.66997024  0.61784077  0.58811846  1
  Si  Si21  1  0.94787153  0.61784077  0.08811846  1
  Si  Si22  1  0.33364501  0.97445894  0.92237898  1
  Si  Si23  1  0.64081292  0.97445894  0.42237898  1
  Ge  Ge24  1  0.98426382  0.97824272  0.65018965  1
  Ge  Ge25  1  0.99397890  0.97824272  0.15018965  1
  Ge  Ge26  1  0.65947991  0.34273845  0.98228807  1
  Ge  Ge27  1  0.68325953  0.34273845  0.48228807  1
  Ge  Ge28  1  0.35087516  0.69906210  0.31662572  1
  Ge  Ge29  1  0.34818595  0.69906210  0.81662572  1
  S  S30  1  0.69935696  0.71159932  0.25204279  1
  S  S31  1  0.01058081  0.29243559  0.24977484  1
  S  S32  1  0.28185478  0.29243559  0.74977484  1
  S  S33  1  0.01224236  0.71159932  0.75204279  1
  S  S34  1  0.96362239  0.33201677  0.58378380  1
  S  S35  1  0.35901494  0.03962264  0.58337834  1
  S  S36  1  0.68060870  0.03962264  0.08337834  1
  S  S37  1  0.36839538  0.33201677  0.08378380  1
  S  S38  1  0.61508479  0.65593317  0.91776112  1
  S  S39  1  0.04464200  0.38657071  0.91530662  1
  S  S40  1  0.34192771  0.38657071  0.41530662  1
  S  S41  1  0.04084738  0.65593317  0.41776112  1
  O  O42  1  0.20575032  0.01454548  0.31541794  1
  O  O43  1  0.80769461  0.79552437  0.30483448  1
  O  O44  1  0.98638281  0.19282140  0.30397495  1
  O  O45  1  0.20643859  0.19282140  0.80397495  1
  O  O46  1  0.98782977  0.79552437  0.80483448  1
  O  O47  1  0.80879516  0.01454548  0.81541794  1
  O  O48  1  0.79682535  0.95494673  0.69254388  1
  O  O49  1  0.17271035  0.20354835  0.69294184  1
  O  O50  1  0.04728874  0.82063992  0.69468447  1
  O  O51  1  0.77335118  0.82063992  0.19468447  1
  O  O52  1  0.03083800  0.20354835  0.19294184  1
  O  O53  1  0.15812138  0.95494673  0.19254388  1
  O  O54  1  0.88559951  0.35539773  0.63853668  1
  O  O55  1  0.47692042  0.11752307  0.63533181  1
  O  O56  1  0.65623639  0.51735184  0.64917534  1
  O  O57  1  0.86111645  0.51735184  0.14917534  1
  O  O58  1  0.64060365  0.11752307  0.13533181  1
  O  O59  1  0.46979922  0.35539773  0.13853668  1
  O  O60  1  0.44776359  0.28665896  0.02838644  1
  O  O61  1  0.81999775  0.52196179  0.02535490  1
  O  O62  1  0.70679869  0.14324208  0.02609169  1
  O  O63  1  0.43644439  0.14324208  0.52609169  1
  O  O64  1  0.70196504  0.52196179  0.52535490  1
  O  O65  1  0.83889637  0.28665896  0.52838644  1
  O  O66  1  0.52480480  0.67406017  0.96979723  1
  O  O67  1  0.14575707  0.46081607  0.97033148  1
  O  O68  1  0.31877095  0.87331069  0.98327661  1
  O  O69  1  0.55453873  0.87331069  0.48327661  1
  O  O70  1  0.31505800  0.46081607  0.47033148  1
  O  O71  1  0.14925437  0.67406017  0.46979723  1
  O  O72  1  0.11418004  0.62665343  0.35818770  1
  O  O73  1  0.49404437  0.88168140  0.36303775  1
  O  O74  1  0.36331876  0.49564904  0.35901677  1
  O  O75  1  0.13232928  0.49564904  0.85901677  1
  O  O76  1  0.38763603  0.88168140  0.86303775  1
  O  O77  1  0.51247240  0.62665343  0.85818770  1
  O  O78  1  0.02062199  0.81179128  0.41407185  1
  O  O79  1  0.82979929  0.99818232  0.41099543  1
  O  O80  1  0.19249630  0.20620816  0.41063016  1
  O  O81  1  0.01371186  0.20620816  0.91063016  1
  O  O82  1  0.16838303  0.99818232  0.91099543  1
  O  O83  1  0.79116929  0.81179128  0.91407185  1
  O  O84  1  0.97417024  0.16504045  0.58679798  1
  O  O85  1  0.18755007  0.04050491  0.59089401  1
  O  O86  1  0.85449817  0.82368876  0.58905679  1
  O  O87  1  0.96919059  0.82368876  0.08905679  1
  O  O88  1  0.85295484  0.04050491  0.09089401  1
  O  O89  1  0.19087021  0.16504045  0.08679798  1
  O  O90  1  0.67641614  0.16593646  0.74409130  1
  O  O91  1  0.46237802  0.32184204  0.74476820  1
  O  O92  1  0.85685947  0.53684793  0.74551360  1
  O  O93  1  0.67998945  0.53684793  0.24551360  1
  O  O94  1  0.85946502  0.32184204  0.24476820  1
  O  O95  1  0.48952133  0.16593646  0.24409130  1
  O  O96  1  0.63104102  0.49193990  0.91993561  1
  O  O97  1  0.86635326  0.37472511  0.91749449  1
  O  O98  1  0.53114627  0.16811293  0.92687602  1
  O  O99  1  0.63696766  0.16811293  0.42687602  1
  O  O100  1  0.50837285  0.37472511  0.41749449  1
  O  O101  1  0.86089988  0.49193990  0.41993561  1
  O  O102  1  0.35235122  0.48610168  0.07367556  1
  O  O103  1  0.14760318  0.65509485  0.08375655  1
  O  O104  1  0.53401956  0.85807352  0.07737432  1
  O  O105  1  0.32405296  0.85807352  0.57737432  1
  O  O106  1  0.50749067  0.65509485  0.58375655  1
  O  O107  1  0.13374946  0.48610168  0.57367556  1
  O  O108  1  0.29801018  0.80775956  0.25579676  1
  O  O109  1  0.51911913  0.69523684  0.25584627  1
  O  O110  1  0.17710088  0.47026347  0.25200036  1
  O  O111  1  0.29316160  0.47026347  0.75200036  1
  O  O112  1  0.17611671  0.69523684  0.75584627  1
  O  O113  1  0.50974838  0.80775956  0.75579676  1
