# generated using pymatgen
data_Na6Sc5Nb3(PO4)12
_symmetry_space_group_name_H-M   'P 1'
_cell_length_a   17.76015691
_cell_length_b   8.87967681
_cell_length_c   22.91515134
_cell_angle_alpha   90.03732066
_cell_angle_beta   89.98041796
_cell_angle_gamma   119.97575463
_symmetry_Int_Tables_number   1
_chemical_formula_structural   Na6Sc5Nb3(PO4)12
_chemical_formula_sum   'Na18 Sc15 Nb9 P36 O144'
_cell_volume   3130.42482276
_cell_formula_units_Z   3
loop_
 _symmetry_equiv_pos_site_id
 _symmetry_equiv_pos_as_xyz
  1  'x, y, z'
loop_
 _atom_site_type_symbol
 _atom_site_label
 _atom_site_symmetry_multiplicity
 _atom_site_fract_x
 _atom_site_fract_y
 _atom_site_fract_z
 _atom_site_occupancy
  Na  Na0  1  0.68334298  0.36727651  0.24949280  1
  Na  Na1  1  0.99997476  0.63254295  0.24959353  1
  Na  Na2  1  0.99947687  0.36569549  0.74810341  1
  Na  Na3  1  0.49951431  0.36571810  0.74824090  1
  Na  Na4  1  0.18295450  0.99874902  0.74811168  1
  Na  Na5  1  0.68287399  0.99868663  0.74831266  1
  Na  Na6  1  0.00009911  0.99964605  0.50366856  1
  Na  Na7  1  0.49989659  0.00006831  0.50377380  1
  Na  Na8  1  0.99909023  0.99848525  0.00432172  1
  Na  Na9  1  0.50094536  0.00188053  0.00397457  1
  Na  Na10  1  0.33323044  0.33996699  0.83554356  1
  Na  Na11  1  0.83285800  0.33950784  0.83607121  1
  Na  Na12  1  0.33323580  0.33343594  0.33773038  1
  Na  Na13  1  0.83313854  0.32582522  0.33622883  1
  Na  Na14  1  0.16937718  0.66569275  0.16932290  1
  Na  Na15  1  0.66754325  0.67544433  0.16902498  1
  Na  Na16  1  0.17032497  0.66616752  0.66565144  1
  Na  Na17  1  0.67026112  0.66602922  0.66581947  1
  Sc  Sc18  1  0.99916716  0.99888314  0.64449709  1
  Sc  Sc19  1  0.49906851  0.99866652  0.64459679  1
  Sc  Sc20  1  0.99842427  0.00045214  0.14663253  1
  Sc  Sc21  1  0.50078216  0.99937807  0.14668447  1
  Sc  Sc22  1  0.33296682  0.34007024  0.68142196  1
  Sc  Sc23  1  0.83293169  0.34006112  0.68143395  1
  Sc  Sc24  1  0.83290267  0.32386068  0.18377232  1
  Sc  Sc25  1  0.33372559  0.33317340  0.98026277  1
  Sc  Sc26  1  0.83314511  0.33275177  0.98181336  1
  Sc  Sc27  1  0.33322466  0.33301650  0.48149541  1
  Sc  Sc28  1  0.83359148  0.33408484  0.48120230  1
  Sc  Sc29  1  0.16992948  0.66618197  0.31525505  1
  Sc  Sc30  1  0.66625688  0.67331687  0.31546708  1
  Sc  Sc31  1  0.16972955  0.66612064  0.81642618  1
  Sc  Sc32  1  0.66931868  0.66616757  0.81661689  1
  Nb  Nb33  1  0.00015764  0.00297701  0.35519512  1
  Nb  Nb34  1  0.49953622  0.99805326  0.35535657  1
  Nb  Nb35  1  0.99947505  0.99851177  0.85516274  1
  Nb  Nb36  1  0.49980956  0.99877433  0.85534069  1
  Nb  Nb37  1  0.33347904  0.33557474  0.18684396  1
  Nb  Nb38  1  0.16609916  0.66698929  0.02159385  1
  Nb  Nb39  1  0.66742929  0.66605373  0.02165841  1
  Nb  Nb40  1  0.16654511  0.66699391  0.52082428  1
  Nb  Nb41  1  0.66658472  0.66689541  0.52106711  1
  P  P42  1  0.14444487  0.00053234  0.24919923  1
  P  P43  1  0.64430149  0.99711976  0.24948984  1
  P  P44  1  0.35567822  0.71332618  0.24878431  1
  P  P45  1  0.85418160  0.71143294  0.24971912  1
  P  P46  1  0.00061979  0.29063436  0.24949415  1
  P  P47  1  0.49957819  0.28831279  0.24940903  1
  P  P48  1  0.14497326  0.29044075  0.74986384  1
  P  P49  1  0.64501289  0.29058600  0.74984517  1
  P  P50  1  0.99909364  0.70921379  0.74994251  1
  P  P51  1  0.49904877  0.70930472  0.74997922  1
  P  P52  1  0.35465301  0.99750954  0.74964042  1
  P  P53  1  0.85451036  0.99737416  0.74952463  1
  P  P54  1  0.47844437  0.33196997  0.58292433  1
  P  P55  1  0.97851909  0.33219641  0.58290795  1
  P  P56  1  0.18757830  0.04321783  0.58305739  1
  P  P57  1  0.68764686  0.04356999  0.58298292  1
  P  P58  1  0.33394474  0.62516327  0.58186708  1
  P  P59  1  0.83402684  0.62510144  0.58186162  1
  P  P60  1  0.47749420  0.62369249  0.08204305  1
  P  P61  1  0.97780468  0.62564460  0.08320537  1
  P  P62  1  0.33469860  0.04574721  0.08237754  1
  P  P63  1  0.83466479  0.04374076  0.08195243  1
  P  P64  1  0.18820565  0.33111961  0.08204386  1
  P  P65  1  0.68705343  0.32987122  0.08330227  1
  P  P66  1  0.31122400  0.66468958  0.91686540  1
  P  P67  1  0.81129208  0.66398350  0.91652311  1
  P  P68  1  0.02100782  0.37777106  0.91571028  1
  P  P69  1  0.52118033  0.37795857  0.91576586  1
  P  P70  1  0.16783570  0.95793083  0.91576945  1
  P  P71  1  0.66792586  0.95779374  0.91598247  1
  P  P72  1  0.31058672  0.95743363  0.41588976  1
  P  P73  1  0.81067879  0.95754684  0.41612937  1
  P  P74  1  0.16821783  0.37858068  0.41617239  1
  P  P75  1  0.66800910  0.37874071  0.41501821  1
  P  P76  1  0.02127077  0.66448221  0.41505164  1
  P  P77  1  0.52113610  0.66322644  0.41605180  1
  O  O78  1  0.10153046  0.03072330  0.30490210  1
  O  O79  1  0.59711312  0.02640906  0.30453050  1
  O  O80  1  0.41393685  0.79803762  0.30454414  1
  O  O81  1  0.91546764  0.80413017  0.30460786  1
  O  O82  1  0.48423199  0.17086636  0.30484654  1
  O  O83  1  0.98869550  0.17188868  0.30482871  1
  O  O84  1  0.09814844  0.16945391  0.80511310  1
  O  O85  1  0.59822958  0.16962119  0.80504767  1
  O  O86  1  0.48782957  0.80399199  0.80533067  1
  O  O87  1  0.98785247  0.80410890  0.80536680  1
  O  O88  1  0.41483333  0.02572010  0.80486123  1
  O  O89  1  0.91487788  0.02571542  0.80484336  1
  O  O90  1  0.39730113  0.97142863  0.69644381  1
  O  O91  1  0.89740530  0.97146835  0.69648414  1
  O  O92  1  0.08661685  0.20659178  0.69700083  1
  O  O93  1  0.58664675  0.20664347  0.69696119  1
  O  O94  1  0.01724536  0.82717644  0.69742475  1
  O  O95  1  0.51719451  0.82707753  0.69738550  1
  O  O96  1  0.39737667  0.82070230  0.19523809  1
  O  O97  1  0.89703604  0.82179075  0.19636132  1
  O  O98  1  0.01449688  0.20630931  0.19630705  1
  O  O99  1  0.51503019  0.20680663  0.19621562  1
  O  O100  1  0.08809293  0.96920560  0.19605458  1
  O  O101  1  0.58892103  0.97305146  0.19608284  1
  O  O102  1  0.44371020  0.36952706  0.63996572  1
  O  O103  1  0.94363481  0.36942205  0.63999445  1
  O  O104  1  0.24107207  0.11273105  0.64011929  1
  O  O105  1  0.74106354  0.11271890  0.64009473  1
  O  O106  1  0.31480718  0.51447525  0.63752860  1
  O  O107  1  0.81472828  0.51446609  0.63751425  1
  O  O108  1  0.43337332  0.50399120  0.13759053  1
  O  O109  1  0.94372472  0.51749674  0.13957818  1
  O  O110  1  0.31852621  0.13367493  0.13776376  1
  O  O111  1  0.81455035  0.11492953  0.13713692  1
  O  O112  1  0.24805450  0.36354516  0.13765831  1
  O  O113  1  0.74116055  0.36944277  0.13973082  1
  O  O114  1  0.23106800  0.30796503  0.02865652  1
  O  O115  1  0.73007036  0.30765937  0.02906712  1
  O  O116  1  0.42287413  0.53796077  0.02863380  1
  O  O117  1  0.92398385  0.53971570  0.02901035  1
  O  O118  1  0.34597523  0.15358032  0.02869278  1
  O  O119  1  0.84641776  0.15138992  0.02762627  1
  O  O120  1  0.23043964  0.15302303  0.52954768  1
  O  O121  1  0.73050600  0.15314841  0.52948255  1
  O  O122  1  0.34646719  0.54106916  0.52803430  1
  O  O123  1  0.84640468  0.54111608  0.52801444  1
  O  O124  1  0.42359425  0.30808184  0.52942110  1
  O  O125  1  0.92353509  0.30800873  0.52944872  1
  O  O126  1  0.26724674  0.69655897  0.97130634  1
  O  O127  1  0.76751191  0.69636809  0.97096403  1
  O  O128  1  0.08171690  0.46730930  0.97006970  1
  O  O129  1  0.58119127  0.46655374  0.96995727  1
  O  O130  1  0.15245444  0.83741333  0.97008276  1
  O  O131  1  0.65176352  0.83698405  0.97004884  1
  O  O132  1  0.26764008  0.83845969  0.47075072  1
  O  O133  1  0.76761757  0.83858259  0.47093780  1
  O  O134  1  0.15172299  0.46484881  0.47094342  1
  O  O135  1  0.65174298  0.46627252  0.46968362  1
  O  O136  1  0.08125680  0.69616886  0.46974338  1
  O  O137  1  0.58070138  0.69701180  0.47087057  1
  O  O138  1  0.06226511  0.64223102  0.35971540  1
  O  O139  1  0.56304872  0.64033775  0.36223240  1
  O  O140  1  0.25694293  0.87317801  0.36197415  1
  O  O141  1  0.75738842  0.87331804  0.36230364  1
  O  O142  1  0.17942705  0.48522365  0.36222806  1
  O  O143  1  0.67870472  0.48163552  0.35965645  1
  O  O144  1  0.06202423  0.48233623  0.86025092  1
  O  O145  1  0.56154320  0.48186974  0.86000715  1
  O  O146  1  0.17901533  0.87633251  0.86013350  1
  O  O147  1  0.67879959  0.87621917  0.86010724  1
  O  O148  1  0.25742091  0.64057917  0.86255686  1
  O  O149  1  0.75751684  0.64077655  0.86242368  1
  O  O150  1  0.01451817  0.83542566  0.40853256  1
  O  O151  1  0.51419949  0.83427972  0.40877528  1
  O  O152  1  0.40275257  0.97076390  0.40859411  1
  O  O153  1  0.90300305  0.97141316  0.40892731  1
  O  O154  1  0.08286230  0.19418071  0.40918170  1
  O  O155  1  0.58225621  0.19341490  0.40837509  1
  O  O156  1  0.01464714  0.19428856  0.90917207  1
  O  O157  1  0.51425142  0.19389503  0.90895821  1
  O  O158  1  0.08259747  0.97109648  0.90946345  1
  O  O159  1  0.58259228  0.97134520  0.90924193  1
  O  O160  1  0.40279172  0.83465371  0.90946627  1
  O  O161  1  0.90274383  0.83452542  0.90922892  1
  O  O162  1  0.49229080  0.17593856  0.58903865  1
  O  O163  1  0.99225749  0.17598446  0.58906580  1
  O  O164  1  0.09581686  0.01599890  0.58931683  1
  O  O165  1  0.59580570  0.01600411  0.58930144  1
  O  O166  1  0.41212938  0.80812810  0.58881557  1
  O  O167  1  0.91207198  0.80816973  0.58882100  1
  O  O168  1  0.48988940  0.80335788  0.09030337  1
  O  O169  1  0.99310625  0.80984359  0.08880517  1
  O  O170  1  0.41142769  0.01898288  0.09086175  1
  O  O171  1  0.91220667  0.01552754  0.08809192  1
  O  O172  1  0.09824435  0.17723924  0.09065509  1
  O  O173  1  0.59527731  0.17529856  0.08871619  1
  O  O174  1  0.34784089  0.16553085  0.74730429  1
  O  O175  1  0.84793192  0.16557269  0.74731283  1
  O  O176  1  0.23365300  0.29875804  0.74698780  1
  O  O177  1  0.73364623  0.29878340  0.74690591  1
  O  O178  1  0.41886912  0.52567896  0.74699453  1
  O  O179  1  0.91890249  0.52578204  0.74700772  1
  O  O180  1  0.34783184  0.52732728  0.24172863  1
  O  O181  1  0.84802973  0.53013111  0.24685019  1
  O  O182  1  0.41594787  0.30606058  0.24222177  1
  O  O183  1  0.91876820  0.31037542  0.24683714  1
  O  O184  1  0.23689197  0.16808628  0.24203052  1
  O  O185  1  0.73290739  0.16898446  0.24687378  1
  O  O186  1  0.32384758  0.50893692  0.92384489  1
  O  O187  1  0.82410820  0.50845206  0.92366409  1
  O  O188  1  0.43081774  0.35257325  0.92329911  1
  O  O189  1  0.93082329  0.35304023  0.92329592  1
  O  O190  1  0.24547975  0.13820792  0.92345059  1
  O  O191  1  0.74557049  0.13872692  0.92321364  1
  O  O192  1  0.32412323  0.13891191  0.42356539  1
  O  O193  1  0.82401271  0.13891519  0.42371428  1
  O  O194  1  0.24550808  0.35169784  0.42356620  1
  O  O195  1  0.74507290  0.35184983  0.42319501  1
  O  O196  1  0.43036454  0.50895219  0.42355718  1
  O  O197  1  0.93108349  0.50952620  0.42321525  1
  O  O198  1  0.18149269  0.50205300  0.07578396  1
  O  O199  1  0.67824518  0.49956920  0.07294342  1
  O  O200  1  0.07161220  0.64263044  0.07266307  1
  O  O201  1  0.56946896  0.63744830  0.07596688  1
  O  O202  1  0.24917253  0.86117171  0.07563380  1
  O  O203  1  0.74991047  0.85672056  0.07269739  1
  O  O204  1  0.17846167  0.85659014  0.57371891  1
  O  O205  1  0.67854306  0.85664346  0.57372794  1
  O  O206  1  0.24980130  0.64338312  0.57334916  1
  O  O207  1  0.74975097  0.64316241  0.57329447  1
  O  O208  1  0.07179013  0.50083583  0.57372699  1
  O  O209  1  0.57182037  0.50055418  0.57363390  1
  O  O210  1  0.15406556  0.83936231  0.25714663  1
  O  O211  1  0.65448828  0.83833071  0.25682396  1
  O  O212  1  0.26458662  0.68555072  0.25664475  1
  O  O213  1  0.76202558  0.68253602  0.25678478  1
  O  O214  1  0.07955387  0.47479082  0.25699409  1
  O  O215  1  0.58019103  0.46783797  0.25738834  1
  O  O216  1  0.15148521  0.46819770  0.75768161  1
  O  O217  1  0.65153849  0.46836491  0.75765422  1
  O  O218  1  0.08106761  0.69114498  0.75783916  1
  O  O219  1  0.58103512  0.69105686  0.75772486  1
  O  O220  1  0.26230877  0.84136520  0.75692770  1
  O  O221  1  0.76228501  0.84126725  0.75690787  1
