# generated using pymatgen
data_La2NiO3F2
_symmetry_space_group_name_H-M   'P 1'
_cell_length_a   13.25830400
_cell_length_b   5.82416200
_cell_length_c   5.70322300
_cell_angle_alpha   90.00000000
_cell_angle_beta   90.00000000
_cell_angle_gamma   90.00000000
_symmetry_Int_Tables_number   1
_chemical_formula_structural   La2NiO3F2
_chemical_formula_sum   'La8 Ni4 O12 F8'
_cell_volume   440.39438420
_cell_formula_units_Z   4
loop_
 _symmetry_equiv_pos_site_id
 _symmetry_equiv_pos_as_xyz
  1  'x, y, z'
loop_
 _atom_site_type_symbol
 _atom_site_label
 _atom_site_symmetry_multiplicity
 _atom_site_fract_x
 _atom_site_fract_y
 _atom_site_fract_z
 _atom_site_occupancy
  La  La0  1  0.39231800  0.78906100  0.00000000  1
  La  La1  1  0.39231800  0.21093900  0.50000000  1
  La  La2  1  0.60768200  0.78906100  0.50000000  1
  La  La3  1  0.60768200  0.21093900  0.00000000  1
  La  La4  1  0.89231800  0.28906100  0.00000000  1
  La  La5  1  0.89231800  0.71093900  0.50000000  1
  La  La6  1  0.10768200  0.28906100  0.50000000  1
  La  La7  1  0.10768200  0.71093900  0.00000000  1
  Ni  Ni8  1  0.25000000  0.25000000  0.00000000  1
  Ni  Ni9  1  0.25000000  0.75000000  0.50000000  1
  Ni  Ni10  1  0.75000000  0.25000000  0.50000000  1
  Ni  Ni11  1  0.75000000  0.75000000  0.00000000  1
  O  O12  1  0.27932000  0.00000000  0.25000000  1
  O  O13  1  0.72068000  0.00000000  0.25000000  1
  O  O14  1  0.72068000  0.00000000  0.75000000  1
  O  O15  1  0.27932000  0.00000000  0.75000000  1
  O  O16  1  0.77932000  0.50000000  0.25000000  1
  O  O17  1  0.22068000  0.50000000  0.25000000  1
  O  O18  1  0.22068000  0.50000000  0.75000000  1
  O  O19  1  0.77932000  0.50000000  0.75000000  1
  O  O20  1  0.00000000  0.50000000  0.25000000  1
  O  O21  1  0.00000000  0.50000000  0.75000000  1
  O  O22  1  0.50000000  0.00000000  0.25000000  1
  O  O23  1  0.50000000  0.00000000  0.75000000  1
  F  F24  1  0.59282000  0.63240500  0.00000000  1
  F  F25  1  0.59282000  0.36759500  0.50000000  1
  F  F26  1  0.40718000  0.63240500  0.50000000  1
  F  F27  1  0.40718000  0.36759500  0.00000000  1
  F  F28  1  0.09282000  0.13240500  0.00000000  1
  F  F29  1  0.09282000  0.86759500  0.50000000  1
  F  F30  1  0.90718000  0.13240500  0.50000000  1
  F  F31  1  0.90718000  0.86759500  0.00000000  1
