# generated using pymatgen
data_Na3AlSi3Sn3(SO8)3
_symmetry_space_group_name_H-M   'P 1'
_cell_length_a   8.79020814
_cell_length_b   8.81581191
_cell_length_c   22.69957850
_cell_angle_alpha   89.78275124
_cell_angle_beta   90.16528395
_cell_angle_gamma   119.85984494
_symmetry_Int_Tables_number   1
_chemical_formula_structural   Na3AlSi3Sn3(SO8)3
_chemical_formula_sum   'Na9 Al3 Si9 Sn9 S9 O72'
_cell_volume   1525.52072282
_cell_formula_units_Z   3
loop_
 _symmetry_equiv_pos_site_id
 _symmetry_equiv_pos_as_xyz
  1  'x, y, z'
loop_
 _atom_site_type_symbol
 _atom_site_label
 _atom_site_symmetry_multiplicity
 _atom_site_fract_x
 _atom_site_fract_y
 _atom_site_fract_z
 _atom_site_occupancy
  Na  Na0  1  0.35803933  0.36073994  0.24384457  1
  Na  Na1  1  0.64014660  0.62807199  0.75367746  1
  Na  Na2  1  0.97107232  0.29380467  0.41731595  1
  Na  Na3  1  0.99607626  0.00660093  0.49617437  1
  Na  Na4  1  0.00103149  0.98848102  0.00454991  1
  Na  Na5  1  0.66351311  0.34049065  0.83061320  1
  Na  Na6  1  0.66331630  0.31832892  0.33006031  1
  Na  Na7  1  0.31090534  0.65582050  0.16472650  1
  Na  Na8  1  0.30154491  0.64712374  0.66747808  1
  Al  Al9  1  0.98945069  0.01847016  0.35440108  1
  Al  Al10  1  0.68337635  0.34478895  0.68914280  1
  Al  Al11  1  0.69558191  0.34722522  0.18039535  1
  Si  Si12  1  0.98414504  0.28946173  0.25140648  1
  Si  Si13  1  0.30308415  0.28952060  0.74862886  1
  Si  Si14  1  0.99889481  0.70426994  0.74709202  1
  Si  Si15  1  0.95144988  0.33349091  0.58557789  1
  Si  Si16  1  0.96153789  0.62920656  0.08479019  1
  Si  Si17  1  0.38714573  0.33090241  0.09037301  1
  Si  Si18  1  0.62988851  0.67449413  0.91552083  1
  Si  Si19  1  0.62473789  0.94914211  0.41612337  1
  Si  Si20  1  0.33053776  0.36149009  0.41422030  1
  Sn  Sn21  1  0.00422489  0.99173788  0.85009636  1
  Sn  Sn22  1  0.01052360  0.01337479  0.64744882  1
  Sn  Sn23  1  0.00927299  0.00864751  0.14699542  1
  Sn  Sn24  1  0.66579350  0.35747378  0.98400981  1
  Sn  Sn25  1  0.66147421  0.31848450  0.48011751  1
  Sn  Sn26  1  0.34071021  0.65780624  0.02577270  1
  Sn  Sn27  1  0.32776237  0.65093942  0.51841423  1
  Sn  Sn28  1  0.33495026  0.66153280  0.31567653  1
  Sn  Sn29  1  0.32344978  0.65435796  0.81321404  1
  S  S30  1  0.28703086  0.99693182  0.25353552  1
  S  S31  1  0.71891974  0.71482606  0.25188892  1
  S  S32  1  0.70727433  0.00757114  0.74896101  1
  S  S33  1  0.37676798  0.04022505  0.58549014  1
  S  S34  1  0.66876001  0.62152820  0.58597270  1
  S  S35  1  0.66720241  0.05328998  0.08430296  1
  S  S36  1  0.03323348  0.36726662  0.91799803  1
  S  S37  1  0.33925883  0.95867161  0.91851163  1
  S  S38  1  0.03970016  0.67721809  0.41565029  1
  O  O39  1  0.19220311  0.01472293  0.30412271  1
  O  O40  1  0.82496219  0.80276797  0.30408463  1
  O  O41  1  0.96720973  0.17813992  0.31101957  1
  O  O42  1  0.21574322  0.17702620  0.80936929  1
  O  O43  1  0.94226692  0.77787096  0.80453551  1
  O  O44  1  0.81535196  0.04222844  0.80295383  1
  O  O45  1  0.78102529  0.96343161  0.69743108  1
  O  O46  1  0.17261899  0.22046340  0.69246280  1
  O  O47  1  0.03089384  0.82609360  0.68933076  1
  O  O48  1  0.79293125  0.81524710  0.19673723  1
  O  O49  1  0.04400267  0.20932999  0.19607945  1
  O  O50  1  0.18571612  0.96278914  0.19744028  1
  O  O51  1  0.84322443  0.34875180  0.63997654  1
  O  O52  1  0.48208107  0.13237216  0.63795861  1
  O  O53  1  0.64629913  0.51658869  0.63976278  1
  O  O54  1  0.87446812  0.50413935  0.14040436  1
  O  O55  1  0.64720115  0.13814255  0.13651873  1
  O  O56  1  0.50277079  0.34634088  0.14882777  1
  O  O57  1  0.45055971  0.28851067  0.02724236  1
  O  O58  1  0.86153506  0.55750094  0.02152780  1
  O  O59  1  0.69499362  0.15200883  0.02802222  1
  O  O60  1  0.44684917  0.14177635  0.52990730  1
  O  O61  1  0.68872022  0.54207446  0.53147704  1
  O  O62  1  0.85667909  0.31263013  0.52096236  1
  O  O63  1  0.53595726  0.70277956  0.97273782  1
  O  O64  1  0.14062051  0.45015505  0.97024459  1
  O  O65  1  0.30917859  0.84942801  0.97079402  1
  O  O66  1  0.53561821  0.83767333  0.47681530  1
  O  O67  1  0.27090199  0.44047936  0.46991954  1
  O  O68  1  0.14719216  0.71068014  0.46996687  1
  O  O69  1  0.11386465  0.62926187  0.36442896  1
  O  O70  1  0.49581035  0.87335163  0.35900460  1
  O  O71  1  0.37264108  0.47916591  0.35408890  1
  O  O72  1  0.10353442  0.47632809  0.86330646  1
  O  O73  1  0.35570825  0.87721231  0.86295923  1
  O  O74  1  0.51917507  0.64859956  0.85428170  1
  O  O75  1  0.02127466  0.82976955  0.40422699  1
  O  O76  1  0.81691614  0.96680393  0.40832703  1
  O  O77  1  0.15894060  0.16957946  0.40534967  1
  O  O78  1  0.02603772  0.19681855  0.91095921  1
  O  O79  1  0.18293194  0.98363621  0.91459192  1
  O  O80  1  0.82469428  0.85351276  0.91234413  1
  O  O81  1  0.97063001  0.15467812  0.58667276  1
  O  O82  1  0.19573431  0.01456997  0.58630882  1
  O  O83  1  0.82593889  0.79906981  0.58870750  1
  O  O84  1  0.96839005  0.81797312  0.09121545  1
  O  O85  1  0.82065252  0.02608907  0.08868230  1
  O  O86  1  0.18516636  0.16747524  0.08877830  1
  O  O87  1  0.68635684  0.16217731  0.73974363  1
  O  O88  1  0.49582465  0.31085068  0.73717309  1
  O  O89  1  0.82756305  0.51163891  0.74029038  1
  O  O90  1  0.69334249  0.53565690  0.24776617  1
  O  O91  1  0.80911432  0.30476352  0.23976183  1
  O  O92  1  0.45951281  0.15768864  0.24879294  1
  O  O93  1  0.64426152  0.49453121  0.91655292  1
  O  O94  1  0.85158398  0.33777686  0.92283771  1
  O  O95  1  0.50283192  0.13180269  0.92163179  1
  O  O96  1  0.66242353  0.15290146  0.41954083  1
  O  O97  1  0.51329485  0.36074294  0.42476311  1
  O  O98  1  0.86525099  0.51585900  0.42264961  1
  O  O99  1  0.37957565  0.51440431  0.08625388  1
  O  O100  1  0.16179197  0.65764979  0.07818394  1
  O  O101  1  0.50494349  0.87906997  0.08103139  1
  O  O102  1  0.36694016  0.86754965  0.58135534  1
  O  O103  1  0.50802889  0.63961422  0.58291011  1
  O  O104  1  0.14887134  0.51476520  0.58134540  1
  O  O105  1  0.31080838  0.84041407  0.25686315  1
  O  O106  1  0.53720047  0.69483864  0.25334987  1
  O  O107  1  0.17050223  0.48775671  0.25524471  1
  O  O108  1  0.33567934  0.49166738  0.75382927  1
  O  O109  1  0.18025974  0.69829045  0.75593664  1
  O  O110  1  0.53246763  0.84910916  0.75582311  1
