# generated using pymatgen
data_Na2LaScSi(SO6)2
_symmetry_space_group_name_H-M   'P 1'
_cell_length_a   9.25233536
_cell_length_b   9.25825222
_cell_length_c   23.81023631
_cell_angle_alpha   90.37812242
_cell_angle_beta   89.61320576
_cell_angle_gamma   119.91495779
_symmetry_Int_Tables_number   1
_chemical_formula_structural   Na2LaScSi(SO6)2
_chemical_formula_sum   'Na12 La6 Sc6 Si6 S12 O72'
_cell_volume   1767.80078132
_cell_formula_units_Z   6
loop_
 _symmetry_equiv_pos_site_id
 _symmetry_equiv_pos_as_xyz
  1  'x, y, z'
loop_
 _atom_site_type_symbol
 _atom_site_label
 _atom_site_symmetry_multiplicity
 _atom_site_fract_x
 _atom_site_fract_y
 _atom_site_fract_z
 _atom_site_occupancy
  Na  Na0  1  0.00215071  0.62923671  0.25492863  1
  Na  Na1  1  0.37919310  0.00731004  0.74574045  1
  Na  Na2  1  0.65784333  0.96889212  0.59454266  1
  Na  Na3  1  0.03024539  0.33976564  0.09831673  1
  Na  Na4  1  0.98798977  0.67910342  0.92808934  1
  Na  Na5  1  0.31842966  0.01302512  0.42059715  1
  Na  Na6  1  0.01470427  0.98156716  0.50164093  1
  Na  Na7  1  0.02000079  0.97883366  0.00144468  1
  Na  Na8  1  0.65743194  0.29615902  0.83243932  1
  Na  Na9  1  0.69085753  0.33969878  0.33622655  1
  Na  Na10  1  0.32897762  0.65591103  0.17112214  1
  Na  Na11  1  0.33989255  0.67223580  0.66531799  1
  La  La12  1  0.99330728  0.00984567  0.84319353  1
  La  La13  1  0.00152769  0.99160442  0.15874909  1
  La  La14  1  0.65018700  0.32106166  0.98400269  1
  La  La15  1  0.33334634  0.69066630  0.02132716  1
  La  La16  1  0.31198618  0.67047182  0.51575665  1
  La  La17  1  0.35630319  0.68434240  0.81047134  1
  Sc  Sc18  1  0.98995421  0.00570444  0.34817956  1
  Sc  Sc19  1  0.00387416  0.99673598  0.64558536  1
  Sc  Sc20  1  0.66422689  0.32257844  0.68078924  1
  Sc  Sc21  1  0.68475562  0.34255506  0.18860939  1
  Sc  Sc22  1  0.66846307  0.34283733  0.48283672  1
  Sc  Sc23  1  0.30438575  0.64293880  0.32040621  1
  Si  Si24  1  0.00100683  0.30312833  0.24940788  1
  Si  Si25  1  0.70530905  0.01084258  0.73882577  1
  Si  Si26  1  0.37444394  0.05411410  0.58187840  1
  Si  Si27  1  0.95930761  0.62820722  0.08514108  1
  Si  Si28  1  0.32586640  0.97630340  0.90972038  1
  Si  Si29  1  0.01912682  0.67112697  0.41258813  1
  S  S30  1  0.31024921  0.99673186  0.25726183  1
  S  S31  1  0.68982605  0.69295869  0.25546637  1
  S  S32  1  0.30453220  0.29465365  0.74091336  1
  S  S33  1  0.98918137  0.69656276  0.74370242  1
  S  S34  1  0.94657830  0.32099373  0.58389734  1
  S  S35  1  0.67739694  0.62776372  0.58513922  1
  S  S36  1  0.67003237  0.04149156  0.09102563  1
  S  S37  1  0.36842494  0.33586301  0.09087528  1
  S  S38  1  0.64282815  0.66679719  0.91738856  1
  S  S39  1  0.03545818  0.36831953  0.91795383  1
  S  S40  1  0.63266135  0.96812545  0.41514219  1
  S  S41  1  0.33205616  0.36049802  0.41373956  1
  O  O42  1  0.22051270  0.01988524  0.30537902  1
  O  O43  1  0.81531359  0.78674463  0.30020788  1
  O  O44  1  0.98227502  0.16988980  0.29793363  1
  O  O45  1  0.24327922  0.20640259  0.79541362  1
  O  O46  1  0.96986640  0.75789926  0.79945015  1
  O  O47  1  0.79141518  0.02002633  0.79902307  1
  O  O48  1  0.81357662  0.99847560  0.68607852  1
  O  O49  1  0.19285319  0.19062960  0.69538363  1
  O  O50  1  0.01092975  0.81945575  0.69951556  1
  O  O51  1  0.74841975  0.78316919  0.20144029  1
  O  O52  1  0.02801778  0.24039878  0.18824655  1
  O  O53  1  0.20362572  0.95238056  0.20595468  1
  O  O54  1  0.86538751  0.33940853  0.63474740  1
  O  O55  1  0.49144314  0.14782936  0.63666768  1
  O  O56  1  0.66723746  0.53103125  0.63505307  1
  O  O57  1  0.84576544  0.51061932  0.13897190  1
  O  O58  1  0.66145664  0.14175886  0.13800921  1
  O  O59  1  0.46620531  0.32862661  0.13815955  1
  O  O60  1  0.44016285  0.32637510  0.03615909  1
  O  O61  1  0.87497785  0.54466156  0.02444782  1
  O  O62  1  0.67122572  0.11762890  0.03639231  1
  O  O63  1  0.47121545  0.16170574  0.52471422  1
  O  O64  1  0.69201953  0.54597117  0.53312196  1
  O  O65  1  0.85020279  0.31323271  0.53306407  1
  O  O66  1  0.55069006  0.66294011  0.96849469  1
  O  O67  1  0.12450465  0.44918888  0.97066685  1
  O  O68  1  0.31298272  0.85939816  0.96381839  1
  O  O69  1  0.57387720  0.87730862  0.46942415  1
  O  O70  1  0.30628786  0.42993646  0.46630083  1
  O  O71  1  0.15037267  0.72616919  0.46571044  1
  O  O72  1  0.11531581  0.63839993  0.35908795  1
  O  O73  1  0.51514457  0.87198125  0.36949441  1
  O  O74  1  0.35343774  0.47058101  0.36579627  1
  O  O75  1  0.13374064  0.46289775  0.86832482  1
  O  O76  1  0.33250821  0.88500573  0.85083840  1
  O  O77  1  0.54859103  0.65796694  0.86647418  1
  O  O78  1  0.01018883  0.84188975  0.40070314  1
  O  O79  1  0.80321051  0.99648304  0.40417733  1
  O  O80  1  0.18498427  0.18895286  0.40507403  1
  O  O81  1  0.00463731  0.19597322  0.91786301  1
  O  O82  1  0.14784216  0.97457233  0.91360555  1
  O  O83  1  0.80864300  0.82135231  0.91783481  1
  O  O84  1  0.95196712  0.16198071  0.58571904  1
  O  O85  1  0.18482671  0.02570850  0.58924634  1
  O  O86  1  0.82901489  0.79980136  0.58778217  1
  O  O87  1  0.98915680  0.81750962  0.08803873  1
  O  O88  1  0.82785873  0.03662937  0.09222911  1
  O  O89  1  0.19395377  0.19137935  0.09080396  1
  O  O90  1  0.67604502  0.17350798  0.73789806  1
  O  O91  1  0.47433058  0.31691665  0.73442324  1
  O  O92  1  0.84289360  0.53208397  0.73376256  1
  O  O93  1  0.68399657  0.52769684  0.24995854  1
  O  O94  1  0.83649555  0.33220855  0.24716037  1
  O  O95  1  0.47278619  0.14870548  0.24831083  1
  O  O96  1  0.67400772  0.52388973  0.91467614  1
  O  O97  1  0.87397596  0.36832787  0.91562256  1
  O  O98  1  0.49164890  0.16002974  0.91144195  1
  O  O99  1  0.63821649  0.13348880  0.42000622  1
  O  O100  1  0.48265891  0.33970761  0.41803513  1
  O  O101  1  0.84021482  0.50288780  0.42599783  1
  O  O102  1  0.35808804  0.49141660  0.09323431  1
  O  O103  1  0.13712013  0.62529323  0.09094431  1
  O  O104  1  0.52450519  0.87124903  0.09450816  1
  O  O105  1  0.37368814  0.87309693  0.58074635  1
  O  O106  1  0.52885095  0.65119821  0.58241672  1
  O  O107  1  0.11906439  0.46454654  0.58226083  1
  O  O108  1  0.33156191  0.84862691  0.26675251  1
  O  O109  1  0.52432676  0.66959230  0.26846507  1
  O  O110  1  0.16268542  0.49339453  0.26025270  1
  O  O111  1  0.31361319  0.45833631  0.74155276  1
  O  O112  1  0.14545189  0.68578079  0.74301987  1
  O  O113  1  0.51363186  0.84694207  0.73712876  1
