# generated using pymatgen
data_MgNi2(SbO3)4
_symmetry_space_group_name_H-M   'P 1'
_cell_length_a   5.02931688
_cell_length_b   4.89657594
_cell_length_c   9.66075100
_cell_angle_alpha   89.99997632
_cell_angle_beta   90.00002337
_cell_angle_gamma   91.14546225
_symmetry_Int_Tables_number   1
_chemical_formula_structural   MgNi2(SbO3)4
_chemical_formula_sum   'Mg1 Ni2 Sb4 O12'
_cell_volume   237.86228531
_cell_formula_units_Z   1
loop_
 _symmetry_equiv_pos_site_id
 _symmetry_equiv_pos_as_xyz
  1  'x, y, z'
loop_
 _atom_site_type_symbol
 _atom_site_label
 _atom_site_symmetry_multiplicity
 _atom_site_fract_x
 _atom_site_fract_y
 _atom_site_fract_z
 _atom_site_occupancy
  Mg  Mg0  1  0.50000000  0.00000000  0.73661700  1
  Ni  Ni1  1  0.00000000  0.00000000  0.00397000  1
  Ni  Ni2  1  0.50000000  0.50000000  0.49758600  1
  Sb  Sb3  1  0.49999900  0.50000000  0.86663800  1
  Sb  Sb4  1  0.00000000  0.00000000  0.32548400  1
  Sb  Sb5  1  0.50000000  0.50000000  0.18639500  1
  Sb  Sb6  1  0.00000000  0.00000000  0.64552000  1
  O  O7  1  0.70440000  0.72224700  0.64920300  1
  O  O8  1  0.29560000  0.27775200  0.64920300  1
  O  O9  1  0.69444000  0.70111000  0.33412900  1
  O  O10  1  0.19425300  0.80007200  0.17647000  1
  O  O11  1  0.80574600  0.19992800  0.17646900  1
  O  O12  1  0.81149000  0.17083900  0.81982000  1
  O  O13  1  0.31264700  0.30558900  0.02674700  1
  O  O14  1  0.18272500  0.80772400  0.48752600  1
  O  O15  1  0.81727500  0.19227600  0.48752600  1
  O  O16  1  0.68735200  0.69441100  0.02674700  1
  O  O17  1  0.30556000  0.29889000  0.33412900  1
  O  O18  1  0.18851200  0.82916000  0.81982100  1
