# generated using pymatgen
data_Na7Ca2Y2P5SO24
_symmetry_space_group_name_H-M   'P 1'
_cell_length_a   9.42356231
_cell_length_b   9.40506791
_cell_length_c   23.30903686
_cell_angle_alpha   90.07319726
_cell_angle_beta   89.95834732
_cell_angle_gamma   119.97975554
_symmetry_Int_Tables_number   1
_chemical_formula_structural   Na7Ca2Y2P5SO24
_chemical_formula_sum   'Na21 Ca6 Y6 P15 S3 O72'
_cell_volume   1789.45262312
_cell_formula_units_Z   3
loop_
 _symmetry_equiv_pos_site_id
 _symmetry_equiv_pos_as_xyz
  1  'x, y, z'
loop_
 _atom_site_type_symbol
 _atom_site_label
 _atom_site_symmetry_multiplicity
 _atom_site_fract_x
 _atom_site_fract_y
 _atom_site_fract_z
 _atom_site_occupancy
  Na  Na0  1  0.64656403  0.99284080  0.25286578  1
  Na  Na1  1  0.99464458  0.62776724  0.25663931  1
  Na  Na2  1  0.63290860  0.64203947  0.74761657  1
  Na  Na3  1  0.01262881  0.37063042  0.75386235  1
  Na  Na4  1  0.35925993  0.99035501  0.75360851  1
  Na  Na5  1  0.29461424  0.33300834  0.58773341  1
  Na  Na6  1  0.03885824  0.70528019  0.58199302  1
  Na  Na7  1  0.66902655  0.95972522  0.58413418  1
  Na  Na8  1  0.29465996  0.95999942  0.07815573  1
  Na  Na9  1  0.66905133  0.70493135  0.08876812  1
  Na  Na10  1  0.04031925  0.33531971  0.08429840  1
  Na  Na11  1  0.99289458  0.66876427  0.91632757  1
  Na  Na12  1  0.32113244  0.29844599  0.92077657  1
  Na  Na13  1  0.96624959  0.31260527  0.41296742  1
  Na  Na14  1  0.70031064  0.67716065  0.41972273  1
  Na  Na15  1  0.00507292  0.98851210  0.50494728  1
  Na  Na16  1  0.99785647  0.01037743  0.00389603  1
  Na  Na17  1  0.66774927  0.30520474  0.83400884  1
  Na  Na18  1  0.66207980  0.32844029  0.33329147  1
  Na  Na19  1  0.33385458  0.63616374  0.16817140  1
  Na  Na20  1  0.33369148  0.66836419  0.66612439  1
  Ca  Ca21  1  0.99930365  0.00049189  0.65241445  1
  Ca  Ca22  1  0.00167803  0.00641126  0.15212270  1
  Ca  Ca23  1  0.33288618  0.67162579  0.01368422  1
  Ca  Ca24  1  0.33378674  0.67902092  0.51249591  1
  Ca  Ca25  1  0.33281253  0.66576832  0.31962276  1
  Ca  Ca26  1  0.33406214  0.67357674  0.82124239  1
  Y  Y27  1  0.00109648  -0.00025255  0.34711131  1
  Y  Y28  1  0.99765694  0.00451057  0.84634082  1
  Y  Y29  1  0.66794162  0.33352553  0.68157337  1
  Y  Y30  1  0.66532479  0.33683081  0.18224321  1
  Y  Y31  1  0.66712009  0.32140484  0.98471745  1
  Y  Y32  1  0.66464936  0.32478574  0.48516793  1
  P  P33  1  0.69806249  0.69693988  0.24861061  1
  P  P34  1  0.99545499  0.30734192  0.24948155  1
  P  P35  1  0.30841422  0.30722244  0.74952404  1
  P  P36  1  0.99711183  0.69349445  0.74978047  1
  P  P37  1  0.69391602  -0.00009775  0.74635769  1
  P  P38  1  0.97154635  0.33423063  0.58274296  1
  P  P39  1  0.36477464  0.03209058  0.58590420  1
  P  P40  1  0.66412683  0.63324442  0.58193296  1
  P  P41  1  0.96677384  0.63412764  0.08251576  1
  P  P42  1  0.66478539  0.02908628  0.08728636  1
  P  P43  1  0.36755215  0.33427840  0.07991064  1
  P  P44  1  0.02853485  0.36112527  0.91623638  1
  P  P45  1  0.32751918  0.97907765  0.91603907  1
  P  P46  1  0.64792589  0.97629795  0.41460080  1
  P  P47  1  0.01763869  0.66325177  0.41649743  1
  S  S48  1  0.30507051  0.99889964  0.24798795  1
  S  S49  1  0.64301080  0.66412403  0.91713494  1
  S  S50  1  0.33274174  0.36313048  0.41860100  1
  O  O51  1  0.21668530  0.01446199  0.29825331  1
  O  O52  1  0.80916203  0.78919095  0.30165881  1
  O  O53  1  0.98752533  0.20328437  0.30314348  1
  O  O54  1  0.21751480  0.19851048  0.80270582  1
  O  O55  1  0.97903817  0.78196090  0.80363441  1
  O  O56  1  0.80951325  0.01904099  0.79681742  1
  O  O57  1  0.76642124  0.98003621  0.68983224  1
  O  O58  1  0.20689173  0.22809557  0.69494229  1
  O  O59  1  0.01404386  0.79353662  0.69551805  1
  O  O60  1  0.78279964  0.79399673  0.19390486  1
  O  O61  1  0.00868537  0.22604380  0.19407626  1
  O  O62  1  0.21663648  0.98766418  0.19476647  1
  O  O63  1  0.88162044  0.34682770  0.63697295  1
  O  O64  1  0.45958271  0.11550597  0.64187649  1
  O  O65  1  0.65277365  0.53224219  0.63651647  1
  O  O66  1  0.87588472  0.53036626  0.13648903  1
  O  O67  1  0.64975563  0.11203532  0.14288940  1
  O  O68  1  0.47666782  0.34526591  0.13139296  1
  O  O69  1  0.45103258  0.32286946  0.02404907  1
  O  O70  1  0.86290170  0.54496151  0.02857696  1
  O  O71  1  0.67880529  0.14004313  0.03606278  1
  O  O72  1  0.46222409  0.14210779  0.53487816  1
  O  O73  1  0.67373805  0.54064836  0.52809171  1
  O  O74  1  0.86766247  0.32219634  0.52923186  1
  O  O75  1  0.56486446  0.68157286  0.96911166  1
  O  O76  1  0.13347514  0.44231803  0.97009753  1
  O  O77  1  0.31106655  0.87802732  0.97013394  1
  O  O78  1  0.56867447  0.87190190  0.46858699  1
  O  O79  1  0.30982416  0.43445719  0.47215031  1
  O  O80  1  0.11145009  0.67658329  0.47215013  1
  O  O81  1  0.10096420  0.64065198  0.36319018  1
  O  O82  1  0.55128432  0.89395611  0.35974841  1
  O  O83  1  0.35484032  0.47000021  0.36945225  1
  O  O84  1  0.11090886  0.46310288  0.86194160  1
  O  O85  1  0.34527535  0.89915063  0.86092903  1
  O  O86  1  0.54608620  0.64929954  0.86526464  1
  O  O87  1  0.99240351  0.81585405  0.41210429  1
  O  O88  1  0.82600996  0.99850504  0.41146482  1
  O  O89  1  0.18355024  0.19808553  0.41134534  1
  O  O90  1  0.01038151  0.18682748  0.91201822  1
  O  O91  1  0.16542352  0.98984083  0.91356629  1
  O  O92  1  0.81423575  0.80659421  0.91310068  1
  O  O93  1  0.98643551  0.17703185  0.58331991  1
  O  O94  1  0.19180042  0.01470483  0.58471936  1
  O  O95  1  0.82220534  0.80477893  0.58251835  1
  O  O96  1  0.98509966  0.80779205  0.08455625  1
  O  O97  1  0.82193491  0.01402997  0.08607106  1
  O  O98  1  0.19534628  0.17703865  0.08291578  1
  O  O99  1  0.67937474  0.15916906  0.74754555  1
  O  O100  1  0.48035890  0.31892416  0.74784783  1
  O  O101  1  0.83845890  0.51949092  0.74816457  1
  O  O102  1  0.68759098  0.52525432  0.24852956  1
  O  O103  1  0.82771613  0.30878760  0.25075268  1
  O  O104  1  0.47489598  0.14395329  0.24823985  1
  O  O105  1  0.65642393  0.51100529  0.91974478  1
  O  O106  1  0.85794055  0.35219237  0.92018794  1
  O  O107  1  0.47442330  0.15991401  0.91913715  1
  O  O108  1  0.67507027  0.15472612  0.41865540  1
  O  O109  1  0.48252877  0.34663900  0.42157315  1
  O  O110  1  0.83951050  0.50705789  0.41847816  1
  O  O111  1  0.35165402  0.49107101  0.08100054  1
  O  O112  1  0.13781582  0.64742268  0.08111451  1
  O  O113  1  0.50968157  0.85695916  0.08262136  1
  O  O114  1  0.35095513  0.86050770  0.58268721  1
  O  O115  1  0.50784327  0.64939261  0.58100706  1
  O  O116  1  0.14375031  0.49058449  0.58103904  1
  O  O117  1  0.31713518  0.84716131  0.25295547  1
  O  O118  1  0.52985566  0.68751700  0.25355406  1
  O  O119  1  0.13751198  0.48678111  0.25281041  1
  O  O120  1  0.33351263  0.48287718  0.75513945  1
  O  O121  1  0.14989097  0.67164699  0.75372585  1
  O  O122  1  0.52102115  0.84723128  0.75362572  1
