# generated using pymatgen
data_NaBiO2
_symmetry_space_group_name_H-M   'P 1'
_cell_length_a   5.09841883
_cell_length_b   5.09841874
_cell_length_c   5.89627342
_cell_angle_alpha   64.50294832
_cell_angle_beta   64.50293792
_cell_angle_gamma   88.84166095
_symmetry_Int_Tables_number   1
_chemical_formula_structural   NaBiO2
_chemical_formula_sum   'Na2 Bi2 O4'
_cell_volume   122.27626578
_cell_formula_units_Z   2
loop_
 _symmetry_equiv_pos_site_id
 _symmetry_equiv_pos_as_xyz
  1  'x, y, z'
loop_
 _atom_site_type_symbol
 _atom_site_label
 _atom_site_symmetry_multiplicity
 _atom_site_fract_x
 _atom_site_fract_y
 _atom_site_fract_z
 _atom_site_occupancy
  Na  Na0  1  0.62739534  0.37260466  0.75000000  1
  Na  Na1  1  0.37260466  0.62739534  0.25000000  1
  Bi  Bi2  1  0.88030854  0.11969146  0.25000000  1
  Bi  Bi3  1  0.11969146  0.88030854  0.75000000  1
  O  O4  1  0.86710654  0.70476788  0.24690503  1
  O  O5  1  0.29523212  0.13289346  0.25309497  1
  O  O6  1  0.70476788  0.86710654  0.74690503  1
  O  O7  1  0.13289346  0.29523212  0.75309497  1
