# generated using pymatgen
data_Na6Sc2Nb6Si9(SO16)3
_symmetry_space_group_name_H-M   'P 1'
_cell_length_a   17.92324842
_cell_length_b   8.98978503
_cell_length_c   22.98093067
_cell_angle_alpha   90.04845243
_cell_angle_beta   89.80608806
_cell_angle_gamma   120.07691405
_symmetry_Int_Tables_number   1
_chemical_formula_structural   Na6Sc2Nb6Si9(SO16)3
_chemical_formula_sum   'Na18 Sc6 Nb18 Si27 S9 O144'
_cell_volume   3204.23575362
_cell_formula_units_Z   3
loop_
 _symmetry_equiv_pos_site_id
 _symmetry_equiv_pos_as_xyz
  1  'x, y, z'
loop_
 _atom_site_type_symbol
 _atom_site_label
 _atom_site_symmetry_multiplicity
 _atom_site_fract_x
 _atom_site_fract_y
 _atom_site_fract_z
 _atom_site_occupancy
  Na  Na0  1  0.32076495  0.01266743  0.25171057  1
  Na  Na1  1  0.68481079  0.37029270  0.24721142  1
  Na  Na2  1  0.49366563  0.62179615  0.24957034  1
  Na  Na3  1  0.82049519  0.62924654  0.75042644  1
  Na  Na4  1  0.99386845  0.36496194  0.74804874  1
  Na  Na5  1  0.18624293  0.00424311  0.74460486  1
  Na  Na6  1  0.00227258  0.00712847  0.49957333  1
  Na  Na7  1  0.50418701  0.99896478  0.49677265  1
  Na  Na8  1  0.00444860  0.01186558  0.99479788  1
  Na  Na9  1  0.50239783  0.99735961  0.99845237  1
  Na  Na10  1  0.33851040  0.33257935  0.83227444  1
  Na  Na11  1  0.83072119  0.32554397  0.82734226  1
  Na  Na12  1  0.33019618  0.33821535  0.33211392  1
  Na  Na13  1  0.83844101  0.34398258  0.33572472  1
  Na  Na14  1  0.16642216  0.65793661  0.16653605  1
  Na  Na15  1  0.67087812  0.67001717  0.16511140  1
  Na  Na16  1  0.17224908  0.67204134  0.66349614  1
  Na  Na17  1  0.66138791  0.66865276  0.66229780  1
  Sc  Sc18  1  0.49811285  0.99889903  0.35631348  1
  Sc  Sc19  1  0.99809188  0.99760737  0.85532440  1
  Sc  Sc20  1  0.33663200  0.33113059  0.68047046  1
  Sc  Sc21  1  0.82967640  0.31607814  0.68724248  1
  Sc  Sc22  1  0.32944452  0.34352163  0.18774647  1
  Sc  Sc23  1  0.83175520  0.33520058  0.18259927  1
  Nb  Nb24  1  0.00207435  0.98677331  0.35879888  1
  Nb  Nb25  1  0.50212899  0.01789289  0.85694374  1
  Nb  Nb26  1  0.99726283  0.99049945  0.64358093  1
  Nb  Nb27  1  0.49858685  0.01459251  0.63972354  1
  Nb  Nb28  1  0.99969705  0.99583813  0.14492809  1
  Nb  Nb29  1  0.49707935  0.00323499  0.14424386  1
  Nb  Nb30  1  0.33029853  0.34523084  0.97607310  1
  Nb  Nb31  1  0.82786804  0.30910920  0.97786928  1
  Nb  Nb32  1  0.33422539  0.34627350  0.48245140  1
  Nb  Nb33  1  0.82983996  0.31359131  0.47639947  1
  Nb  Nb34  1  0.16729463  0.65641186  0.01466754  1
  Nb  Nb35  1  0.65986718  0.66378062  0.02469385  1
  Nb  Nb36  1  0.16012561  0.65429765  0.52493333  1
  Nb  Nb37  1  0.66087806  0.66907918  0.51724873  1
  Nb  Nb38  1  0.16437546  0.65983593  0.31352248  1
  Nb  Nb39  1  0.66946829  0.65842611  0.31782856  1
  Nb  Nb40  1  0.16934117  0.68091229  0.81614819  1
  Nb  Nb41  1  0.66154492  0.66686019  0.81041336  1
  Si  Si42  1  0.14368186  0.99788820  0.25051935  1
  Si  Si43  1  0.35518558  0.71097531  0.25199108  1
  Si  Si44  1  0.85623330  0.71033876  0.25082837  1
  Si  Si45  1  0.50027751  0.29158719  0.25123186  1
  Si  Si46  1  0.64365438  0.28677689  0.74939987  1
  Si  Si47  1  -0.00001451  0.70998817  0.75118067  1
  Si  Si48  1  0.35688033  0.00344255  0.74990186  1
  Si  Si49  1  0.85566064  -0.00008282  0.75189514  1
  Si  Si50  1  0.47923417  0.34112195  0.58201747  1
  Si  Si51  1  0.97338687  0.32695385  0.58588885  1
  Si  Si52  1  0.18930771  0.04399002  0.58398343  1
  Si  Si53  1  0.68843221  0.04107010  0.58423278  1
  Si  Si54  1  0.33322393  0.62408954  0.58645115  1
  Si  Si55  1  0.47337961  0.62003564  0.08580284  1
  Si  Si56  1  0.83356531  0.04134534  0.08536692  1
  Si  Si57  1  0.18781315  0.33550832  0.08395043  1
  Si  Si58  1  0.68890005  0.33427219  0.08399235  1
  Si  Si59  1  0.31309600  0.67125250  0.91413880  1
  Si  Si60  1  0.01929991  0.37292654  0.91465077  1
  Si  Si61  1  0.52256728  0.38389812  0.91828543  1
  Si  Si62  1  0.16497092  0.95900334  0.92029212  1
  Si  Si63  1  0.66371296  0.94740977  0.91599003  1
  Si  Si64  1  0.81115165  0.95030624  0.41667813  1
  Si  Si65  1  0.16792896  0.37780462  0.41693961  1
  Si  Si66  1  0.66577637  0.37122381  0.42038111  1
  Si  Si67  1  0.02219664  0.65961864  0.41881941  1
  Si  Si68  1  0.51783335  0.66458865  0.41457123  1
  S  S69  1  0.64497887  -0.00023411  0.24944438  1
  S  S70  1  0.99922120  0.28529719  0.25060831  1
  S  S71  1  0.14512043  0.29063885  0.74989350  1
  S  S72  1  0.49795897  0.71356662  0.75101281  1
  S  S73  1  0.83190853  0.62100205  0.58321661  1
  S  S74  1  0.97939884  0.62384676  0.08249545  1
  S  S75  1  0.33133460  0.04158034  0.08303138  1
  S  S76  1  0.80898675  0.66350486  0.91761779  1
  S  S77  1  0.30866505  0.95382952  0.41740211  1
  O  O78  1  0.09421328  0.02375173  0.30633826  1
  O  O79  1  0.60714384  0.02940038  0.30151866  1
  O  O80  1  0.41711382  0.80198861  0.30597951  1
  O  O81  1  0.91698234  0.81491450  0.30649370  1
  O  O82  1  0.48751996  0.16985419  0.30521441  1
  O  O83  1  0.98814241  0.18365112  0.30288114  1
  O  O84  1  0.10599271  0.18505037  0.80201954  1
  O  O85  1  0.59521197  0.16634430  0.80695724  1
  O  O86  1  0.48991727  0.79618160  0.80441646  1
  O  O87  1  0.98753985  0.80455038  0.80605651  1
  O  O88  1  0.41680564  0.01783402  0.80682000  1
  O  O89  1  0.91655193  0.03230903  0.80676103  1
  O  O90  1  0.40268597  0.97177590  0.69318950  1
  O  O91  1  0.90290604  0.96472821  0.69401195  1
  O  O92  1  0.09001326  0.20973797  0.69707256  1
  O  O93  1  0.58141867  0.19214653  0.69367932  1
  O  O94  1  0.01878653  0.83980732  0.69344854  1
  O  O95  1  0.51460782  0.81663903  0.69833906  1
  O  O96  1  0.40343184  0.84088573  0.19358551  1
  O  O97  1  0.90357424  0.83345741  0.19294716  1
  O  O98  1  0.01411574  0.20858847  0.19703492  1
  O  O99  1  0.51851867  0.19712130  0.19296116  1
  O  O100  1  0.08113072  0.97232926  0.19377526  1
  O  O101  1  0.59035262  0.97193003  0.19647790  1
  O  O102  1  0.44122168  0.37261153  0.64060661  1
  O  O103  1  0.94093509  0.36938054  0.64485137  1
  O  O104  1  0.24045788  0.11469062  0.64443861  1
  O  O105  1  0.74642519  0.12459202  0.64013246  1
  O  O106  1  0.31351345  0.50475820  0.64210332  1
  O  O107  1  0.82139732  0.52714336  0.63762772  1
  O  O108  1  0.44058562  0.51192358  0.14445743  1
  O  O109  1  0.94188801  0.52341283  0.13566309  1
  O  O110  1  0.31987422  0.11333993  0.13746596  1
  O  O111  1  0.81882063  0.13104844  0.14066087  1
  O  O112  1  0.24537816  0.36945371  0.13999436  1
  O  O113  1  0.74248451  0.36606990  0.14349271  1
  O  O114  1  0.23389442  0.30617049  0.02561333  1
  O  O115  1  0.74030007  0.31016090  0.02767583  1
  O  O116  1  0.41476961  0.52435673  0.02767269  1
  O  O117  1  0.92642685  0.54432595  0.03055226  1
  O  O118  1  0.34552891  0.14794777  0.03150805  1
  O  O119  1  0.84843798  0.16556915  0.02648908  1
  O  O120  1  0.23619198  0.16849842  0.52707822  1
  O  O121  1  0.73476683  0.16493057  0.52589607  1
  O  O122  1  0.34883338  0.53350872  0.52720024  1
  O  O123  1  0.84674182  0.54306051  0.53160702  1
  O  O124  1  0.41725742  0.30741115  0.52520113  1
  O  O125  1  0.91518926  0.30528194  0.52762113  1
  O  O126  1  0.26644809  0.69472624  0.97256093  1
  O  O127  1  0.76673393  0.68656311  0.96887247  1
  O  O128  1  0.08236261  0.47664171  0.97152011  1
  O  O129  1  0.58459446  0.47368994  0.97369622  1
  O  O130  1  0.15655034  0.83374950  0.97509701  1
  O  O131  1  0.65535865  0.83327332  0.97260118  1
  O  O132  1  0.26652480  0.84620362  0.46821585  1
  O  O133  1  0.76660285  0.83482853  0.47365980  1
  O  O134  1  0.15494122  0.47679510  0.47182455  1
  O  O135  1  0.65673791  0.47917377  0.47380429  1
  O  O136  1  0.08479349  0.69590867  0.47349794  1
  O  O137  1  0.58081772  0.68843823  0.47094786  1
  O  O138  1  0.07060412  0.63992746  0.36016921  1
  O  O139  1  0.56792113  0.63825321  0.35687716  1
  O  O140  1  0.25645327  0.87091658  0.36204338  1
  O  O141  1  0.74993484  0.86178142  0.35908617  1
  O  O142  1  0.18045490  0.50132018  0.35910787  1
  O  O143  1  0.68284686  0.49475071  0.35989448  1
  O  O144  1  0.06695865  0.49723147  0.85747125  1
  O  O145  1  0.57055360  0.50222972  0.86057528  1
  O  O146  1  0.18217305  0.86857340  0.86086452  1
  O  O147  1  0.68111433  0.85995003  0.85869613  1
  O  O148  1  0.24933139  0.63647312  0.85911336  1
  O  O149  1  0.75743498  0.63706583  0.86303121  1
  O  O150  1  0.01340394  0.83309317  0.41065445  1
  O  O151  1  0.51096133  0.83413734  0.41224182  1
  O  O152  1  0.39428944  0.97071629  0.41161130  1
  O  O153  1  0.90720689  0.97875861  0.40694178  1
  O  O154  1  0.08098298  0.19105868  0.40684452  1
  O  O155  1  0.58222563  0.18801772  0.41244916  1
  O  O156  1  0.00983897  0.18781940  0.91368404  1
  O  O157  1  0.51342428  0.19305387  0.91062619  1
  O  O158  1  0.08137296  0.97525872  0.91379583  1
  O  O159  1  0.58073056  0.97156383  0.90814450  1
  O  O160  1  0.40790971  0.83684554  0.90844372  1
  O  O161  1  0.89494745  0.81701547  0.91258314  1
  O  O162  1  0.48803277  0.16584689  0.58718662  1
  O  O163  1  0.98705775  0.15800394  0.59197382  1
  O  O164  1  0.09148465  0.02216469  0.59105374  1
  O  O165  1  0.59193715  0.01854522  0.59164734  1
  O  O166  1  0.41991032  0.81380945  0.59210041  1
  O  O167  1  0.91284326  0.79934417  0.58777564  1
  O  O168  1  0.48737951  0.81646398  0.09164853  1
  O  O169  1  0.98787852  0.79907467  0.08817079  1
  O  O170  1  0.41123781  0.02305970  0.08748819  1
  O  O171  1  0.92011480  0.02323634  0.09187775  1
  O  O172  1  0.09093830  0.16261737  0.09177373  1
  O  O173  1  0.59237686  0.16075582  0.09020979  1
  O  O174  1  0.33915955  0.16330084  0.74947077  1
  O  O175  1  0.84624370  0.16745216  0.74594047  1
  O  O176  1  0.23124572  0.31043230  0.74391986  1
  O  O177  1  0.74148358  0.32814638  0.74613228  1
  O  O178  1  0.42332644  0.53932428  0.74765150  1
  O  O179  1  0.91670539  0.52260962  0.74395576  1
  O  O180  1  0.34611014  0.52514691  0.24539999  1
  O  O181  1  0.84140868  0.51670926  0.24685951  1
  O  O182  1  0.41637972  0.31005182  0.24305866  1
  O  O183  1  0.92461434  0.30977463  0.24382632  1
  O  O184  1  0.24062139  0.15397531  0.24497240  1
  O  O185  1  0.73155130  0.15399608  0.24278976  1
  O  O186  1  0.31950684  0.49676639  0.92205738  1
  O  O187  1  0.81791399  0.50741762  0.92376266  1
  O  O188  1  0.42682899  0.35787641  0.92609673  1
  O  O189  1  0.92789449  0.37207697  0.92664331  1
  O  O190  1  0.25514820  0.14263080  0.92730585  1
  O  O191  1  0.75045996  0.14238075  0.92356395  1
  O  O192  1  0.31526599  0.12388306  0.42052146  1
  O  O193  1  0.81966147  0.14111804  0.42207831  1
  O  O194  1  0.25209652  0.35519772  0.42297788  1
  O  O195  1  0.75579734  0.36657434  0.42617997  1
  O  O196  1  0.42619791  0.48497905  0.42269671  1
  O  O197  1  0.92665861  0.49472210  0.42514358  1
  O  O198  1  0.17431639  0.50429936  0.07394294  1
  O  O199  1  0.67785625  0.50185570  0.07257127  1
  O  O200  1  0.06789254  0.64859166  0.07660416  1
  O  O201  1  0.57166809  0.64896827  0.07422354  1
  O  O202  1  0.25531049  0.86467782  0.07678397  1
  O  O203  1  0.75135431  0.85182456  0.07202261  1
  O  O204  1  0.17699198  0.85270094  0.57194651  1
  O  O205  1  0.67834408  0.85103800  0.57339034  1
  O  O206  1  0.25146305  0.65191846  0.57146627  1
  O  O207  1  0.75717961  0.64728354  0.57715690  1
  O  O208  1  0.07162152  0.49379384  0.57464300  1
  O  O209  1  0.57778227  0.50282672  0.57400932  1
  O  O210  1  0.15146030  0.82234047  0.25902329  1
  O  O211  1  0.65090123  0.84037716  0.25364090  1
  O  O212  1  0.26058049  0.70385795  0.25677901  1
  O  O213  1  0.75925937  0.69083320  0.25676739  1
  O  O214  1  0.07975075  0.46120253  0.25530125  1
  O  O215  1  0.58881996  0.48599099  0.25469565  1
  O  O216  1  0.14990528  0.46183307  0.75458844  1
  O  O217  1  0.65170816  0.47867021  0.76039275  1
  O  O218  1  0.08873939  0.69235127  0.75554007  1
  O  O219  1  0.57909191  0.69535176  0.75723696  1
  O  O220  1  0.25967309  0.82690791  0.75827343  1
  O  O221  1  0.76077994  0.81767345  0.75791754  1
