# generated using pymatgen
data_Na2Ta2Al2Si3(SO8)3
_symmetry_space_group_name_H-M   'P 1'
_cell_length_a   8.66772392
_cell_length_b   8.66231886
_cell_length_c   22.52560350
_cell_angle_alpha   89.33485537
_cell_angle_beta   90.92133716
_cell_angle_gamma   119.73011250
_symmetry_Int_Tables_number   1
_chemical_formula_structural   Na2Ta2Al2Si3(SO8)3
_chemical_formula_sum   'Na6 Ta6 Al6 Si9 S9 O72'
_cell_volume   1468.45629672
_cell_formula_units_Z   3
loop_
 _symmetry_equiv_pos_site_id
 _symmetry_equiv_pos_as_xyz
  1  'x, y, z'
loop_
 _atom_site_type_symbol
 _atom_site_label
 _atom_site_symmetry_multiplicity
 _atom_site_fract_x
 _atom_site_fract_y
 _atom_site_fract_z
 _atom_site_occupancy
  Na  Na0  1  0.98370693  0.98137178  0.49034259  1
  Na  Na1  1  0.00671815  0.98865669  0.99650040  1
  Na  Na2  1  0.65036293  0.31581477  0.82398061  1
  Na  Na3  1  0.67212119  0.31905633  0.32796853  1
  Na  Na4  1  0.31508608  0.66053596  0.16826891  1
  Na  Na5  1  0.34584835  0.66137057  0.65857065  1
  Ta  Ta6  1  0.98926825  0.00116176  0.64426700  1
  Ta  Ta7  1  0.00637162  0.99614736  0.14889408  1
  Ta  Ta8  1  0.66557819  0.33429449  0.97828293  1
  Ta  Ta9  1  0.67722864  0.34515786  0.47407297  1
  Ta  Ta10  1  0.32044441  0.67568090  0.31156523  1
  Ta  Ta11  1  0.34720099  0.68303604  0.80729360  1
  Al  Al12  1  0.00723168  0.00674554  0.35559415  1
  Al  Al13  1  0.01986490  0.01541548  0.84859885  1
  Al  Al14  1  0.64134028  0.32531457  0.68838688  1
  Al  Al15  1  0.68916979  0.33976313  0.19449138  1
  Al  Al16  1  0.30811385  0.67498074  0.02196631  1
  Al  Al17  1  0.35819516  0.68440322  0.51533088  1
  Si  Si18  1  0.30250811  0.02350871  0.25383103  1
  Si  Si19  1  0.99913852  0.28177749  0.25362149  1
  Si  Si20  1  0.29155121  0.28336783  0.75138568  1
  Si  Si21  1  0.73120203  0.02411744  0.75285930  1
  Si  Si22  1  0.64991663  0.60983965  0.58545981  1
  Si  Si23  1  0.95468960  0.61560257  0.08718499  1
  Si  Si24  1  0.31520612  0.94970215  0.91747326  1
  Si  Si25  1  0.63262671  0.95040420  0.41759803  1
  Si  Si26  1  0.06195632  0.68711148  0.42112452  1
  S  S27  1  0.71301402  0.70750614  0.25106080  1
  S  S28  1  0.99235570  0.71103273  0.75132952  1
  S  S29  1  0.95562149  0.34238589  0.58495422  1
  S  S30  1  0.38121544  0.04300000  0.58462323  1
  S  S31  1  0.65856766  0.03784007  0.08370657  1
  S  S32  1  0.38043985  0.34308990  0.08262146  1
  S  S33  1  0.61899376  0.67319536  0.91949325  1
  S  S34  1  0.05112557  0.37896556  0.91857695  1
  S  S35  1  0.32706946  0.37997022  0.41826784  1
  O  O36  1  0.19934795  0.03466546  0.30949621  1
  O  O37  1  0.82200414  0.78629991  0.30353074  1
  O  O38  1  0.97074757  0.15683315  0.30894016  1
  O  O39  1  0.20578697  0.16674020  0.80957291  1
  O  O40  1  0.96963797  0.79290350  0.80455141  1
  O  O41  1  0.83946840  0.02853457  0.81192787  1
  O  O42  1  0.80407247  0.96974727  0.69326995  1
  O  O43  1  0.16676471  0.19344441  0.69163917  1
  O  O44  1  0.03078122  0.82297597  0.69719928  1
  O  O45  1  0.79464016  0.82150897  0.19511753  1
  O  O46  1  0.02323468  0.19022645  0.19073641  1
  O  O47  1  0.17083142  0.96829351  0.19194775  1
  O  O48  1  0.86922146  0.35674672  0.63758708  1
  O  O49  1  0.48933195  0.12412287  0.63871415  1
  O  O50  1  0.63973917  0.49400795  0.64294844  1
  O  O51  1  0.84484607  0.49068442  0.14121448  1
  O  O52  1  0.62940733  0.11712778  0.13569637  1
  O  O53  1  0.48477048  0.36422077  0.13570553  1
  O  O54  1  0.46099612  0.30671591  0.02817763  1
  O  O55  1  0.83229871  0.52270356  0.02551807  1
  O  O56  1  0.68412033  0.15193809  0.02872641  1
  O  O57  1  0.45957420  0.15205636  0.53114424  1
  O  O58  1  0.68658260  0.52080399  0.52651010  1
  O  O59  1  0.84382386  0.30508415  0.52996892  1
  O  O60  1  0.53057228  0.68736137  0.97187668  1
  O  O61  1  0.15916496  0.46246990  0.97235669  1
  O  O62  1  0.30164270  0.83290305  0.97506107  1
  O  O63  1  0.54432013  0.83425619  0.47586942  1
  O  O64  1  0.30713926  0.46294188  0.47155670  1
  O  O65  1  0.17447339  0.69228934  0.47894522  1
  O  O66  1  0.13161435  0.63400006  0.35969679  1
  O  O67  1  0.50199579  0.85827489  0.35863856  1
  O  O68  1  0.36360487  0.48824972  0.36378225  1
  O  O69  1  0.12481238  0.48698196  0.86480305  1
  O  O70  1  0.35573627  0.86011082  0.85932255  1
  O  O71  1  0.50827201  0.63670809  0.86395731  1
  O  O72  1  0.03475639  0.85328054  0.40887106  1
  O  O73  1  0.82829557  0.98341968  0.40728263  1
  O  O74  1  0.17311383  0.20259314  0.41258537  1
  O  O75  1  0.02379750  0.19843029  0.91366672  1
  O  O76  1  0.14058994  0.96913977  0.90769875  1
  O  O77  1  0.79549431  0.82608305  0.91230740  1
  O  O78  1  0.97251392  0.17397663  0.58795878  1
  O  O79  1  0.20077539  0.02704780  0.59065040  1
  O  O80  1  0.83595246  0.81036543  0.59157517  1
  O  O81  1  0.97140602  0.81507682  0.08826186  1
  O  O82  1  0.82415171  0.02748238  0.08622335  1
  O  O83  1  0.19915160  0.17975714  0.08564929  1
  O  O84  1  0.70463571  0.19048095  0.73833030  1
  O  O85  1  0.48842007  0.31524898  0.74328009  1
  O  O86  1  0.84153681  0.53329815  0.74371271  1
  O  O87  1  0.69372011  0.53185014  0.24088145  1
  O  O88  1  0.83195898  0.31321580  0.24469921  1
  O  O89  1  0.48960436  0.19224612  0.23628271  1
  O  O90  1  0.63563286  0.50577547  0.92359451  1
  O  O91  1  0.86685488  0.36119866  0.92483398  1
  O  O92  1  0.49832601  0.14988957  0.92514648  1
  O  O93  1  0.63743685  0.14510279  0.42643324  1
  O  O94  1  0.49005189  0.35746614  0.42395288  1
  O  O95  1  0.85926914  0.50301134  0.42509675  1
  O  O96  1  0.36516801  0.50257904  0.07077915  1
  O  O97  1  0.14939683  0.63438111  0.07822315  1
  O  O98  1  0.50555083  0.85780625  0.07357329  1
  O  O99  1  0.35801446  0.86335904  0.57946829  1
  O  O100  1  0.47795711  0.63490071  0.57538541  1
  O  O101  1  0.13235500  0.49484823  0.57805214  1
  O  O102  1  0.31811273  0.83876885  0.25476760  1
  O  O103  1  0.53576954  0.69192930  0.25360093  1
  O  O104  1  0.18543462  0.47599588  0.25642021  1
  O  O105  1  0.30252296  0.48056953  0.76031540  1
  O  O106  1  0.15783767  0.69327116  0.75728482  1
  O  O107  1  0.52800603  0.83989637  0.75789957  1
