# generated using pymatgen
data_Na3HfSi2SnPO12
_symmetry_space_group_name_H-M   'P 1'
_cell_length_a   9.07648747
_cell_length_b   9.06885371
_cell_length_c   22.63251858
_cell_angle_alpha   89.96544214
_cell_angle_beta   90.01276214
_cell_angle_gamma   120.06727802
_symmetry_Int_Tables_number   1
_chemical_formula_structural   Na3HfSi2SnPO12
_chemical_formula_sum   'Na18 Hf6 Si12 Sn6 P6 O72'
_cell_volume   1612.27389167
_cell_formula_units_Z   6
loop_
 _symmetry_equiv_pos_site_id
 _symmetry_equiv_pos_as_xyz
  1  'x, y, z'
loop_
 _atom_site_type_symbol
 _atom_site_label
 _atom_site_symmetry_multiplicity
 _atom_site_fract_x
 _atom_site_fract_y
 _atom_site_fract_z
 _atom_site_occupancy
  Na  Na0  1  0.99694090  0.99237656  0.50039516  1
  Na  Na1  1  0.00763654  0.00211825  0.00084254  1
  Na  Na2  1  0.66419574  0.32561731  0.83322410  1
  Na  Na3  1  0.67509933  0.33563570  0.33442007  1
  Na  Na4  1  0.33143619  0.65808503  0.16703704  1
  Na  Na5  1  0.34135438  0.66937059  0.66629164  1
  Na  Na6  1  0.64058298  0.00213911  0.25127027  1
  Na  Na7  1  0.99813902  0.63080924  0.25192346  1
  Na  Na8  1  -0.00001701  0.36080990  0.75077228  1
  Na  Na9  1  0.36848633  0.00121306  0.75092830  1
  Na  Na10  1  0.30548419  0.33451914  0.58453268  1
  Na  Na11  1  0.66519299  0.96419318  0.58483588  1
  Na  Na12  1  0.66473286  0.69329061  0.08452563  1
  Na  Na13  1  0.03477851  0.33420246  0.08547920  1
  Na  Na14  1  0.97391997  0.66825885  0.91769378  1
  Na  Na15  1  0.33169598  0.29851249  0.91839151  1
  Na  Na16  1  0.33155750  0.02656107  0.41814716  1
  Na  Na17  1  0.70249207  0.66922980  0.41858954  1
  Hf  Hf18  1  0.99818924  0.00647723  0.85196900  1
  Hf  Hf19  1  0.66560416  0.33937726  0.18635528  1
  Hf  Hf20  1  0.66349753  0.32698507  0.98153834  1
  Hf  Hf21  1  0.32684345  0.66816403  0.01936767  1
  Hf  Hf22  1  0.33104431  0.66085834  0.31458155  1
  Hf  Hf23  1  0.34091696  0.66949195  0.81386494  1
  Si  Si24  1  0.70837790  0.70938515  0.24976088  1
  Si  Si25  1  0.00171659  0.29181047  0.24875067  1
  Si  Si26  1  0.29407469  0.29333468  0.74839042  1
  Si  Si27  1  0.70691859  0.00104338  0.74662618  1
  Si  Si28  1  0.37194761  0.03897261  0.58319641  1
  Si  Si29  1  0.66755979  0.62659796  0.58171197  1
  Si  Si30  1  0.96058024  0.63005094  0.08371974  1
  Si  Si31  1  0.37019523  0.33044458  0.08256238  1
  Si  Si32  1  0.03880074  0.37366967  0.91618697  1
  Si  Si33  1  0.33423116  0.96172692  0.91485181  1
  Si  Si34  1  0.62880974  0.96291387  0.41708271  1
  Si  Si35  1  0.03872367  0.66529692  0.41590744  1
  Sn  Sn36  1  0.99517035  0.00058001  0.35241979  1
  Sn  Sn37  1  0.99784605  0.99281396  0.64768658  1
  Sn  Sn38  1  0.00669692  0.00284286  0.14817727  1
  Sn  Sn39  1  0.66192357  0.33452959  0.68490798  1
  Sn  Sn40  1  0.67223251  0.33566617  0.48173050  1
  Sn  Sn41  1  0.33267215  0.67207041  0.51841453  1
  P  P42  1  0.29183719  0.00114143  0.25185377  1
  P  P43  1  0.99782977  0.70561290  0.75059444  1
  P  P44  1  0.96095669  0.33580986  0.58439691  1
  P  P45  1  0.66593106  0.03960285  0.08494521  1
  P  P46  1  0.62576379  0.66764191  0.91826392  1
  P  P47  1  0.33047225  0.37257465  0.41827560  1
  O  O48  1  0.21697255  0.03300549  0.30849246  1
  O  O49  1  0.83078252  0.78613117  0.30831936  1
  O  O50  1  0.96090787  0.16588492  0.30542581  1
  O  O51  1  0.20501855  0.17000766  0.80618594  1
  O  O52  1  0.97020098  0.78629662  0.80632733  1
  O  O53  1  0.83231162  0.03362550  0.80276637  1
  O  O54  1  0.78663031  0.96886121  0.68654433  1
  O  O55  1  0.17287558  0.20974029  0.68968613  1
  O  O56  1  0.03700274  0.82210392  0.69607626  1
  O  O57  1  0.79056221  0.82991543  0.19080761  1
  O  O58  1  0.03401924  0.21370579  0.18811943  1
  O  O59  1  0.17359894  0.96091590  0.19783502  1
  O  O60  1  0.88555733  0.36678950  0.64125762  1
  O  O61  1  0.49425511  0.11839648  0.64173408  1
  O  O62  1  0.62689138  0.50176643  0.63866431  1
  O  O63  1  0.87319643  0.50743708  0.14156988  1
  O  O64  1  0.64053473  0.11984180  0.14142472  1
  O  O65  1  0.49554545  0.36105069  0.13840315  1
  O  O66  1  0.45727287  0.30498327  0.02320873  1
  O  O67  1  0.84000546  0.54108000  0.02561251  1
  O  O68  1  0.69537960  0.15782721  0.03167603  1
  O  O69  1  0.45463734  0.16097482  0.52433373  1
  O  O70  1  0.69935606  0.54742706  0.52132980  1
  O  O71  1  0.84242260  0.29775721  0.53059146  1
  O  O72  1  0.54654243  0.69415480  0.97426932  1
  O  O73  1  0.16102975  0.46047509  0.97427374  1
  O  O74  1  0.30322092  0.83642944  0.97097921  1
  O  O75  1  0.54934355  0.84088461  0.47584372  1
  O  O76  1  0.30087396  0.44749992  0.47550691  1
  O  O77  1  0.16336869  0.70545901  0.47293697  1
  O  O78  1  0.12511412  0.63860161  0.35681832  1
  O  O79  1  0.50730143  0.87366006  0.35925527  1
  O  O80  1  0.36007915  0.49097175  0.36540526  1
  O  O81  1  0.12942890  0.49354307  0.85821797  1
  O  O82  1  0.36027384  0.87422440  0.85577177  1
  O  O83  1  0.50910440  0.63706524  0.86459452  1
  O  O84  1  0.02856934  0.84336486  0.41159340  1
  O  O85  1  0.81427270  0.97341948  0.41288452  1
  O  O86  1  0.17757117  0.19045591  0.41109635  1
  O  O87  1  0.02772699  0.18823979  0.91133448  1
  O  O88  1  0.15810766  0.97197485  0.91089184  1
  O  O89  1  0.80718480  0.82102461  0.91024989  1
  O  O90  1  0.97696091  0.17215894  0.58840269  1
  O  O91  1  0.18824825  0.03324505  0.58868641  1
  O  O92  1  0.83052790  0.82135584  0.58679452  1
  O  O93  1  0.96618982  0.81347076  0.08892821  1
  O  O94  1  0.83087466  0.02617525  0.08756732  1
  O  O95  1  0.17628654  0.16644595  0.08670775  1
  O  O96  1  0.69932099  0.18041402  0.74394912  1
  O  O97  1  0.47884354  0.30168856  0.74573320  1
  O  O98  1  0.84230785  0.52400222  0.74404941  1
  O  O99  1  0.69490865  0.52298220  0.24433262  1
  O  O100  1  0.82649816  0.30419670  0.24449089  1
  O  O101  1  0.47256259  0.15369717  0.24414499  1
  O  O102  1  0.64134242  0.50432594  0.92249002  1
  O  O103  1  0.85600106  0.36587170  0.92264491  1
  O  O104  1  0.49625562  0.15491474  0.92062519  1
  O  O105  1  0.63251598  0.14610591  0.42241289  1
  O  O106  1  0.49593364  0.35961032  0.42120305  1
  O  O107  1  0.84408440  0.50175748  0.42046526  1
  O  O108  1  0.35924010  0.50608491  0.07852197  1
  O  O109  1  0.14522872  0.64072612  0.07875504  1
  O  O110  1  0.51321892  0.85946960  0.07760729  1
  O  O111  1  0.36157154  0.85351381  0.57897200  1
  O  O112  1  0.48971212  0.63690021  0.57740734  1
  O  O113  1  0.14243461  0.49017576  0.57735732  1
  O  O114  1  0.30844102  0.83820510  0.25706099  1
  O  O115  1  0.52469078  0.70048045  0.25606922  1
  O  O116  1  0.16362313  0.48590802  0.25436038  1
  O  O117  1  0.30303679  0.47688688  0.75505818  1
  O  O118  1  0.15933493  0.68765217  0.75618101  1
  O  O119  1  0.51368071  0.84017433  0.75331416  1
