# generated using pymatgen
data_Na2TaAl3Si2(SO6)4
_symmetry_space_group_name_H-M   'P 1'
_cell_length_a   8.52597202
_cell_length_b   8.49443521
_cell_length_c   22.14577674
_cell_angle_alpha   90.17431236
_cell_angle_beta   89.32549389
_cell_angle_gamma   119.99505404
_symmetry_Int_Tables_number   1
_chemical_formula_structural   Na2TaAl3Si2(SO6)4
_chemical_formula_sum   'Na6 Ta3 Al9 Si6 S12 O72'
_cell_volume   1388.95817390
_cell_formula_units_Z   3
loop_
 _symmetry_equiv_pos_site_id
 _symmetry_equiv_pos_as_xyz
  1  'x, y, z'
loop_
 _atom_site_type_symbol
 _atom_site_label
 _atom_site_symmetry_multiplicity
 _atom_site_fract_x
 _atom_site_fract_y
 _atom_site_fract_z
 _atom_site_occupancy
  Na  Na0  1  0.00159821  0.99252098  0.49767865  1
  Na  Na1  1  0.99971308  0.97980905  0.99859725  1
  Na  Na2  1  0.64400747  0.32699107  0.83165402  1
  Na  Na3  1  0.68536370  0.33920147  0.33195401  1
  Na  Na4  1  0.31739194  0.65614122  0.15878873  1
  Na  Na5  1  0.32911166  0.65401343  0.66595150  1
  Ta  Ta6  1  0.66800479  0.34844160  0.97848801  1
  Ta  Ta7  1  0.31260663  0.65313346  0.31002133  1
  Ta  Ta8  1  0.34416914  0.66576981  0.81238531  1
  Al  Al9  1  0.99354403  0.99287512  0.35192452  1
  Al  Al10  1  0.01858279  0.00116885  0.85771494  1
  Al  Al11  1  0.00602462  0.00895601  0.64921569  1
  Al  Al12  1  0.00133532  0.00240266  0.14337347  1
  Al  Al13  1  0.65601196  0.33343319  0.68780125  1
  Al  Al14  1  0.69436811  0.33836585  0.18610179  1
  Al  Al15  1  0.67587365  0.34000835  0.48062158  1
  Al  Al16  1  0.33526486  0.68490313  0.02019961  1
  Al  Al17  1  0.32352612  0.67340167  0.51715448  1
  Si  Si18  1  0.98007822  0.25819640  0.24908329  1
  Si  Si19  1  0.28266576  0.27488398  0.74749032  1
  Si  Si20  1  0.97161089  0.63450917  0.08715945  1
  Si  Si21  1  0.62977549  0.68868171  0.92055724  1
  Si  Si22  1  0.32827423  0.95339995  0.91880107  1
  Si  Si23  1  0.03341224  0.67258570  0.42156277  1
  S  S24  1  0.28958395  0.01153914  0.24874883  1
  S  S25  1  0.71832842  0.71125600  0.24951457  1
  S  S26  1  0.99229893  0.71141015  0.74640435  1
  S  S27  1  0.72243726  0.00955383  0.74667630  1
  S  S28  1  0.95149089  0.33110357  0.58355998  1
  S  S29  1  0.38210122  0.04657310  0.58245148  1
  S  S30  1  0.66576153  0.62367355  0.58300841  1
  S  S31  1  0.66772113  0.04362505  0.08624132  1
  S  S32  1  0.37771466  0.33416306  0.08810277  1
  S  S33  1  0.04990172  0.37568039  0.91835304  1
  S  S34  1  0.62135789  0.95602306  0.42004096  1
  S  S35  1  0.33452604  0.37689889  0.42060992  1
  O  O36  1  0.20814555  0.02989415  0.30513513  1
  O  O37  1  0.82539749  0.78689717  0.30475522  1
  O  O38  1  0.96914538  0.15682384  0.31146129  1
  O  O39  1  0.18595768  0.15949456  0.80718905  1
  O  O40  1  0.95800322  0.78440816  0.80148454  1
  O  O41  1  0.82013148  0.03103234  0.80150416  1
  O  O42  1  0.79728872  0.96949319  0.69171282  1
  O  O43  1  0.16692867  0.19789277  0.68668609  1
  O  O44  1  0.01947523  0.82194085  0.69134737  1
  O  O45  1  0.79652099  0.82255392  0.19554076  1
  O  O46  1  0.02860998  0.18239432  0.19016927  1
  O  O47  1  0.17554852  0.96483662  0.19561677  1
  O  O48  1  0.86791736  0.36224204  0.63787121  1
  O  O49  1  0.49380900  0.13032296  0.63640640  1
  O  O50  1  0.63538321  0.51006059  0.63732112  1
  O  O51  1  0.86971160  0.50422896  0.14363569  1
  O  O52  1  0.63259481  0.12583782  0.14012306  1
  O  O53  1  0.49000832  0.35469778  0.14048589  1
  O  O54  1  0.45777594  0.30064611  0.03096454  1
  O  O55  1  0.83953867  0.53685204  0.02698104  1
  O  O56  1  0.69473897  0.15362291  0.03103413  1
  O  O57  1  0.46672631  0.16102937  0.52812533  1
  O  O58  1  0.69657301  0.54044776  0.52869805  1
  O  O59  1  0.84051368  0.30409589  0.52946968  1
  O  O60  1  0.52491764  0.69508397  0.97937027  1
  O  O61  1  0.15796427  0.45675242  0.97186860  1
  O  O62  1  0.29542005  0.83019894  0.97622374  1
  O  O63  1  0.53758667  0.83765730  0.47387472  1
  O  O64  1  0.30865139  0.46778737  0.47380883  1
  O  O65  1  0.16714050  0.70649254  0.47697109  1
  O  O66  1  0.13181432  0.63544575  0.36037890  1
  O  O67  1  0.51267152  0.87536063  0.36479256  1
  O  O68  1  0.37273276  0.49268696  0.36445007  1
  O  O69  1  0.12561145  0.48985295  0.86200879  1
  O  O70  1  0.36093076  0.86577165  0.85556411  1
  O  O71  1  0.50142207  0.63086888  0.85844627  1
  O  O72  1  0.01949300  0.85123125  0.40639213  1
  O  O73  1  0.80282904  0.97729603  0.41324572  1
  O  O74  1  0.17027984  0.20090688  0.41263513  1
  O  O75  1  0.02539568  0.19642077  0.90899257  1
  O  O76  1  0.15858491  0.98122334  0.91149032  1
  O  O77  1  0.81884979  0.86056097  0.90408831  1
  O  O78  1  0.96564290  0.16363138  0.58880526  1
  O  O79  1  0.19686093  0.02106635  0.58834503  1
  O  O80  1  0.83005605  0.80689941  0.59028177  1
  O  O81  1  0.98398737  0.83101757  0.09323845  1
  O  O82  1  0.83300297  0.03068464  0.09162119  1
  O  O83  1  0.19740635  0.17018701  0.09109723  1
  O  O84  1  0.70370101  0.17225412  0.73738321  1
  O  O85  1  0.48812019  0.30665496  0.74059120  1
  O  O86  1  0.83506189  0.52520149  0.73781704  1
  O  O87  1  0.68345928  0.52396346  0.24336391  1
  O  O88  1  0.81240892  0.29574959  0.24505608  1
  O  O89  1  0.46887459  0.17263911  0.24126725  1
  O  O90  1  0.64875986  0.50353871  0.92276609  1
  O  O91  1  0.86802366  0.36002717  0.92287102  1
  O  O92  1  0.51782110  0.14914815  0.92453903  1
  O  O93  1  0.63269922  0.13471006  0.42856581  1
  O  O94  1  0.49449447  0.35501218  0.42756744  1
  O  O95  1  0.83925814  0.48758501  0.42719219  1
  O  O96  1  0.36554275  0.49802589  0.07981194  1
  O  O97  1  0.16233844  0.64023095  0.07650001  1
  O  O98  1  0.50757805  0.86113857  0.08099592  1
  O  O99  1  0.36868563  0.86442918  0.57650321  1
  O  O100  1  0.50207194  0.64216864  0.57536144  1
  O  O101  1  0.13699016  0.49349856  0.57654198  1
  O  O102  1  0.31893752  0.84668434  0.25644252  1
  O  O103  1  0.53663008  0.70048184  0.25864051  1
  O  O104  1  0.17061725  0.47132768  0.25649420  1
  O  O105  1  0.30504492  0.48285939  0.75295034  1
  O  O106  1  0.15855334  0.69587910  0.75085528  1
  O  O107  1  0.53309298  0.84466713  0.75022051  1
