# generated using pymatgen
data_NaY2Nb2P5SO24
_symmetry_space_group_name_H-M   'P 1'
_cell_length_a   8.99629116
_cell_length_b   9.00657503
_cell_length_c   23.41010109
_cell_angle_alpha   89.77216911
_cell_angle_beta   90.01466837
_cell_angle_gamma   119.90177797
_symmetry_Int_Tables_number   1
_chemical_formula_structural   NaY2Nb2P5SO24
_chemical_formula_sum   'Na3 Y6 Nb6 P15 S3 O72'
_cell_volume   1644.30278707
_cell_formula_units_Z   3
loop_
 _symmetry_equiv_pos_site_id
 _symmetry_equiv_pos_as_xyz
  1  'x, y, z'
loop_
 _atom_site_type_symbol
 _atom_site_label
 _atom_site_symmetry_multiplicity
 _atom_site_fract_x
 _atom_site_fract_y
 _atom_site_fract_z
 _atom_site_occupancy
  Na  Na0  1  0.00075698  0.99977978  0.00314021  1
  Na  Na1  1  0.66646808  0.33247570  0.83210393  1
  Na  Na2  1  0.66842026  0.33361332  0.33626250  1
  Y  Y3  1  0.99547613  0.99543790  0.64728824  1
  Y  Y4  1  0.00298728  0.00194143  0.14611518  1
  Y  Y5  1  0.66448369  0.33946005  0.68723884  1
  Y  Y6  1  0.66665843  0.33363994  0.97481896  1
  Y  Y7  1  0.66952002  0.33869898  0.48045244  1
  Y  Y8  1  0.33034089  0.66709849  0.30893349  1
  Nb  Nb9  1  0.00864723  0.01086923  0.35819800  1
  Nb  Nb10  1  0.99975965  0.00007003  0.85463602  1
  Nb  Nb11  1  0.66478339  0.32479096  0.18474106  1
  Nb  Nb12  1  0.33167074  0.66537008  0.02406874  1
  Nb  Nb13  1  0.33987028  0.66821792  0.51588952  1
  Nb  Nb14  1  0.33399471  0.66659535  0.81152656  1
  P  P15  1  0.29525620  0.01568550  0.25086712  1
  P  P16  1  0.98578009  0.28036352  0.25066609  1
  P  P17  1  0.28776156  0.29091867  0.75394808  1
  P  P18  1  0.00253999  0.71128767  0.75456712  1
  P  P19  1  0.70855577  0.99930758  0.75440072  1
  P  P20  1  0.65880655  0.62781621  0.58201681  1
  P  P21  1  0.95609038  0.61642360  0.08182470  1
  P  P22  1  0.65870252  0.03920166  0.08113950  1
  P  P23  1  0.38278195  0.34002124  0.08162770  1
  P  P24  1  0.61865224  0.67662752  0.91572806  1
  P  P25  1  0.05793417  0.38096507  0.91569964  1
  P  P26  1  0.32396600  0.94216449  0.91540549  1
  P  P27  1  0.62823260  0.95468884  0.41425261  1
  P  P28  1  0.33071096  0.37692616  0.41515257  1
  P  P29  1  0.04743596  0.67448805  0.41510952  1
  S  S30  1  0.71779308  0.70196590  0.25084771  1
  S  S31  1  0.97285863  0.34491971  0.58165805  1
  S  S32  1  0.37304115  0.02825323  0.58159733  1
  O  O33  1  0.20185012  0.04170693  0.30433937  1
  O  O34  1  0.82708379  0.78526933  0.30196023  1
  O  O35  1  0.95914447  0.16200324  0.30460729  1
  O  O36  1  0.18607785  0.17097544  0.80698866  1
  O  O37  1  0.98343746  0.81234416  0.80713791  1
  O  O38  1  0.82840907  0.01657025  0.80720077  1
  O  O39  1  0.77877600  0.96477615  0.70079637  1
  O  O40  1  0.18415815  0.22082775  0.70023206  1
  O  O41  1  0.03811021  0.81553664  0.70056897  1
  O  O42  1  0.79104839  0.80092051  0.19866267  1
  O  O43  1  0.00722985  0.20049709  0.19743266  1
  O  O44  1  0.19151138  0.98780226  0.19765313  1
  O  O45  1  0.89712608  0.37566358  0.63331914  1
  O  O46  1  0.48011899  0.10146195  0.63322979  1
  O  O47  1  0.61933591  0.51527729  0.63568538  1
  O  O48  1  0.86428207  0.49895242  0.13623832  1
  O  O49  1  0.63426693  0.13167842  0.13629030  1
  O  O50  1  0.49827975  0.36297259  0.13591531  1
  O  O51  1  0.46221389  0.31363283  0.02881074  1
  O  O52  1  0.85083423  0.53769569  0.02894126  1
  O  O53  1  0.68759133  0.14893297  0.02917805  1
  O  O54  1  0.45262724  0.13552873  0.53141164  1
  O  O55  1  0.68593731  0.54421876  0.53024499  1
  O  O56  1  0.86347805  0.31268359  0.53174124  1
  O  O57  1  0.53162538  0.69797843  0.97038133  1
  O  O58  1  0.16596081  0.46752045  0.97051282  1
  O  O59  1  0.30161335  0.83332939  0.97032024  1
  O  O60  1  0.53479649  0.83644292  0.46857437  1
  O  O61  1  0.30329522  0.46658230  0.46881464  1
  O  O62  1  0.16355753  0.69985447  0.46878764  1
  O  O63  1  0.12518838  0.64597015  0.36248611  1
  O  O64  1  0.52133220  0.87490561  0.36221390  1
  O  O65  1  0.35817952  0.48137578  0.36225103  1
  O  O66  1  0.15208733  0.49181831  0.86300050  1
  O  O67  1  0.34065147  0.84855036  0.86283703  1
  O  O68  1  0.50834691  0.66013717  0.86294851  1
  O  O69  1  0.03715752  0.84438182  0.40485470  1
  O  O70  1  0.80653921  0.96176132  0.40537548  1
  O  O71  1  0.15755931  0.19781571  0.40754582  1
  O  O72  1  0.04158171  0.19915031  0.90912999  1
  O  O73  1  0.15804459  0.95843279  0.90870144  1
  O  O74  1  0.80030914  0.84210334  0.90895472  1
  O  O75  1  0.00179567  0.20009281  0.58961387  1
  O  O76  1  0.20109843  0.00436601  0.58946674  1
  O  O77  1  0.80608632  0.80843850  0.59030159  1
  O  O78  1  0.98952131  0.79766159  0.08933955  1
  O  O79  1  0.80548907  0.00451005  0.08933848  1
  O  O80  1  0.20019301  0.19292343  0.08843098  1
  O  O81  1  0.69045945  0.15871531  0.75296214  1
  O  O82  1  0.46514262  0.30716097  0.75348404  1
  O  O83  1  0.84288044  0.53366532  0.75325243  1
  O  O84  1  0.70487237  0.52769598  0.24412698  1
  O  O85  1  0.81509787  0.29334443  0.24168601  1
  O  O86  1  0.47667633  0.18698771  0.24139464  1
  O  O87  1  0.63993873  0.51956758  0.91673990  1
  O  O88  1  0.87974955  0.36031873  0.91690208  1
  O  O89  1  0.48099626  0.12017747  0.91683843  1
  O  O90  1  0.66152704  0.13516194  0.42381366  1
  O  O91  1  0.47418182  0.33675665  0.42321623  1
  O  O92  1  0.86536463  0.52608232  0.42258761  1
  O  O93  1  0.37349680  0.51031893  0.07241540  1
  O  O94  1  0.13607933  0.62612044  0.07236953  1
  O  O95  1  0.48818744  0.86246315  0.07259261  1
  O  O96  1  0.35607730  0.85491024  0.57075169  1
  O  O97  1  0.49239719  0.64343800  0.56708993  1
  O  O98  1  0.14370771  0.50333982  0.57033847  1
  O  O99  1  0.33274934  0.87279848  0.26018630  1
  O  O100  1  0.54506089  0.67439910  0.25786547  1
  O  O101  1  0.13243992  0.45846545  0.25952705  1
  O  O102  1  0.30858274  0.47103933  0.76707399  1
  O  O103  1  0.16277869  0.69154325  0.76746793  1
  O  O104  1  0.52921359  0.83808003  0.76729325  1
