# generated using pymatgen
data_Ho(AlCl4)3
_symmetry_space_group_name_H-M   'P 1'
_cell_length_a   10.61770188
_cell_length_b   10.61916136
_cell_length_c   15.68970621
_cell_angle_alpha   90.02527642
_cell_angle_beta   89.98666927
_cell_angle_gamma   120.00303394
_symmetry_Int_Tables_number   1
_chemical_formula_structural   Ho(AlCl4)3
_chemical_formula_sum   'Ho3 Al9 Cl36'
_cell_volume   1531.97920454
_cell_formula_units_Z   3
loop_
 _symmetry_equiv_pos_site_id
 _symmetry_equiv_pos_as_xyz
  1  'x, y, z'
loop_
 _atom_site_type_symbol
 _atom_site_label
 _atom_site_symmetry_multiplicity
 _atom_site_fract_x
 _atom_site_fract_y
 _atom_site_fract_z
 _atom_site_occupancy
  Ho  Ho0  1  0.98976103  0.49487359  0.00000702  1
  Ho  Ho1  1  0.50511744  0.01041402  0.66670850  1
  Ho  Ho2  1  0.50512000  0.49471459  0.33328942  1
  Al  Al3  1  0.72997027  0.26986754  0.83346315  1
  Al  Al4  1  0.12764473  0.76352630  0.60286639  1
  Al  Al5  1  0.23687631  0.36447556  0.93591184  1
  Al  Al6  1  0.63558009  0.87227548  0.26945567  1
  Al  Al7  1  0.72997281  0.46013238  0.16653580  1
  Al  Al8  1  0.54011920  0.27005904  0.49999956  1
  Al  Al9  1  0.12763907  0.36413881  0.39713558  1
  Al  Al10  1  0.63560760  0.76333318  0.73053984  1
  Al  Al11  1  0.23687672  0.87240521  0.06408543  1
  Cl  Cl12  1  0.00447987  0.84079559  0.54257731  1
  Cl  Cl13  1  0.83619536  0.99545425  0.20919510  1
  Cl  Cl14  1  0.15930648  0.16395863  0.87549352  1
  Cl  Cl15  1  0.79124913  0.59058275  0.28022074  1
  Cl  Cl16  1  0.40931050  0.20066916  0.61346788  1
  Cl  Cl17  1  0.79936867  0.20845498  0.94686670  1
  Cl  Cl18  1  0.40932292  0.20864223  0.38652634  1
  Cl  Cl19  1  0.79937609  0.59091114  0.05314426  1
  Cl  Cl20  1  0.79125100  0.20066937  0.71978227  1
  Cl  Cl21  1  0.22377655  0.34259929  0.27713257  1
  Cl  Cl22  1  0.65718505  0.88099769  0.61061881  1
  Cl  Cl23  1  0.11904323  0.77630202  0.94413487  1
  Cl  Cl24  1  0.65718456  0.77619137  0.38937391  1
  Cl  Cl25  1  0.11904377  0.34274111  0.05586506  1
  Cl  Cl26  1  0.22377877  0.88118052  0.72286842  1
  Cl  Cl27  1  0.50467794  0.66108714  0.20299253  1
  Cl  Cl28  1  0.33868808  0.84356299  0.53637184  1
  Cl  Cl29  1  0.15653750  0.49530715  0.86958961  1
  Cl  Cl30  1  0.33869103  0.49513764  0.46362214  1
  Cl  Cl31  1  0.15653596  0.66122782  0.13040905  1
  Cl  Cl32  1  0.50470027  0.84360443  0.79700796  1
  Cl  Cl33  1  0.66625566  0.50032646  0.48328030  1
  Cl  Cl34  1  0.49975272  0.16605595  0.81666742  1
  Cl  Cl35  1  0.83422005  0.33408849  0.14975161  1
  Cl  Cl36  1  0.49975150  0.33369350  0.18333508  1
  Cl  Cl37  1  0.83421661  0.50012852  0.85025043  1
  Cl  Cl38  1  0.66625342  0.16591321  0.51672308  1
  Cl  Cl39  1  0.03091666  0.49154650  0.37594991  1
  Cl  Cl40  1  0.50782353  0.53910334  0.70960057  1
  Cl  Cl41  1  0.46104381  0.96899547  0.04282660  1
  Cl  Cl42  1  0.50781148  0.96870502  0.29038792  1
  Cl  Cl43  1  0.46103424  0.49201270  0.95716487  1
  Cl  Cl44  1  0.03090807  0.53936285  0.62407370  1
  Cl  Cl45  1  0.00449378  0.16366325  0.45743724  1
  Cl  Cl46  1  0.83619992  0.84074193  0.79079851  1
  Cl  Cl47  1  0.15933059  0.99536584  0.12449563  1
