# generated using pymatgen
data_Na14Hf4Zr4Si11SO48
_symmetry_space_group_name_H-M   'P 1'
_cell_length_a   18.45220090
_cell_length_b   9.22530359
_cell_length_c   22.96745844
_cell_angle_alpha   90.01525828
_cell_angle_beta   90.01090653
_cell_angle_gamma   120.00100566
_symmetry_Int_Tables_number   1
_chemical_formula_structural   Na14Hf4Zr4Si11SO48
_chemical_formula_sum   'Na42 Hf12 Zr12 Si33 S3 O144'
_cell_volume   3385.85195891
_cell_formula_units_Z   3
loop_
 _symmetry_equiv_pos_site_id
 _symmetry_equiv_pos_as_xyz
  1  'x, y, z'
loop_
 _atom_site_type_symbol
 _atom_site_label
 _atom_site_symmetry_multiplicity
 _atom_site_fract_x
 _atom_site_fract_y
 _atom_site_fract_z
 _atom_site_occupancy
  Na  Na0  1  0.32073510  -0.00001205  0.24998045  1
  Na  Na1  1  0.82062970  0.00004283  0.24999845  1
  Na  Na2  1  0.32054650  0.64196770  0.75082574  1
  Na  Na3  1  0.81728908  0.63302016  0.74945344  1
  Na  Na4  1  0.50069540  0.36406964  0.75120723  1
  Na  Na5  1  0.68412519  0.00244966  0.74944905  1
  Na  Na6  1  0.15032035  0.33500363  0.58092795  1
  Na  Na7  1  0.65075989  0.33274314  0.58371984  1
  Na  Na8  1  0.01602713  0.69438458  0.58352858  1
  Na  Na9  1  0.51751508  0.70226929  0.58277358  1
  Na  Na10  1  0.33316594  0.96559613  0.58352668  1
  Na  Na11  1  0.83205038  0.96895148  0.58318743  1
  Na  Na12  1  0.15076506  0.96749157  0.08141577  1
  Na  Na13  1  0.65102889  0.96863607  0.08130501  1
  Na  Na14  1  0.33219444  0.69643196  0.08328277  1
  Na  Na15  1  0.83201233  0.69596377  0.08348555  1
  Na  Na16  1  0.01697977  0.33703555  0.08314044  1
  Na  Na17  1  0.51705916  0.33619338  0.08326530  1
  Na  Na18  1  0.48300116  0.66705772  0.91654549  1
  Na  Na19  1  0.98390815  0.66289475  0.91686127  1
  Na  Na20  1  0.34998611  0.03300626  0.91655919  1
  Na  Na21  1  0.84877317  0.03492333  0.91679025  1
  Na  Na22  1  0.16720298  0.30350613  0.91910037  1
  Na  Na23  1  0.66652093  0.29829667  0.91662004  1
  Na  Na24  1  0.48420645  0.30393829  0.41629649  1
  Na  Na25  1  0.98359644  0.30353685  0.41674006  1
  Na  Na26  1  0.16670427  0.03138772  0.41832838  1
  Na  Na27  1  0.66698331  0.03270963  0.41884648  1
  Na  Na28  1  0.34904453  0.66382702  0.41637886  1
  Na  Na29  1  0.84850478  0.66287000  0.41671547  1
  Na  Na30  1  0.00081897  0.00092917  0.49979503  1
  Na  Na31  1  0.50080232  0.99963295  0.50107085  1
  Na  Na32  1  0.00129073  0.00178474  0.00028129  1
  Na  Na33  1  0.50047530  -0.00000403  0.99883509  1
  Na  Na34  1  0.33361987  0.32701092  0.83443579  1
  Na  Na35  1  0.83769641  0.33423035  0.83110617  1
  Na  Na36  1  0.33817146  0.34838695  0.33174869  1
  Na  Na37  1  0.83796994  0.34823370  0.33189330  1
  Na  Na38  1  0.16387177  0.65174162  0.16796185  1
  Na  Na39  1  0.66396924  0.65161079  0.16822417  1
  Na  Na40  1  0.16346019  0.67538555  0.66792413  1
  Na  Na41  1  0.66718190  0.66733014  0.66683962  1
  Hf  Hf42  1  0.83638872  0.33489397  0.68644121  1
  Hf  Hf43  1  0.33865905  0.34718184  0.18494948  1
  Hf  Hf44  1  0.83867523  0.34726215  0.18476945  1
  Hf  Hf45  1  0.83336629  0.33360081  0.98144933  1
  Hf  Hf46  1  0.83398658  0.33252048  0.48146335  1
  Hf  Hf47  1  0.16674096  0.66598102  0.01855624  1
  Hf  Hf48  1  0.66695446  0.66657908  0.01884281  1
  Hf  Hf49  1  0.66670087  0.66716302  0.51830618  1
  Hf  Hf50  1  0.16468340  0.65287213  0.31473895  1
  Hf  Hf51  1  0.66530713  0.65275583  0.31507627  1
  Hf  Hf52  1  0.16448565  0.67597497  0.81558958  1
  Hf  Hf53  1  0.66725064  0.66764415  0.81483584  1
  Zr  Zr54  1  0.99379750  0.99623000  0.35203654  1
  Zr  Zr55  1  0.49475822  0.99689952  0.35214709  1
  Zr  Zr56  1  0.99472383  0.99157977  0.85290931  1
  Zr  Zr57  1  0.49968025  0.00057093  0.85134580  1
  Zr  Zr58  1  0.99564053  0.98811147  0.64727409  1
  Zr  Zr59  1  0.50012561  0.00009695  0.64932931  1
  Zr  Zr60  1  0.99568586  0.00307729  0.14773052  1
  Zr  Zr61  1  0.49624862  0.00375440  0.14787928  1
  Zr  Zr62  1  0.33548415  0.32849818  0.68343349  1
  Zr  Zr63  1  0.33357827  0.33530394  0.98188904  1
  Zr  Zr64  1  0.33365137  0.33376122  0.48129395  1
  Zr  Zr65  1  0.16607479  0.66572954  0.51794484  1
  Si  Si66  1  0.35041836  0.70069599  0.25016020  1
  Si  Si67  1  0.85022200  0.70018129  0.25005496  1
  Si  Si68  1  -0.00007786  0.29931444  0.24973046  1
  Si  Si69  1  0.50012560  0.29958336  0.24987891  1
  Si  Si70  1  0.64812725  0.29616831  0.75010906  1
  Si  Si71  1  0.00172196  0.70347118  0.74970636  1
  Si  Si72  1  0.49942674  0.70356079  0.75046689  1
  Si  Si73  1  0.35024397  0.99679980  0.75028605  1
  Si  Si74  1  0.85235908  0.00231614  0.75035296  1
  Si  Si75  1  0.48189102  0.33420911  0.58233920  1
  Si  Si76  1  0.97960350  0.33350173  0.58305287  1
  Si  Si77  1  0.18615447  0.03975572  0.58250476  1
  Si  Si78  1  0.68792936  0.04182952  0.58346303  1
  Si  Si79  1  0.33292035  0.62654756  0.58429748  1
  Si  Si80  1  0.83163422  0.62153735  0.58318909  1
  Si  Si81  1  0.48153615  0.62848731  0.08275276  1
  Si  Si82  1  0.98073502  0.62704473  0.08205801  1
  Si  Si83  1  0.33134051  0.04099925  0.08454969  1
  Si  Si84  1  0.83143008  0.04235657  0.08422029  1
  Si  Si85  1  0.18746122  0.33331080  0.08361119  1
  Si  Si86  1  0.68826295  0.33334712  0.08308587  1
  Si  Si87  1  0.31141036  0.66583739  0.91531608  1
  Si  Si88  1  0.81158773  0.66357402  0.91715757  1
  Si  Si89  1  0.02114739  0.37579759  0.91707393  1
  Si  Si90  1  0.52099654  0.37545669  0.91665825  1
  Si  Si91  1  0.16696013  0.96030493  0.91793979  1
  Si  Si92  1  0.66708768  0.95936149  0.91708988  1
  Si  Si93  1  0.31097730  0.95789220  0.41503963  1
  Si  Si94  1  0.81031212  0.95783671  0.41568400  1
  Si  Si95  1  0.16662614  0.37152340  0.41696387  1
  Si  Si96  1  0.66735736  0.37323462  0.41803575  1
  Si  Si97  1  0.02063867  0.66660872  0.41633242  1
  Si  Si98  1  0.52217035  0.66795886  0.41648165  1
  S  S99  1  0.14707480  0.00011896  0.24996673  1
  S  S100  1  0.64726807  0.00004614  0.24998044  1
  S  S101  1  0.14631507  0.29390008  0.75026032  1
  O  O102  1  0.10686634  0.02221962  0.30271555  1
  O  O103  1  0.60709018  0.02235628  0.30270855  1
  O  O104  1  0.40921562  0.79246464  0.30792371  1
  O  O105  1  0.90887066  0.79190117  0.30779005  1
  O  O106  1  0.48625313  0.17763190  0.30672098  1
  O  O107  1  0.98605956  0.17768089  0.30666645  1
  O  O108  1  0.10638114  0.19158285  0.80293064  1
  O  O109  1  0.60410579  0.17608174  0.80713547  1
  O  O110  1  0.48348218  0.79141802  0.80737957  1
  O  O111  1  0.98726608  0.79653348  0.80676118  1
  O  O112  1  0.41114382  0.03146147  0.80739222  1
  O  O113  1  0.91004940  0.02658040  0.80801112  1
  O  O114  1  0.39547642  0.96910395  0.69263149  1
  O  O115  1  0.89715458  0.97069517  0.69350097  1
  O  O116  1  0.09591915  0.21371766  0.69731873  1
  O  O117  1  0.58776195  0.20977894  0.69302355  1
  O  O118  1  0.01411574  0.82084384  0.69208349  1
  O  O119  1  0.51579464  0.82211621  0.69297396  1
  O  O120  1  0.39755025  0.82257194  0.19331433  1
  O  O121  1  0.89725696  0.82211775  0.19321264  1
  O  O122  1  0.01271900  0.20710430  0.19213051  1
  O  O123  1  0.51298523  0.20788981  0.19213982  1
  O  O124  1  0.09574277  0.97779952  0.19723914  1
  O  O125  1  0.59590487  0.97780350  0.19730717  1
  O  O126  1  0.43863759  0.36728034  0.63994428  1
  O  O127  1  0.93338024  0.36649524  0.63779124  1
  O  O128  1  0.24848036  0.13181545  0.63773603  1
  O  O129  1  0.74705610  0.12896426  0.64059605  1
  O  O130  1  0.31692610  0.50774691  0.64168143  1
  O  O131  1  0.81642763  0.50575045  0.64065004  1
  O  O132  1  0.43559900  0.50181496  0.13762056  1
  O  O133  1  0.93547837  0.50194919  0.13749842  1
  O  O134  1  0.31588666  0.12782012  0.14159509  1
  O  O135  1  0.81594540  0.12801557  0.14159243  1
  O  O136  1  0.25058256  0.36501765  0.13789969  1
  O  O137  1  0.75065088  0.36528882  0.13789804  1
  O  O138  1  0.22745711  0.29909813  0.02458950  1
  O  O139  1  0.72984167  0.30098686  0.02455695  1
  O  O140  1  0.42238258  0.54792465  0.02486983  1
  O  O141  1  0.92105826  0.54355409  0.02454734  1
  O  O142  1  0.34965155  0.15920337  0.02670955  1
  O  O143  1  0.84907428  0.16099538  0.02660712  1
  O  O144  1  0.22765734  0.15575865  0.52433053  1
  O  O145  1  0.73138986  0.15967826  0.52576872  1
  O  O146  1  0.34874840  0.53945483  0.52685174  1
  O  O147  1  0.84931463  0.53815910  0.52576009  1
  O  O148  1  0.42161053  0.30113136  0.52570883  1
  O  O149  1  0.92139275  0.29865397  0.52461276  1
  O  O150  1  0.26789587  0.69651842  0.97317261  1
  O  O151  1  0.76974699  0.69849296  0.97439825  1
  O  O152  1  0.07902166  0.45886033  0.97552447  1
  O  O153  1  0.57994456  0.46307721  0.97410390  1
  O  O154  1  0.14935334  0.84190104  0.97557876  1
  O  O155  1  0.65170216  0.84056740  0.97433145  1
  O  O156  1  0.27033142  0.84104907  0.47317570  1
  O  O157  1  0.76879195  0.83945464  0.47336257  1
  O  O158  1  0.14843347  0.45196652  0.47517574  1
  O  O159  1  0.64940819  0.45707383  0.47540207  1
  O  O160  1  0.07788154  0.70097358  0.47527154  1
  O  O161  1  0.57922869  0.69912375  0.47530605  1
  O  O162  1  0.06786113  0.63507765  0.36200204  1
  O  O163  1  0.56878389  0.63630744  0.36185434  1
  O  O164  1  0.25197088  0.87058758  0.35817667  1
  O  O165  1  0.75212185  0.87208318  0.35828763  1
  O  O166  1  0.18360940  0.49789792  0.36217387  1
  O  O167  1  0.68477514  0.49823937  0.36252218  1
  O  O168  1  0.06720182  0.50003683  0.86209740  1
  O  O169  1  0.56494191  0.49332341  0.85934556  1
  O  O170  1  0.18357223  0.86955802  0.86241563  1
  O  O171  1  0.68284824  0.87230675  0.85966222  1
  O  O172  1  0.25210461  0.63328449  0.85810615  1
  O  O173  1  0.75369569  0.63488121  0.85960511  1
  O  O174  1  0.01244817  0.83561596  0.40965583  1
  O  O175  1  0.51398521  0.83711173  0.41010696  1
  O  O176  1  0.40512250  0.97688879  0.41081071  1
  O  O177  1  0.90461693  0.97705895  0.41132725  1
  O  O178  1  0.08404073  0.18499927  0.40936114  1
  O  O179  1  0.58455853  0.18681163  0.40986645  1
  O  O180  1  0.01324645  0.19043984  0.91035548  1
  O  O181  1  0.51197745  0.18929537  0.91215177  1
  O  O182  1  0.08421200  0.98166660  0.91026953  1
  O  O183  1  0.58296113  0.97705244  0.91216628  1
  O  O184  1  0.40477584  0.83434564  0.91146198  1
  O  O185  1  0.90539160  0.83293604  0.91209927  1
  O  O186  1  0.48980885  0.16587275  0.58790811  1
  O  O187  1  0.99047527  0.16791271  0.59048604  1
  O  O188  1  0.09431468  0.02596413  0.58935454  1
  O  O189  1  0.59447559  0.02257402  0.58824841  1
  O  O190  1  0.41720177  0.81203789  0.58866973  1
  O  O191  1  0.91629460  0.80987067  0.58807425  1
  O  O192  1  0.49223451  0.81485360  0.09082698  1
  O  O193  1  0.99119853  0.81366157  0.09005687  1
  O  O194  1  0.41594621  0.02173252  0.08914168  1
  O  O195  1  0.91612306  0.02304724  0.08861823  1
  O  O196  1  0.09474773  0.16425331  0.09024322  1
  O  O197  1  0.59538292  0.16443719  0.08980639  1
  O  O198  1  0.34526607  0.16943270  0.74496950  1
  O  O199  1  0.83841932  0.16287968  0.74492434  1
  O  O200  1  0.23171978  0.31405910  0.74585219  1
  O  O201  1  0.74024625  0.31305680  0.74415420  1
  O  O202  1  0.41391701  0.51886245  0.74558249  1
  O  O203  1  0.91310584  0.52579073  0.74416816  1
  O  O204  1  0.34025759  0.51518862  0.24434434  1
  O  O205  1  0.84016787  0.51487708  0.24435591  1
  O  O206  1  0.41042180  0.29763575  0.24445511  1
  O  O207  1  0.91030328  0.29751683  0.24441439  1
  O  O208  1  0.23199116  0.15019965  0.24501051  1
  O  O209  1  0.73213004  0.15031293  0.24502027  1
  O  O210  1  0.32095893  0.49818398  0.92098641  1
  O  O211  1  0.82195311  0.49775285  0.92236021  1
  O  O212  1  0.42787078  0.35711702  0.92126646  1
  O  O213  1  0.92746444  0.35528476  0.92266963  1
  O  O214  1  0.25116045  0.14553285  0.92179082  1
  O  O215  1  0.75148696  0.14511233  0.92270473  1
  O  O216  1  0.32194667  0.14499249  0.42084220  1
  O  O217  1  0.82140564  0.14523160  0.42215233  1
  O  O218  1  0.25117253  0.35624535  0.42115947  1
  O  O219  1  0.75150400  0.35631530  0.42318417  1
  O  O220  1  0.42843785  0.50121502  0.42137712  1
  O  O221  1  0.92728676  0.49913424  0.42201060  1
  O  O222  1  0.17791315  0.50096686  0.07797452  1
  O  O223  1  0.67820242  0.50051487  0.07746215  1
  O  O224  1  0.07323136  0.64367947  0.07718558  1
  O  O225  1  0.57379301  0.64416903  0.07759368  1
  O  O226  1  0.24878343  0.85373842  0.07788619  1
  O  O227  1  0.74900507  0.85475753  0.07775081  1
  O  O228  1  0.17697225  0.85407637  0.57839393  1
  O  O229  1  0.67894460  0.85527490  0.57738523  1
  O  O230  1  0.24907250  0.64432246  0.57875500  1
  O  O231  1  0.74919798  0.64428907  0.57734970  1
  O  O232  1  0.07254416  0.50118681  0.57829968  1
  O  O233  1  0.57394514  0.50323779  0.57774576  1
  O  O234  1  0.15688532  0.84988041  0.25493992  1
  O  O235  1  0.65704094  0.84983327  0.25495575  1
  O  O236  1  0.26157345  0.70222421  0.25543739  1
  O  O237  1  0.76160763  0.70239995  0.25539034  1
  O  O238  1  0.08249809  0.48474075  0.25529416  1
  O  O239  1  0.58271117  0.48497362  0.25559594  1
  O  O240  1  0.15634150  0.46372268  0.75504906  1
  O  O241  1  0.65612536  0.48100891  0.75602505  1
  O  O242  1  0.08412856  0.68308535  0.75537909  1
  O  O243  1  0.58326961  0.68563103  0.75589764  1
  O  O244  1  0.26111637  0.82104961  0.75592542  1
  O  O245  1  0.76028723  0.82993320  0.75557190  1
