# generated using pymatgen
data_MgVZn2WO6
_symmetry_space_group_name_H-M   'P 1'
_cell_length_a   5.28084916
_cell_length_b   5.95711833
_cell_length_c   7.95797826
_cell_angle_alpha   99.20397916
_cell_angle_beta   131.53836131
_cell_angle_gamma   116.35443265
_symmetry_Int_Tables_number   1
_chemical_formula_structural   MgVZn2WO6
_chemical_formula_sum   'Mg1 V1 Zn2 W1 O6'
_cell_volume   123.52256831
_cell_formula_units_Z   1
loop_
 _symmetry_equiv_pos_site_id
 _symmetry_equiv_pos_as_xyz
  1  'x, y, z'
loop_
 _atom_site_type_symbol
 _atom_site_label
 _atom_site_symmetry_multiplicity
 _atom_site_fract_x
 _atom_site_fract_y
 _atom_site_fract_z
 _atom_site_occupancy
  Mg  Mg0  1  0.00138900  0.30314900  0.34227800  1
  V  V1  1  0.00193700  0.93427400  0.52703300  1
  Zn  Zn2  1  0.00213800  0.63341000  0.17779700  1
  Zn  Zn3  1  0.00164600  0.47120900  0.75863400  1
  W  W4  1  0.00168200  0.99408400  0.99701700  1
  O  O5  1  0.73577100  0.84119800  0.13238900  1
  O  O6  1  0.35504900  0.13653200  0.92817900  1
  O  O7  1  0.35011400  0.48515700  0.27620000  1
  O  O8  1  0.30058400  0.78375100  0.57508200  1
  O  O9  1  0.65114000  0.10719500  0.39831200  1
  O  O10  1  0.61756800  0.45731700  0.74848700  1
