# generated using pymatgen
data_Ca(IO3)2
_symmetry_space_group_name_H-M   'P 1'
_cell_length_a   11.30565065
_cell_length_b   7.15431743
_cell_length_c   8.66786617
_cell_angle_alpha   53.46625823
_cell_angle_beta   90.00000000
_cell_angle_gamma   90.00000000
_symmetry_Int_Tables_number   1
_chemical_formula_structural   Ca(IO3)2
_chemical_formula_sum   'Ca4 I8 O24'
_cell_volume   563.33316417
_cell_formula_units_Z   4
loop_
 _symmetry_equiv_pos_site_id
 _symmetry_equiv_pos_as_xyz
  1  'x, y, z'
loop_
 _atom_site_type_symbol
 _atom_site_label
 _atom_site_symmetry_multiplicity
 _atom_site_fract_x
 _atom_site_fract_y
 _atom_site_fract_z
 _atom_site_occupancy
  Ca  Ca0  1  0.90082481  0.22910747  0.99404063  1
  Ca  Ca1  1  0.09917519  0.77089253  0.00595937  1
  Ca  Ca2  1  0.59917519  0.22910747  0.49404063  1
  Ca  Ca3  1  0.40082481  0.77089253  0.50595937  1
  I  I4  1  0.78484510  0.68470831  0.05168092  1
  I  I5  1  0.21515490  0.31529169  0.94831908  1
  I  I6  1  0.71515490  0.68470831  0.55168092  1
  I  I7  1  0.28484510  0.31529169  0.44831908  1
  I  I8  1  0.42528857  0.76275100  0.96754402  1
  I  I9  1  0.92528857  0.23724900  0.53245598  1
  I  I10  1  0.57471143  0.23724900  0.03245598  1
  I  I11  1  0.07471143  0.76275100  0.46754402  1
  O  O12  1  0.03945331  0.02346142  0.67281555  1
  O  O13  1  0.79449880  0.05525632  0.62270035  1
  O  O14  1  0.75452236  0.54431676  0.80135304  1
  O  O15  1  0.53945331  0.97653858  0.82718445  1
  O  O16  1  0.90668798  0.37685202  0.65208761  1
  O  O17  1  0.60943072  0.47052453  0.59370843  1
  O  O18  1  0.10175375  0.12032553  0.97456573  1
  O  O19  1  0.25452236  0.45568324  0.69864696  1
  O  O20  1  0.60175375  0.87967447  0.52543427  1
  O  O21  1  0.24547764  0.45568324  0.19864696  1
  O  O22  1  0.59331202  0.37685202  0.15208761  1
  O  O23  1  0.70550120  0.05525632  0.12270035  1
  O  O24  1  0.46054669  0.02346142  0.17281555  1
  O  O25  1  0.89056928  0.47052453  0.09370843  1
  O  O26  1  0.39824625  0.12032553  0.47456573  1
  O  O27  1  0.96054669  0.97653858  0.32718445  1
  O  O28  1  0.74547764  0.54431676  0.30135304  1
  O  O29  1  0.20550120  0.94474368  0.37729965  1
  O  O30  1  0.39056928  0.52947547  0.40629157  1
  O  O31  1  0.09331202  0.62314798  0.34791239  1
  O  O32  1  0.40668798  0.62314798  0.84791239  1
  O  O33  1  0.29449880  0.94474368  0.87729965  1
  O  O34  1  0.10943072  0.52947547  0.90629157  1
  O  O35  1  0.89824625  0.87967447  0.02543427  1
