# generated using pymatgen
data_NaCaTa3(PO4)6
_symmetry_space_group_name_H-M   'P 1'
_cell_length_a   8.84538483
_cell_length_b   8.84538454
_cell_length_c   23.04443415
_cell_angle_alpha   90.00000000
_cell_angle_beta   90.00000000
_cell_angle_gamma   120.00000113
_symmetry_Int_Tables_number   1
_chemical_formula_structural   NaCaTa3(PO4)6
_chemical_formula_sum   'Na3 Ca3 Ta9 P18 O72'
_cell_volume   1561.45734705
_cell_formula_units_Z   3
loop_
 _symmetry_equiv_pos_site_id
 _symmetry_equiv_pos_as_xyz
  1  'x, y, z'
loop_
 _atom_site_type_symbol
 _atom_site_label
 _atom_site_symmetry_multiplicity
 _atom_site_fract_x
 _atom_site_fract_y
 _atom_site_fract_z
 _atom_site_occupancy
  Na  Na0  1  0.00000000  0.00000000  0.98660998  1
  Na  Na1  1  0.66666700  0.33333300  0.84247746  1
  Na  Na2  1  0.66666700  0.33333300  0.34139535  1
  Ca  Ca3  1  0.00000000  0.00000000  0.85377882  1
  Ca  Ca4  1  0.66666700  0.33333300  0.97733616  1
  Ca  Ca5  1  0.66666700  0.33333300  0.47984194  1
  Ta  Ta6  1  0.00000000  0.00000000  0.35928930  1
  Ta  Ta7  1  0.00000000  0.00000000  0.65022696  1
  Ta  Ta8  1  0.00000000  0.00000000  0.14782178  1
  Ta  Ta9  1  0.66666700  0.33333300  0.68363482  1
  Ta  Ta10  1  0.66666700  0.33333300  0.18437616  1
  Ta  Ta11  1  0.33333300  0.66666700  0.02056274  1
  Ta  Ta12  1  0.33333300  0.66666700  0.52596551  1
  Ta  Ta13  1  0.33333300  0.66666700  0.30907001  1
  Ta  Ta14  1  0.33333300  0.66666700  0.80948132  1
  P  P15  1  0.28751569  0.00469688  0.25163453  1
  P  P16  1  0.71718119  0.71248431  0.25163453  1
  P  P17  1  0.99530312  0.28281881  0.25163453  1
  P  P18  1  0.29691993  0.29424267  0.74972999  1
  P  P19  1  0.99732274  0.70308007  0.74972999  1
  P  P20  1  0.70575733  0.00267726  0.74972999  1
  P  P21  1  0.95851982  0.32817104  0.58312496  1
  P  P22  1  0.36965222  0.04148018  0.58312496  1
  P  P23  1  0.67182896  0.63034778  0.58312496  1
  P  P24  1  0.96121868  0.62766380  0.08412775  1
  P  P25  1  0.66644612  0.03878132  0.08412775  1
  P  P26  1  0.37233620  0.33355388  0.08412775  1
  P  P27  1  0.61560820  0.66710368  0.91568591  1
  P  P28  1  0.05149448  0.38439180  0.91568591  1
  P  P29  1  0.33289632  0.94850552  0.91568591  1
  P  P30  1  0.61499634  0.94466532  0.41451163  1
  P  P31  1  0.32966798  0.38500366  0.41451163  1
  P  P32  1  0.05533468  0.67033202  0.41451163  1
  O  O33  1  0.19895051  0.03287993  0.30495846  1
  O  O34  1  0.83392942  0.80104949  0.30495846  1
  O  O35  1  0.96712007  0.16607058  0.30495846  1
  O  O36  1  0.23908467  0.18724200  0.80376866  1
  O  O37  1  0.94815734  0.76091533  0.80376866  1
  O  O38  1  0.81275800  0.05184266  0.80376866  1
  O  O39  1  0.80137453  0.97634031  0.69689153  1
  O  O40  1  0.17496578  0.19862547  0.69689153  1
  O  O41  1  0.02365969  0.82503422  0.69689153  1
  O  O42  1  0.80264105  0.82718314  0.19816910  1
  O  O43  1  0.02454209  0.19735895  0.19816910  1
  O  O44  1  0.17281686  0.97545791  0.19816910  1
  O  O45  1  0.86844981  0.36276962  0.63524818  1
  O  O46  1  0.49432081  0.13155019  0.63524818  1
  O  O47  1  0.63723038  0.50567919  0.63524818  1
  O  O48  1  0.86155332  0.50507569  0.13908886  1
  O  O49  1  0.64352337  0.13844668  0.13908886  1
  O  O50  1  0.49492431  0.35647663  0.13908886  1
  O  O51  1  0.43080048  0.28154993  0.03182000  1
  O  O52  1  0.85075045  0.56919952  0.03182000  1
  O  O53  1  0.71845007  0.14924955  0.03182000  1
  O  O54  1  0.42992367  0.14316812  0.52828842  1
  O  O55  1  0.71324545  0.57007633  0.52828842  1
  O  O56  1  0.85683188  0.28675455  0.52828842  1
  O  O57  1  0.51029432  0.66903183  0.97282966  1
  O  O58  1  0.15873651  0.48970568  0.97282966  1
  O  O59  1  0.33096817  0.84126349  0.97282966  1
  O  O60  1  0.53008350  0.83486848  0.46949039  1
  O  O61  1  0.30478399  0.46991650  0.46949039  1
  O  O62  1  0.16513152  0.69521601  0.46949039  1
  O  O63  1  0.15662215  0.66175542  0.35988687  1
  O  O64  1  0.50513227  0.84337785  0.35988687  1
  O  O65  1  0.33824458  0.49486773  0.35988687  1
  O  O66  1  0.15747241  0.49131557  0.86058017  1
  O  O67  1  0.33384217  0.84252759  0.86058017  1
  O  O68  1  0.50868443  0.66615783  0.86058017  1
  O  O69  1  0.04701388  0.84336049  0.40422922  1
  O  O70  1  0.79634661  0.95298612  0.40422922  1
  O  O71  1  0.15663951  0.20365339  0.40422922  1
  O  O72  1  0.05042459  0.21421927  0.92014382  1
  O  O73  1  0.16379469  0.94957541  0.92014382  1
  O  O74  1  0.78578073  0.83620531  0.92014382  1
  O  O75  1  0.99291426  0.17974524  0.60132567  1
  O  O76  1  0.18683098  0.00708574  0.60132567  1
  O  O77  1  0.82025476  0.81316902  0.60132567  1
  O  O78  1  0.99051964  0.81308498  0.10229995  1
  O  O79  1  0.82256534  0.00948036  0.10229995  1
  O  O80  1  0.18691502  0.17743466  0.10229995  1
  O  O81  1  0.67515230  0.15732530  0.73233714  1
  O  O82  1  0.48217400  0.32484770  0.73233714  1
  O  O83  1  0.84267470  0.51782600  0.73233714  1
  O  O84  1  0.69485752  0.52863032  0.24164653  1
  O  O85  1  0.83377379  0.30514248  0.24164653  1
  O  O86  1  0.47136968  0.16622621  0.24164653  1
  O  O87  1  0.61698855  0.49847373  0.91340004  1
  O  O88  1  0.88148617  0.38301145  0.91340004  1
  O  O89  1  0.50152627  0.11851383  0.91340004  1
  O  O90  1  0.63772258  0.12326361  0.41280256  1
  O  O91  1  0.48554204  0.36227742  0.41280256  1
  O  O92  1  0.87673639  0.51445796  0.41280256  1
  O  O93  1  0.35419752  0.49650756  0.07951486  1
  O  O94  1  0.14230904  0.64580248  0.07951486  1
  O  O95  1  0.50349244  0.85769096  0.07951486  1
  O  O96  1  0.35298970  0.85524603  0.57431020  1
  O  O97  1  0.50225533  0.64701030  0.57431020  1
  O  O98  1  0.14475397  0.49774467  0.57431020  1
  O  O99  1  0.30845360  0.84274179  0.26075814  1
  O  O100  1  0.53428719  0.69154640  0.26075814  1
  O  O101  1  0.15725821  0.46571281  0.26075814  1
  O  O102  1  0.31513899  0.47723759  0.75566273  1
  O  O103  1  0.16209760  0.68486101  0.75566273  1
  O  O104  1  0.52276241  0.83790240  0.75566273  1
