# generated using pymatgen
data_BiOF
_symmetry_space_group_name_H-M   'P 1'
_cell_length_a   3.73599655
_cell_length_b   3.73599655
_cell_length_c   6.18163436
_cell_angle_alpha   90.00000000
_cell_angle_beta   90.00000000
_cell_angle_gamma   90.00000000
_symmetry_Int_Tables_number   1
_chemical_formula_structural   BiOF
_chemical_formula_sum   'Bi2 O2 F2'
_cell_volume   86.28121383
_cell_formula_units_Z   2
loop_
 _symmetry_equiv_pos_site_id
 _symmetry_equiv_pos_as_xyz
  1  'x, y, z'
loop_
 _atom_site_type_symbol
 _atom_site_label
 _atom_site_symmetry_multiplicity
 _atom_site_fract_x
 _atom_site_fract_y
 _atom_site_fract_z
 _atom_site_occupancy
  Bi  Bi0  1  0.75000000  0.75000000  0.79044075  1
  Bi  Bi1  1  0.25000000  0.25000000  0.20955925  1
  O  O2  1  0.75000000  0.25000000  0.00000000  1
  O  O3  1  0.25000000  0.75000000  0.00000000  1
  F  F4  1  0.25000000  0.25000000  0.65018892  1
  F  F5  1  0.75000000  0.75000000  0.34981108  1
