# generated using pymatgen
data_Na6La2Nb2Si5SO24
_symmetry_space_group_name_H-M   'P 1'
_cell_length_a   9.42060342
_cell_length_b   9.41293445
_cell_length_c   23.05800698
_cell_angle_alpha   89.77832203
_cell_angle_beta   90.56776583
_cell_angle_gamma   119.90112355
_symmetry_Int_Tables_number   1
_chemical_formula_structural   Na6La2Nb2Si5SO24
_chemical_formula_sum   'Na18 La6 Nb6 Si15 S3 O72'
_cell_volume   1772.41878683
_cell_formula_units_Z   3
loop_
 _symmetry_equiv_pos_site_id
 _symmetry_equiv_pos_as_xyz
  1  'x, y, z'
loop_
 _atom_site_type_symbol
 _atom_site_label
 _atom_site_symmetry_multiplicity
 _atom_site_fract_x
 _atom_site_fract_y
 _atom_site_fract_z
 _atom_site_occupancy
  Na  Na0  1  0.65638360  0.01983755  0.24796263  1
  Na  Na1  1  0.35729479  0.33839059  0.25519077  1
  Na  Na2  1  0.99450881  0.63540999  0.24976920  1
  Na  Na3  1  0.98603986  0.34991135  0.74589087  1
  Na  Na4  1  0.29777083  0.34255908  0.58217738  1
  Na  Na5  1  0.65785248  0.95206107  0.57994219  1
  Na  Na6  1  0.68673357  0.69673455  0.07300852  1
  Na  Na7  1  0.01861297  0.33474680  0.08154199  1
  Na  Na8  1  0.95280811  0.66519762  0.90481584  1
  Na  Na9  1  0.72401950  0.03662451  0.91276287  1
  Na  Na10  1  0.32472755  0.30637824  0.90540966  1
  Na  Na11  1  0.69887666  0.67876806  0.41594385  1
  Na  Na12  1  0.01511872  0.02576007  0.49856812  1
  Na  Na13  1  0.98721243  0.99681151  0.99788184  1
  Na  Na14  1  0.66215464  0.34749873  0.82828855  1
  Na  Na15  1  0.66320757  0.31776642  0.33738003  1
  Na  Na16  1  0.33346550  0.69960574  0.16383737  1
  Na  Na17  1  0.33068349  0.68254809  0.66545212  1
  La  La18  1  0.00929547  0.01744970  0.35435723  1
  La  La19  1  0.99311057  0.99631238  0.83190711  1
  La  La20  1  0.66757502  0.32865975  0.17859344  1
  La  La21  1  0.68695096  0.34405012  0.98357695  1
  La  La22  1  0.33792426  0.68024703  0.01473091  1
  La  La23  1  0.31934154  0.66460121  0.52405264  1
  Nb  Nb24  1  0.99214704  0.98852261  0.64964696  1
  Nb  Nb25  1  0.99355745  0.99153237  0.15607742  1
  Nb  Nb26  1  0.66590287  0.33662705  0.68527259  1
  Nb  Nb27  1  0.65131378  0.31805720  0.48396091  1
  Nb  Nb28  1  0.35115532  0.67154686  0.31502169  1
  Nb  Nb29  1  0.33658390  0.65028604  0.80469957  1
  Si  Si30  1  0.29647494  0.98877287  0.25331515  1
  Si  Si31  1  0.69651691  0.70158526  0.25531088  1
  Si  Si32  1  0.01332051  0.30856737  0.24922198  1
  Si  Si33  1  0.30614171  0.29614420  0.74800263  1
  Si  Si34  1  0.00234231  0.69246367  0.74998936  1
  Si  Si35  1  0.68909400  0.99826768  0.74721836  1
  Si  Si36  1  0.94196729  0.31421975  0.58730750  1
  Si  Si37  1  0.36827686  0.05303005  0.58811336  1
  Si  Si38  1  0.68448806  0.62522747  0.58348708  1
  Si  Si39  1  0.98258188  0.66009049  0.08827335  1
  Si  Si40  1  0.67949084  0.01745493  0.08785729  1
  Si  Si41  1  0.62964562  0.66514391  0.91293871  1
  Si  Si42  1  0.03987190  0.37114132  0.91156959  1
  Si  Si43  1  0.62099274  0.96875978  0.42252932  1
  Si  Si44  1  0.35303377  0.37832463  0.42236986  1
  S  S45  1  0.33918568  0.31681324  0.08410176  1
  S  S46  1  0.33618323  0.96680437  0.90801405  1
  S  S47  1  0.02097080  0.64261093  0.41245477  1
  O  O48  1  0.22654342  0.03586879  0.30775444  1
  O  O49  1  0.80316358  0.76383407  0.31304849  1
  O  O50  1  0.95393219  0.18128150  0.30163127  1
  O  O51  1  0.25372862  0.21263587  0.81058079  1
  O  O52  1  0.96711922  0.74445696  0.81199183  1
  O  O53  1  0.79286404  0.05347383  0.80721168  1
  O  O54  1  0.80576285  0.97324812  0.69669789  1
  O  O55  1  0.16168595  0.18992917  0.69769082  1
  O  O56  1  0.02040563  0.83322354  0.69961784  1
  O  O57  1  0.80562514  0.83561467  0.20033231  1
  O  O58  1  0.03950499  0.20727876  0.19255278  1
  O  O59  1  0.16555709  0.97101651  0.19806108  1
  O  O60  1  0.84287621  0.32467903  0.64282815  1
  O  O61  1  0.49103245  0.17247753  0.63810748  1
  O  O62  1  0.67910356  0.51009002  0.63739300  1
  O  O63  1  0.88899150  0.55434603  0.14464897  1
  O  O64  1  0.65895871  0.09876751  0.14615042  1
  O  O65  1  0.43490468  0.33709857  0.13735194  1
  O  O66  1  0.42601738  0.30799430  0.03199364  1
  O  O67  1  0.86487108  0.58320351  0.02962789  1
  O  O68  1  0.70416341  0.13010323  0.02927477  1
  O  O69  1  0.46500038  0.17009644  0.52784530  1
  O  O70  1  0.69857012  0.52993167  0.52435602  1
  O  O71  1  0.82138335  0.30127891  0.53006187  1
  O  O72  1  0.55933524  0.68363988  0.97451127  1
  O  O73  1  0.12821817  0.45056624  0.97309248  1
  O  O74  1  0.32151532  0.88717175  0.96480114  1
  O  O75  1  0.53816307  0.87179995  0.48105814  1
  O  O76  1  0.34128133  0.46401263  0.48053623  1
  O  O77  1  0.11575991  0.66135342  0.46583324  1
  O  O78  1  0.11455779  0.64136469  0.36020342  1
  O  O79  1  0.49408467  0.85785687  0.36412384  1
  O  O80  1  0.36514986  0.50701394  0.36447522  1
  O  O81  1  0.15816836  0.49521603  0.85628892  1
  O  O82  1  0.34039014  0.86462757  0.86023212  1
  O  O83  1  0.50164246  0.66334875  0.85892536  1
  O  O84  1  0.98874256  0.78042087  0.41159139  1
  O  O85  1  0.79304324  0.97215915  0.41708949  1
  O  O86  1  0.20285996  0.19491377  0.41981058  1
  O  O87  1  0.02279164  0.18993415  0.90845437  1
  O  O88  1  0.19230647  0.99120748  0.90504842  1
  O  O89  1  0.81316893  0.82427036  0.90813930  1
  O  O90  1  0.94888641  0.13931828  0.59153141  1
  O  O91  1  0.18913994  0.04481757  0.59331834  1
  O  O92  1  0.84799621  0.81253724  0.59341766  1
  O  O93  1  0.99076306  0.84049253  0.09562640  1
  O  O94  1  0.85961914  0.02188823  0.09336364  1
  O  O95  1  0.17704962  0.16459487  0.08664974  1
  O  O96  1  0.66475929  0.15520915  0.73287127  1
  O  O97  1  0.49295343  0.33865110  0.73526885  1
  O  O98  1  0.85065911  0.50563201  0.73694716  1
  O  O99  1  0.63704219  0.51269025  0.24239203  1
  O  O100  1  0.87103261  0.35608251  0.24238437  1
  O  O101  1  0.48329794  0.13411808  0.24511179  1
  O  O102  1  0.62300965  0.48827566  0.90832625  1
  O  O103  1  0.86231969  0.36536572  0.90664324  1
  O  O104  1  0.49027109  0.12795213  0.90780222  1
  O  O105  1  0.63475372  0.15293125  0.42468418  1
  O  O106  1  0.53473483  0.38458316  0.42162392  1
  O  O107  1  0.86174913  0.48587991  0.41396381  1
  O  O108  1  0.31373480  0.45968435  0.08137345  1
  O  O109  1  0.15686887  0.66628033  0.08616132  1
  O  O110  1  0.53762231  0.82552511  0.08677627  1
  O  O111  1  0.36855450  0.88307803  0.59015157  1
  O  O112  1  0.52336484  0.64546706  0.58659744  1
  O  O113  1  0.12862817  0.46318140  0.58882690  1
  O  O114  1  0.28911579  0.80755000  0.25890627  1
  O  O115  1  0.52524828  0.71723738  0.25960314  1
  O  O116  1  0.19314830  0.48018205  0.26014477  1
  O  O117  1  0.31029831  0.47895194  0.75193533  1
  O  O118  1  0.17147648  0.67754029  0.75286917  1
  O  O119  1  0.51134932  0.82687218  0.75390634  1
