# generated using pymatgen
data_Na3MgGe(PO4)3
_symmetry_space_group_name_H-M   'P 1'
_cell_length_a   8.74186921
_cell_length_b   8.74231773
_cell_length_c   21.76178066
_cell_angle_alpha   89.99999999
_cell_angle_beta   90.11919824
_cell_angle_gamma   120.00169934
_symmetry_Int_Tables_number   1
_chemical_formula_structural   Na3MgGe(PO4)3
_chemical_formula_sum   'Na18 Mg6 Ge6 P18 O72'
_cell_volume   1440.28109796
_cell_formula_units_Z   6
loop_
 _symmetry_equiv_pos_site_id
 _symmetry_equiv_pos_as_xyz
  1  'x, y, z'
loop_
 _atom_site_type_symbol
 _atom_site_label
 _atom_site_symmetry_multiplicity
 _atom_site_fract_x
 _atom_site_fract_y
 _atom_site_fract_z
 _atom_site_occupancy
  Na  Na0  1  0.99083990  0.98042747  0.49713442  1
  Na  Na1  1  0.99083990  0.01041243  0.99713442  1
  Na  Na2  1  0.66730448  0.33528625  0.83042798  1
  Na  Na3  1  0.66730448  0.33201723  0.33042798  1
  Na  Na4  1  0.33235082  0.66574441  0.16378170  1
  Na  Na5  1  0.33235082  0.66660741  0.66378170  1
  Na  Na6  1  0.36775356  0.36221987  0.24872676  1
  Na  Na7  1  0.99084067  0.63170448  0.24865078  1
  Na  Na8  1  0.99084067  0.35913618  0.74865078  1
  Na  Na9  1  0.36775356  0.00553369  0.74872676  1
  Na  Na10  1  0.30698472  0.34181959  0.58235114  1
  Na  Na11  1  0.66069421  0.96514064  0.58177953  1
  Na  Na12  1  0.30698472  0.96516414  0.08235114  1
  Na  Na13  1  0.66069421  0.69555257  0.08177953  1
  Na  Na14  1  0.97320922  0.67552937  0.91483414  1
  Na  Na15  1  0.32749928  0.29985378  0.91577139  1
  Na  Na16  1  0.97320922  0.29768085  0.41483414  1
  Na  Na17  1  0.32749928  0.02764650  0.41577139  1
  Mg  Mg18  1  0.99477867  0.99566361  0.35258860  1
  Mg  Mg19  1  0.99477867  0.99911507  0.85258860  1
  Mg  Mg20  1  0.66723853  0.33875817  0.68591669  1
  Mg  Mg21  1  0.66723853  0.32847936  0.18591669  1
  Mg  Mg22  1  0.33031007  0.66248675  0.01930008  1
  Mg  Mg23  1  0.33031007  0.66782432  0.51930008  1
  Ge  Ge24  1  0.99720489  0.99250639  0.64947348  1
  Ge  Ge25  1  0.99720489  0.00469850  0.14947348  1
  Ge  Ge26  1  0.66948948  0.32703949  0.98272205  1
  Ge  Ge27  1  0.66948948  0.34244898  0.48272205  1
  Ge  Ge28  1  0.33895244  0.67184148  0.31612145  1
  Ge  Ge29  1  0.33895244  0.66711195  0.81612145  1
  P  P30  1  0.29155384  0.99687649  0.25179049  1
  P  P31  1  0.70631947  0.71374305  0.25085675  1
  P  P32  1  0.00096814  0.29194606  0.25282332  1
  P  P33  1  0.29155384  0.29467735  0.75179049  1
  P  P34  1  0.00096814  0.70902208  0.75282332  1
  P  P35  1  0.70631947  0.99257643  0.75085675  1
  P  P36  1  0.95767705  0.33254979  0.58544232  1
  P  P37  1  0.37126056  0.04178543  0.58533042  1
  P  P38  1  0.67349976  0.62618113  0.58462936  1
  P  P39  1  0.95767705  0.62512626  0.08544232  1
  P  P40  1  0.67349976  0.04731763  0.08462936  1
  P  P41  1  0.37126056  0.32947413  0.08533042  1
  P  P42  1  0.62426319  0.66605198  0.91957466  1
  P  P43  1  0.03957880  0.37581590  0.91775744  1
  P  P44  1  0.34146726  0.96143123  0.91818371  1
  P  P45  1  0.62426319  0.95821221  0.41957466  1
  P  P46  1  0.34146726  0.38003703  0.41818371  1
  P  P47  1  0.03957880  0.66376391  0.41775744  1
  O  O48  1  0.20849529  0.02658631  0.30811507  1
  O  O49  1  0.82590919  0.79637244  0.30438427  1
  O  O50  1  0.97955399  0.18843445  0.31005716  1
  O  O51  1  0.20849529  0.18190899  0.80811507  1
  O  O52  1  0.97955399  0.79111955  0.81005716  1
  O  O53  1  0.82590919  0.02953675  0.80438427  1
  O  O54  1  0.78521268  0.95927335  0.68925293  1
  O  O55  1  0.16701494  0.21217166  0.69216707  1
  O  O56  1  0.04513358  0.83626930  0.69459411  1
  O  O57  1  0.78521268  0.82593934  0.18925293  1
  O  O58  1  0.04513358  0.20886428  0.19459411  1
  O  O59  1  0.16701494  0.95484328  0.19216707  1
  O  O60  1  0.87348483  0.35382598  0.64224722  1
  O  O61  1  0.48422252  0.12515905  0.64141815  1
  O  O62  1  0.63613578  0.50882388  0.63897042  1
  O  O63  1  0.87348483  0.51965785  0.14224722  1
  O  O64  1  0.63613578  0.12731090  0.13897042  1
  O  O65  1  0.48422252  0.35906247  0.14141815  1
  O  O66  1  0.45317096  0.28745130  0.02568496  1
  O  O67  1  0.83477216  0.54335283  0.02561931  1
  O  O68  1  0.70931852  0.16332437  0.02449475  1
  O  O69  1  0.45317096  0.16571867  0.52568496  1
  O  O70  1  0.70931852  0.54599315  0.52449475  1
  O  O71  1  0.83477216  0.29141833  0.52561931  1
  O  O72  1  0.54321929  0.68902445  0.97659815  1
  O  O73  1  0.15713634  0.46269488  0.97151531  1
  O  O74  1  0.30788090  0.84794874  0.97441003  1
  O  O75  1  0.54321929  0.85419584  0.47659815  1
  O  O76  1  0.30788090  0.45993316  0.47441003  1
  O  O77  1  0.15713634  0.69444245  0.47151531  1
  O  O78  1  0.11793235  0.62067736  0.35696568  1
  O  O79  1  0.49677431  0.87580153  0.36113123  1
  O  O80  1  0.37259175  0.49492215  0.35783325  1
  O  O81  1  0.11793235  0.49725599  0.85696568  1
  O  O82  1  0.37259175  0.87767060  0.85783325  1
  O  O83  1  0.49677431  0.62097378  0.86113123  1
  O  O84  1  0.01925239  0.82514734  0.40957706  1
  O  O85  1  0.81036578  0.99030684  0.41117859  1
  O  O86  1  0.18093802  0.19381222  0.41070202  1
  O  O87  1  0.01925239  0.19410505  0.90957706  1
  O  O88  1  0.18093802  0.98712580  0.91070202  1
  O  O89  1  0.81036578  0.82005894  0.91117859  1
  O  O90  1  0.97091223  0.15551866  0.58826092  1
  O  O91  1  0.18548039  0.03278397  0.59001676  1
  O  O92  1  0.84348709  0.81701094  0.58977756  1
  O  O93  1  0.97091223  0.81539357  0.08826092  1
  O  O94  1  0.84348709  0.02647614  0.08977756  1
  O  O95  1  0.18548039  0.15269642  0.09001676  1
  O  O96  1  0.67841177  0.15196977  0.74330351  1
  O  O97  1  0.47215905  0.31285621  0.74357770  1
  O  O98  1  0.84702622  0.52305744  0.74461403  1
  O  O99  1  0.67841177  0.52644101  0.24330351  1
  O  O100  1  0.84702622  0.32396778  0.24461403  1
  O  O101  1  0.47215905  0.15930184  0.24357770  1
  O  O102  1  0.63782137  0.48888229  0.92266674  1
  O  O103  1  0.85376562  0.36740483  0.92264653  1
  O  O104  1  0.51059735  0.15219810  0.92262783  1
  O  O105  1  0.63782137  0.14893809  0.42266674  1
  O  O106  1  0.51059735  0.35839824  0.42262783  1
  O  O107  1  0.85376562  0.48635978  0.42264653  1
  O  O108  1  0.35242706  0.49166467  0.07714361  1
  O  O109  1  0.14431685  0.65759738  0.07776924  1
  O  O110  1  0.51379083  0.86030964  0.07660271  1
  O  O111  1  0.35242706  0.86076339  0.57714361  1
  O  O112  1  0.51379083  0.65348219  0.57660271  1
  O  O113  1  0.14431685  0.48672047  0.57776924  1
  O  O114  1  0.30026465  0.82016303  0.25635153  1
  O  O115  1  0.51536687  0.69264950  0.25634025  1
  O  O116  1  0.17831807  0.48245674  0.25541570  1
  O  O117  1  0.30026465  0.48010262  0.75635153  1
  O  O118  1  0.17831807  0.69586233  0.75541570  1
  O  O119  1  0.51536687  0.82271837  0.75634025  1
