# generated using pymatgen
data_MnO2
_symmetry_space_group_name_H-M   'P 1'
_cell_length_a   5.68527742
_cell_length_b   5.68458916
_cell_length_c   5.68551593
_cell_angle_alpha   60.00261572
_cell_angle_beta   59.99061243
_cell_angle_gamma   60.00680398
_symmetry_Int_Tables_number   1
_chemical_formula_structural   MnO2
_chemical_formula_sum   'Mn4 O8'
_cell_volume   129.92888566
_cell_formula_units_Z   4
loop_
 _symmetry_equiv_pos_site_id
 _symmetry_equiv_pos_as_xyz
  1  'x, y, z'
loop_
 _atom_site_type_symbol
 _atom_site_label
 _atom_site_symmetry_multiplicity
 _atom_site_fract_x
 _atom_site_fract_y
 _atom_site_fract_z
 _atom_site_occupancy
  Mn  Mn0  1  0.50000100  0.50000000  0.49999900  1
  Mn  Mn1  1  0.00000000  0.50000100  0.49999900  1
  Mn  Mn2  1  0.50000000  0.50000100  -0.00000000  1
  Mn  Mn3  1  0.49999900  0.00000000  0.50000100  1
  O  O4  1  0.29213871  0.73583301  0.73609553  1
  O  O5  1  0.73593174  0.73609653  0.73583201  1
  O  O6  1  0.73583301  0.29214071  0.73593174  1
  O  O7  1  0.73609553  0.73593174  0.29214071  1
  O  O8  1  0.26406726  0.26390547  0.26416699  1
  O  O9  1  0.70786029  0.26416599  0.26390447  1
  O  O10  1  0.26390347  0.26406726  0.70786029  1
  O  O11  1  0.26416599  0.70786029  0.26406926  1
