# generated using pymatgen
data_Na5HfIn3(PO4)6
_symmetry_space_group_name_H-M   'P 1'
_cell_length_a   9.05852425
_cell_length_b   9.05324459
_cell_length_c   22.81623084
_cell_angle_alpha   89.89701484
_cell_angle_beta   90.00583868
_cell_angle_gamma   119.99585126
_symmetry_Int_Tables_number   1
_chemical_formula_structural   Na5HfIn3(PO4)6
_chemical_formula_sum   'Na15 Hf3 In9 P18 O72'
_cell_volume   1620.51668952
_cell_formula_units_Z   3
loop_
 _symmetry_equiv_pos_site_id
 _symmetry_equiv_pos_as_xyz
  1  'x, y, z'
loop_
 _atom_site_type_symbol
 _atom_site_label
 _atom_site_symmetry_multiplicity
 _atom_site_fract_x
 _atom_site_fract_y
 _atom_site_fract_z
 _atom_site_occupancy
  Na  Na0  1  0.63602576  0.00010553  0.25355055  1
  Na  Na1  1  0.36422868  0.36464553  0.25433463  1
  Na  Na2  1  0.99983813  0.63613950  0.25361098  1
  Na  Na3  1  0.64342121  0.63746764  0.74823261  1
  Na  Na4  1  0.99629989  0.35852400  0.74843487  1
  Na  Na5  1  0.03315962  0.70059726  0.58058606  1
  Na  Na6  1  0.66472604  0.96621074  0.58035707  1
  Na  Na7  1  0.66452627  0.69951008  0.08075939  1
  Na  Na8  1  0.03429409  0.33307624  0.08082218  1
  Na  Na9  1  0.01129401  0.01199810  0.49496649  1
  Na  Na10  1  0.01102411  0.99918952  0.99429677  1
  Na  Na11  1  0.65449206  0.32076686  0.83281269  1
  Na  Na12  1  0.66641910  0.33331307  0.33826624  1
  Na  Na13  1  0.33258216  0.67795315  0.16521219  1
  Na  Na14  1  0.33314569  0.66506424  0.66242791  1
  Hf  Hf15  1  0.66537755  0.33233019  0.97840398  1
  Hf  Hf16  1  0.66418498  0.33311045  0.47994188  1
  Hf  Hf17  1  0.33364384  0.67235500  0.81795937  1
  In  In18  1  0.99952987  0.99906358  0.35374464  1
  In  In19  1  0.00200008  0.00020604  0.85214229  1
  In  In20  1  0.00918002  0.00680841  0.64971243  1
  In  In21  1  0.00575746  0.99944279  0.14851547  1
  In  In22  1  0.65777722  0.32696218  0.68195950  1
  In  In23  1  0.66396072  0.33093661  0.18043095  1
  In  In24  1  0.33323120  0.67237582  0.01385763  1
  In  In25  1  0.33296850  0.66038386  0.51356283  1
  In  In26  1  0.33339379  0.66581717  0.32336556  1
  P  P27  1  0.29558596  -0.00140041  0.25042547  1
  P  P28  1  0.70375121  0.70440422  0.24840878  1
  P  P29  1  0.00059663  0.29643043  0.24850743  1
  P  P30  1  0.29652875  0.29871683  0.75184837  1
  P  P31  1  0.00099818  0.70310648  0.74921711  1
  P  P32  1  0.70434877  -0.00112600  0.74953916  1
  P  P33  1  0.96062936  0.33459516  0.58442373  1
  P  P34  1  0.37140933  0.03630708  0.58215760  1
  P  P35  1  0.66558002  0.62867967  0.58466126  1
  P  P36  1  0.96102316  0.62627654  0.08311970  1
  P  P37  1  0.66525467  0.03684393  0.08354875  1
  P  P38  1  0.37162270  0.33434919  0.08269817  1
  P  P39  1  0.63076773  0.66797108  0.91777859  1
  P  P40  1  0.03718546  0.36932060  0.91818175  1
  P  P41  1  0.33151640  0.96370503  0.91787114  1
  P  P42  1  0.63430247  0.96803847  0.41756188  1
  P  P43  1  0.33331104  0.36545512  0.41560535  1
  P  P44  1  0.03220261  0.66599942  0.41773192  1
  O  O45  1  0.21481852  0.03524061  0.30300772  1
  O  O46  1  0.82289148  0.78866408  0.30015913  1
  O  O47  1  0.96624018  0.17681000  0.30022422  1
  O  O48  1  0.21656991  0.18825157  0.80540511  1
  O  O49  1  0.96433578  0.78698282  0.80066034  1
  O  O50  1  0.82332659  0.03412885  0.80147989  1
  O  O51  1  0.77351799  0.95943575  0.69253126  1
  O  O52  1  0.18396454  0.22845189  0.69657211  1
  O  O53  1  0.03278324  0.80393344  0.69113800  1
  O  O54  1  0.77540304  0.80919487  0.19073901  1
  O  O55  1  0.03345629  0.22508808  0.19083060  1
  O  O56  1  0.18553328  0.96106744  0.19455721  1
  O  O57  1  0.88872609  0.36431123  0.64239078  1
  O  O58  1  0.47805528  0.10854383  0.63826325  1
  O  O59  1  0.64193096  0.53343893  0.64338422  1
  O  O60  1  0.88938950  0.52521901  0.14139816  1
  O  O61  1  0.64109017  0.10746487  0.14244916  1
  O  O62  1  0.47219772  0.36407924  0.14081012  1
  O  O63  1  0.47145308  0.31672530  0.03093667  1
  O  O64  1  0.83969755  0.52696074  0.03160782  1
  O  O65  1  0.68636892  0.15807948  0.03222131  1
  O  O66  1  0.46644780  0.15126921  0.52936960  1
  O  O67  1  0.68646016  0.52927228  0.53336452  1
  O  O68  1  0.83950059  0.31177255  0.53288607  1
  O  O69  1  0.55316569  0.69047857  0.97478620  1
  O  O70  1  0.13817596  0.44672724  0.97502114  1
  O  O71  1  0.30537236  0.86080204  0.97360342  1
  O  O72  1  0.55003294  0.86087157  0.47286366  1
  O  O73  1  0.30727053  0.45208083  0.46854251  1
  O  O74  1  0.14007806  0.68985082  0.47278406  1
  O  O75  1  0.10571070  0.63536153  0.36026036  1
  O  O76  1  0.53004705  0.89385805  0.36020224  1
  O  O77  1  0.36529161  0.46712141  0.35714093  1
  O  O78  1  0.12960338  0.48601544  0.86398415  1
  O  O79  1  0.35693642  0.87198102  0.86404865  1
  O  O80  1  0.51512254  0.64546966  0.86362230  1
  O  O81  1  0.01222062  0.82414393  0.41346569  1
  O  O82  1  0.81228394  0.98768419  0.41328505  1
  O  O83  1  0.17596121  0.18651784  0.41231380  1
  O  O84  1  0.01367298  0.19088903  0.91176969  1
  O  O85  1  0.17664926  0.98727011  0.91115683  1
  O  O86  1  0.80904818  0.82337067  0.91134749  1
  O  O87  1  0.96627366  0.16640577  0.58655985  1
  O  O88  1  0.19134235  0.01568024  0.58524918  1
  O  O89  1  0.83329104  0.80614153  0.58591402  1
  O  O90  1  0.96596540  0.79948160  0.08485924  1
  O  O91  1  0.83346425  0.02826939  0.08481671  1
  O  O92  1  0.19144270  0.17540218  0.08430010  1
  O  O93  1  0.68805157  0.16103028  0.74447615  1
  O  O94  1  0.48094581  0.33047000  0.74581898  1
  O  O95  1  0.84107388  0.52007645  0.74518497  1
  O  O96  1  0.68265100  0.52264556  0.24445780  1
  O  O97  1  0.83979345  0.31728020  0.24473101  1
  O  O98  1  0.47637101  0.15996537  0.24481350  1
  O  O99  1  0.64117273  0.50083210  0.92198496  1
  O  O100  1  0.85959519  0.35878823  0.92266179  1
  O  O101  1  0.49921354  0.14096522  0.92216464  1
  O  O102  1  0.65037308  0.14710580  0.42421192  1
  O  O103  1  0.49711387  0.35167278  0.42380510  1
  O  O104  1  0.85342794  0.50305516  0.42485494  1
  O  O105  1  0.35405708  0.49628687  0.07726099  1
  O  O106  1  0.13664708  0.63964990  0.07749821  1
  O  O107  1  0.51284812  0.85399994  0.07827153  1
  O  O108  1  0.35134829  0.85521956  0.57692394  1
  O  O109  1  0.51264378  0.65888237  0.57873576  1
  O  O110  1  0.13691074  0.49686149  0.57795808  1
  O  O111  1  0.31654867  0.83784890  0.25649671  1
  O  O112  1  0.52356372  0.68626377  0.25517118  1
  O  O113  1  0.16193853  0.47739147  0.25515734  1
  O  O114  1  0.31478505  0.48137333  0.75937093  1
  O  O115  1  0.15825704  0.67778747  0.75848547  1
  O  O116  1  0.52695884  0.83489264  0.75899916  1
