# generated using pymatgen
data_Pr2NCl3
_symmetry_space_group_name_H-M   'P 1'
_cell_length_a   6.17916315
_cell_length_b   6.87041868
_cell_length_c   8.24666363
_cell_angle_alpha   114.62261174
_cell_angle_beta   112.02061559
_cell_angle_gamma   90.00111142
_symmetry_Int_Tables_number   1
_chemical_formula_structural   Pr2NCl3
_chemical_formula_sum   'Pr4 N2 Cl6'
_cell_volume   289.93315590
_cell_formula_units_Z   2
loop_
 _symmetry_equiv_pos_site_id
 _symmetry_equiv_pos_as_xyz
  1  'x, y, z'
loop_
 _atom_site_type_symbol
 _atom_site_label
 _atom_site_symmetry_multiplicity
 _atom_site_fract_x
 _atom_site_fract_y
 _atom_site_fract_z
 _atom_site_occupancy
  Pr  Pr0  1  0.90667533  0.72974148  0.81350884  1
  Pr  Pr1  1  0.09332467  0.27025852  0.18649116  1
  Pr  Pr2  1  0.59332985  0.91631134  0.18652473  1
  Pr  Pr3  1  0.40667015  0.08368866  0.81347527  1
  N  N4  1  0.75000003  0.00001315  0.00000227  1
  N  N5  1  0.24999997  0.99998685  -0.00000227  1
  Cl  Cl6  1  0.74999348  0.49999696  0.99999474  1
  Cl  Cl7  1  0.25000652  0.50000304  0.00000526  1
  Cl  Cl8  1  0.20089203  0.02079167  0.40212841  1
  Cl  Cl9  1  0.79910797  0.97920833  0.59787159  1
  Cl  Cl10  1  0.29911665  0.61855965  0.59788532  1
  Cl  Cl11  1  0.70088335  0.38144035  0.40211468  1
