# generated using pymatgen
data_NaCaNbP2SO12
_symmetry_space_group_name_H-M   'P 1'
_cell_length_a   9.03476176
_cell_length_b   9.03476145
_cell_length_c   23.11250452
_cell_angle_alpha   90.74830658
_cell_angle_beta   89.25169341
_cell_angle_gamma   120.20466994
_symmetry_Int_Tables_number   1
_chemical_formula_structural   NaCaNbP2SO12
_chemical_formula_sum   'Na6 Ca6 Nb6 P12 S6 O72'
_cell_volume   1630.28061337
_cell_formula_units_Z   6
loop_
 _symmetry_equiv_pos_site_id
 _symmetry_equiv_pos_as_xyz
  1  'x, y, z'
loop_
 _atom_site_type_symbol
 _atom_site_label
 _atom_site_symmetry_multiplicity
 _atom_site_fract_x
 _atom_site_fract_y
 _atom_site_fract_z
 _atom_site_occupancy
  Na  Na0  1  0.98909708  0.98510839  0.49373225  1
  Na  Na1  1  0.01489161  0.01090292  0.99373225  1
  Na  Na2  1  0.65576408  0.31844139  0.82706525  1
  Na  Na3  1  0.68155861  0.34423592  0.32706525  1
  Na  Na4  1  0.32243008  0.65177539  0.16039925  1
  Na  Na5  1  0.34822461  0.67756992  0.66039925  1
  Ca  Ca6  1  0.99580798  0.99691354  0.35419392  1
  Ca  Ca7  1  0.00308646  0.00419202  0.85419392  1
  Ca  Ca8  1  0.66247498  0.33024654  0.68752692  1
  Ca  Ca9  1  0.66975346  0.33752502  0.18752692  1
  Ca  Ca10  1  0.32914098  0.66358054  0.02086092  1
  Ca  Ca11  1  0.33641946  0.67085902  0.52086092  1
  Nb  Nb12  1  0.99918337  0.00630953  0.64680276  1
  Nb  Nb13  1  0.99369047  0.00081663  0.14680276  1
  Nb  Nb14  1  0.66585037  0.33964253  0.98013576  1
  Nb  Nb15  1  0.66035747  0.33414963  0.48013576  1
  Nb  Nb16  1  0.33251637  0.67297653  0.31346976  1
  Nb  Nb17  1  0.32702347  0.66748363  0.81346976  1
  P  P18  1  0.70020281  0.71135663  0.25169451  1
  P  P19  1  0.00962948  0.29787271  0.25245468  1
  P  P20  1  0.28864337  0.29979719  0.75169451  1
  P  P21  1  0.70212729  0.99037052  0.75245468  1
  P  P22  1  0.36686981  0.04468963  0.58502751  1
  P  P23  1  0.67629648  0.63120571  0.58578768  1
  P  P24  1  0.95531037  0.63313019  0.08502751  1
  P  P25  1  0.36879429  0.32370352  0.08578768  1
  P  P26  1  0.03353581  0.37802363  0.91836151  1
  P  P27  1  0.34296248  0.96453971  0.91912168  1
  P  P28  1  0.62197637  0.96646419  0.41836151  1
  P  P29  1  0.03546029  0.65703752  0.41912168  1
  S  S30  1  0.28564387  0.98888749  0.24996636  1
  S  S31  1  0.01111251  0.71435613  0.74996636  1
  S  S32  1  0.95231087  0.32222049  0.58329936  1
  S  S33  1  0.67777951  0.04768913  0.08329936  1
  S  S34  1  0.61897687  0.65555449  0.91663336  1
  S  S35  1  0.34444551  0.38102313  0.41663336  1
  O  O36  1  0.21296293  0.01227618  0.30234819  1
  O  O37  1  0.80566729  0.79207848  0.30392553  1
  O  O38  1  0.99381937  0.19708183  0.30471856  1
  O  O39  1  0.20792152  0.19433271  0.80392553  1
  O  O40  1  0.98772382  0.78703707  0.80234819  1
  O  O41  1  0.80291817  0.00618063  0.80471856  1
  O  O42  1  0.80012360  0.96770034  0.69575172  1
  O  O43  1  0.16710514  0.19997233  0.69592949  1
  O  O44  1  0.03567001  0.82347718  0.69742282  1
  O  O45  1  0.80002767  0.83289486  0.19592949  1
  O  O46  1  0.03229966  0.19987640  0.19575172  1
  O  O47  1  0.17652282  0.96432999  0.19742282  1
  O  O48  1  0.87962993  0.34560918  0.63568119  1
  O  O49  1  0.47233429  0.12541148  0.63725853  1
  O  O50  1  0.66048637  0.53041483  0.63805156  1
  O  O51  1  0.87458852  0.52766571  0.13725853  1
  O  O52  1  0.65439082  0.12037007  0.13568119  1
  O  O53  1  0.46958517  0.33951363  0.13805156  1
  O  O54  1  0.46679060  0.30103334  0.02908472  1
  O  O55  1  0.83377214  0.53330533  0.02926249  1
  O  O56  1  0.70233701  0.15681018  0.03075582  1
  O  O57  1  0.46669467  0.16622786  0.52926249  1
  O  O58  1  0.69896666  0.53320940  0.52908472  1
  O  O59  1  0.84318982  0.29766299  0.53075582  1
  O  O60  1  0.54629593  0.67894318  0.96901519  1
  O  O61  1  0.13900029  0.45874548  0.97059253  1
  O  O62  1  0.32715237  0.86374883  0.97138556  1
  O  O63  1  0.54125452  0.86099971  0.47059253  1
  O  O64  1  0.32105682  0.45370407  0.46901519  1
  O  O65  1  0.13625117  0.67284763  0.47138556  1
  O  O66  1  0.13345660  0.63436734  0.36241872  1
  O  O67  1  0.50043814  0.86663933  0.36259649  1
  O  O68  1  0.36900301  0.49014418  0.36408982  1
  O  O69  1  0.13336067  0.49956186  0.86259649  1
  O  O70  1  0.36563266  0.86654340  0.86241872  1
  O  O71  1  0.50985582  0.63099699  0.86408982  1
  O  O72  1  0.00502917  0.80449948  0.41143997  1
  O  O73  1  0.80382914  0.00696480  0.41077530  1
  O  O74  1  0.20545403  0.20529026  0.40956120  1
  O  O75  1  0.99303520  0.19617086  0.91077530  1
  O  O76  1  0.19550052  0.99497083  0.91143997  1
  O  O77  1  0.79470974  0.79454597  0.90956120  1
  O  O78  1  0.95857122  0.15495089  0.58726828  1
  O  O79  1  0.18908269  0.04333631  0.59094550  1
  O  O80  1  0.85032585  0.81312869  0.59106896  1
  O  O81  1  0.95666369  0.81091731  0.09094550  1
  O  O82  1  0.84504911  0.04142878  0.08726828  1
  O  O83  1  0.18687131  0.14967415  0.09106896  1
  O  O84  1  0.67169617  0.13783248  0.74477297  1
  O  O85  1  0.47049614  0.34029780  0.74410830  1
  O  O86  1  0.87212103  0.53862326  0.74289420  1
  O  O87  1  0.65970220  0.52950386  0.24410830  1
  O  O88  1  0.86216752  0.32830383  0.24477297  1
  O  O89  1  0.46137674  0.12787897  0.24289420  1
  O  O90  1  0.62523822  0.48828389  0.92060128  1
  O  O91  1  0.85574969  0.37666931  0.92427850  1
  O  O92  1  0.51699285  0.14646169  0.92440196  1
  O  O93  1  0.62333069  0.14425031  0.42427850  1
  O  O94  1  0.51171611  0.37476178  0.42060128  1
  O  O95  1  0.85353831  0.48300715  0.42440196  1
  O  O96  1  0.33836217  0.47116648  0.07810697  1
  O  O97  1  0.13716214  0.67363180  0.07744230  1
  O  O98  1  0.53878703  0.87195726  0.07622820  1
  O  O99  1  0.32636820  0.86283786  0.57744230  1
  O  O100  1  0.52883352  0.66163783  0.57810697  1
  O  O101  1  0.12804274  0.46121297  0.57622820  1
  O  O102  1  0.29190422  0.82161789  0.25393528  1
  O  O103  1  0.52241569  0.71000331  0.25761250  1
  O  O104  1  0.18365885  0.47979569  0.25773596  1
  O  O105  1  0.28999669  0.47758431  0.75761250  1
  O  O106  1  0.17838211  0.70809578  0.75393528  1
  O  O107  1  0.52020431  0.81634115  0.75773596  1
