# generated using pymatgen
data_ErSeF
_symmetry_space_group_name_H-M   'P 1'
_cell_length_a   4.03997589
_cell_length_b   9.87140492
_cell_length_c   18.70407708
_cell_angle_alpha   90.00000000
_cell_angle_beta   90.00000000
_cell_angle_gamma   90.00000000
_symmetry_Int_Tables_number   1
_chemical_formula_structural   ErSeF
_chemical_formula_sum   'Er12 Se12 F12'
_cell_volume   745.92304322
_cell_formula_units_Z   12
loop_
 _symmetry_equiv_pos_site_id
 _symmetry_equiv_pos_as_xyz
  1  'x, y, z'
loop_
 _atom_site_type_symbol
 _atom_site_label
 _atom_site_symmetry_multiplicity
 _atom_site_fract_x
 _atom_site_fract_y
 _atom_site_fract_z
 _atom_site_occupancy
  Er  Er0  1  0.25000000  0.75645088  0.23933316  1
  Er  Er1  1  0.75000000  0.24354912  0.76066684  1
  Er  Er2  1  0.25000000  0.25645088  0.26066684  1
  Er  Er3  1  0.75000000  0.74354912  0.73933316  1
  Er  Er4  1  0.25000000  0.57670188  0.58106665  1
  Er  Er5  1  0.75000000  0.42329812  0.41893335  1
  Er  Er6  1  0.25000000  0.07670188  0.91893335  1
  Er  Er7  1  0.75000000  0.92329812  0.08106665  1
  Er  Er8  1  0.25000000  0.59152102  0.91662296  1
  Er  Er9  1  0.75000000  0.40847898  0.08337704  1
  Er  Er10  1  0.25000000  0.09152102  0.58337704  1
  Er  Er11  1  0.75000000  0.90847898  0.41662296  1
  Se  Se12  1  0.75000000  0.66435282  0.34145852  1
  Se  Se13  1  0.25000000  0.33564718  0.65854148  1
  Se  Se14  1  0.75000000  0.16435282  0.15854148  1
  Se  Se15  1  0.25000000  0.83564718  0.84145852  1
  Se  Se16  1  0.75000000  0.66620551  0.01410434  1
  Se  Se17  1  0.25000000  0.33379449  0.98589566  1
  Se  Se18  1  0.75000000  0.16620551  0.48589566  1
  Se  Se19  1  0.25000000  0.83379449  0.51410434  1
  Se  Se20  1  0.75000000  0.00460237  0.67798277  1
  Se  Se21  1  0.25000000  0.99539763  0.32201723  1
  Se  Se22  1  0.75000000  0.50460237  0.82201723  1
  Se  Se23  1  0.25000000  0.49539763  0.17798277  1
  F  F24  1  0.25000000  0.70117968  0.69382370  1
  F  F25  1  0.75000000  0.29882032  0.30617630  1
  F  F26  1  0.25000000  0.20117968  0.80617630  1
  F  F27  1  0.75000000  0.79882032  0.19382370  1
  F  F28  1  0.25000000  0.36740552  0.36335479  1
  F  F29  1  0.75000000  0.63259448  0.63664521  1
  F  F30  1  0.25000000  0.86740552  0.13664521  1
  F  F31  1  0.75000000  0.13259448  0.86335479  1
  F  F32  1  0.25000000  0.47326357  0.47337964  1
  F  F33  1  0.75000000  0.52673643  0.52662036  1
  F  F34  1  0.25000000  0.97326357  0.02662036  1
  F  F35  1  0.75000000  0.02673643  0.97337964  1
