# generated using pymatgen
data_CsMgH3
_symmetry_space_group_name_H-M   'P 1'
_cell_length_a   8.24752906
_cell_length_b   8.24752844
_cell_length_c   8.24752880
_cell_angle_alpha   44.39332444
_cell_angle_beta   44.39332696
_cell_angle_gamma   44.39332498
_symmetry_Int_Tables_number   1
_chemical_formula_structural   CsMgH3
_chemical_formula_sum   'Cs3 Mg3 H9'
_cell_volume   249.58509628
_cell_formula_units_Z   3
loop_
 _symmetry_equiv_pos_site_id
 _symmetry_equiv_pos_as_xyz
  1  'x, y, z'
loop_
 _atom_site_type_symbol
 _atom_site_label
 _atom_site_symmetry_multiplicity
 _atom_site_fract_x
 _atom_site_fract_y
 _atom_site_fract_z
 _atom_site_occupancy
  Cs  Cs0  1  -0.00000000  0.00000000  0.00000000  1
  Cs  Cs1  1  0.78666397  0.78666397  0.78666397  1
  Cs  Cs2  1  0.21333603  0.21333603  0.21333603  1
  Mg  Mg3  1  0.50000000  0.50000000  0.50000000  1
  Mg  Mg4  1  0.62083007  0.62083007  0.62083007  1
  Mg  Mg5  1  0.37916993  0.37916993  0.37916993  1
  H  H6  1  0.50000000  0.00000000  0.50000000  1
  H  H7  1  -0.00000000  0.50000000  0.50000000  1
  H  H8  1  0.50000000  0.50000000  0.00000000  1
  H  H9  1  0.30455852  0.71338890  0.30455852  1
  H  H10  1  0.71338890  0.30455852  0.30455852  1
  H  H11  1  0.30455852  0.30455852  0.71338890  1
  H  H12  1  0.69544148  0.69544148  0.28661110  1
  H  H13  1  0.28661110  0.69544148  0.69544148  1
  H  H14  1  0.69544148  0.28661110  0.69544148  1
