# generated using pymatgen
data_MgV4O7F5
_symmetry_space_group_name_H-M   'P 1'
_cell_length_a   5.12716705
_cell_length_b   5.38828165
_cell_length_c   8.99634862
_cell_angle_alpha   71.38749383
_cell_angle_beta   91.06465001
_cell_angle_gamma   116.42437160
_symmetry_Int_Tables_number   1
_chemical_formula_structural   MgV4O7F5
_chemical_formula_sum   'Mg1 V4 O7 F5'
_cell_volume   208.68765228
_cell_formula_units_Z   1
loop_
 _symmetry_equiv_pos_site_id
 _symmetry_equiv_pos_as_xyz
  1  'x, y, z'
loop_
 _atom_site_type_symbol
 _atom_site_label
 _atom_site_symmetry_multiplicity
 _atom_site_fract_x
 _atom_site_fract_y
 _atom_site_fract_z
 _atom_site_occupancy
  Mg  Mg0  1  0.19122300  0.37854300  0.61376600  1
  V  V1  1  0.77139700  0.53095900  0.77969000  1
  V  V2  1  0.94631000  0.99832400  0.00533400  1
  V  V3  1  0.56091400  0.01808600  0.49104200  1
  V  V4  1  0.25814500  0.46131400  0.23591100  1
  O  O5  1  0.93505900  0.23854300  0.44172500  1
  O  O6  1  0.92127100  0.23591700  0.81940600  1
  O  O7  1  0.41511500  0.24157900  0.32773000  1
  O  O8  1  0.53970400  0.70248800  0.66730500  1
  O  O9  1  0.58243500  0.75056800  0.07271300  1
  O  O10  1  0.02200100  0.22226800  0.11931300  1
  O  O11  1  0.97445400  0.75441000  0.87727900  1
  F  F12  1  0.46222600  0.19778200  0.62392400  1
  F  F13  1  0.41718500  0.23000000  0.92543300  1
  F  F14  1  0.44677500  0.71862100  0.38607900  1
  F  F15  1  0.07445700  0.72564600  0.16964000  1
  F  F16  1  0.04407900  0.69517100  0.57729800  1
