# generated using pymatgen
data_Na2Zn3Ge(SO4)6
_symmetry_space_group_name_H-M   'P 1'
_cell_length_a   8.64596456
_cell_length_b   8.64596428
_cell_length_c   22.48659541
_cell_angle_alpha   90.00000000
_cell_angle_beta   90.00000000
_cell_angle_gamma   120.00000106
_symmetry_Int_Tables_number   1
_chemical_formula_structural   Na2Zn3Ge(SO4)6
_chemical_formula_sum   'Na6 Zn9 Ge3 S18 O72'
_cell_volume   1455.73130394
_cell_formula_units_Z   3
loop_
 _symmetry_equiv_pos_site_id
 _symmetry_equiv_pos_as_xyz
  1  'x, y, z'
loop_
 _atom_site_type_symbol
 _atom_site_label
 _atom_site_symmetry_multiplicity
 _atom_site_fract_x
 _atom_site_fract_y
 _atom_site_fract_z
 _atom_site_occupancy
  Na  Na0  1  0.00000000  0.00000000  0.50368439  1
  Na  Na1  1  0.00000000  0.00000000  0.00269783  1
  Na  Na2  1  0.66666700  0.33333300  0.83027970  1
  Na  Na3  1  0.66666700  0.33333300  0.33618108  1
  Na  Na4  1  0.33333300  0.66666700  0.17321993  1
  Na  Na5  1  0.33333300  0.66666700  0.66043136  1
  Zn  Zn6  1  0.00000000  0.00000000  0.64367751  1
  Zn  Zn7  1  0.00000000  0.00000000  0.15042129  1
  Zn  Zn8  1  0.66666700  0.33333300  0.67627939  1
  Zn  Zn9  1  0.66666700  0.33333300  0.18709777  1
  Zn  Zn10  1  0.66666700  0.33333300  0.98512327  1
  Zn  Zn11  1  0.66666700  0.33333300  0.48543367  1
  Zn  Zn12  1  0.33333300  0.66666700  0.51598538  1
  Zn  Zn13  1  0.33333300  0.66666700  0.32023321  1
  Zn  Zn14  1  0.33333300  0.66666700  0.81363529  1
  Ge  Ge15  1  0.00000000  0.00000000  0.35138207  1
  Ge  Ge16  1  0.00000000  0.00000000  0.84509749  1
  Ge  Ge17  1  0.33333300  0.66666700  0.01726192  1
  S  S18  1  0.28974902  0.00006979  0.25089049  1
  S  S19  1  0.71032077  0.71025098  0.25089049  1
  S  S20  1  -0.00006979  0.28967923  0.25089049  1
  S  S21  1  0.29085016  0.28911212  0.75115060  1
  S  S22  1  0.99826196  0.70914984  0.75115060  1
  S  S23  1  0.71088788  0.00173804  0.75115060  1
  S  S24  1  0.96521759  0.33593412  0.58313134  1
  S  S25  1  0.37071753  0.03478241  0.58313134  1
  S  S26  1  0.66406588  0.62928247  0.58313134  1
  S  S27  1  0.96853198  0.62975164  0.08046691  1
  S  S28  1  0.66122066  0.03146802  0.08046691  1
  S  S29  1  0.37024836  0.33877934  0.08046691  1
  S  S30  1  0.62952757  0.67228777  0.91596108  1
  S  S31  1  0.04275920  0.37047243  0.91596108  1
  S  S32  1  0.32771223  0.95724080  0.91596108  1
  S  S33  1  0.63732688  0.96507961  0.41362220  1
  S  S34  1  0.32775173  0.36267312  0.41362220  1
  S  S35  1  0.03492039  0.67224827  0.41362220  1
  O  O36  1  0.20335360  0.03033212  0.30588201  1
  O  O37  1  0.82697853  0.79664640  0.30588201  1
  O  O38  1  0.96966788  0.17302147  0.30588201  1
  O  O39  1  0.21019887  0.17462460  0.81001366  1
  O  O40  1  0.96442573  0.78980113  0.81001366  1
  O  O41  1  0.82537540  0.03557427  0.81001366  1
  O  O42  1  0.79813750  0.97707181  0.69988588  1
  O  O43  1  0.17893431  0.20186250  0.69988588  1
  O  O44  1  0.02292819  0.82106569  0.69988588  1
  O  O45  1  0.79014112  0.81529972  0.19667090  1
  O  O46  1  0.02515859  0.20985888  0.19667090  1
  O  O47  1  0.18470028  0.97484141  0.19667090  1
  O  O48  1  0.88682209  0.35978318  0.63915803  1
  O  O49  1  0.47296209  0.11317791  0.63915803  1
  O  O50  1  0.64021682  0.52703791  0.63915803  1
  O  O51  1  0.89410519  0.52129252  0.13445685  1
  O  O52  1  0.62718833  0.10589481  0.13445685  1
  O  O53  1  0.47870748  0.37281167  0.13445685  1
  O  O54  1  0.45007257  0.31484768  0.02590162  1
  O  O55  1  0.86477611  0.54992743  0.02590162  1
  O  O56  1  0.68515232  0.13522389  0.02590162  1
  O  O57  1  0.45479120  0.14277159  0.52947562  1
  O  O58  1  0.68798139  0.54520880  0.52947562  1
  O  O59  1  0.85722841  0.31201861  0.52947562  1
  O  O60  1  0.54963616  0.70738954  0.97204008  1
  O  O61  1  0.15775238  0.45036384  0.97204008  1
  O  O62  1  0.29261046  0.84224762  0.97204008  1
  O  O63  1  0.56245171  0.85526471  0.46725917  1
  O  O64  1  0.29281200  0.43754829  0.46725917  1
  O  O65  1  0.14473529  0.70718800  0.46725917  1
  O  O66  1  0.11456372  0.64715113  0.35907393  1
  O  O67  1  0.53258641  0.88543628  0.35907393  1
  O  O68  1  0.35284887  0.46741359  0.35907393  1
  O  O69  1  0.12510190  0.47878585  0.86363643  1
  O  O70  1  0.35368294  0.87489810  0.86363643  1
  O  O71  1  0.52121415  0.64631706  0.86363643  1
  O  O72  1  0.02193046  0.84399524  0.40705115  1
  O  O73  1  0.82206478  0.97806954  0.40705115  1
  O  O74  1  0.15600476  0.17793522  0.40705115  1
  O  O75  1  0.02858173  0.18744319  0.91146678  1
  O  O76  1  0.15886147  0.97141827  0.91146678  1
  O  O77  1  0.81255681  0.84113853  0.91146678  1
  O  O78  1  0.98233682  0.17321676  0.58713656  1
  O  O79  1  0.19087994  0.01766318  0.58713656  1
  O  O80  1  0.82678324  0.80912006  0.58713656  1
  O  O81  1  0.99820789  0.81294467  0.08605239  1
  O  O82  1  0.81473678  0.00179211  0.08605239  1
  O  O83  1  0.18705533  0.18526322  0.08605239  1
  O  O84  1  0.69430352  0.16359872  0.74966272  1
  O  O85  1  0.46929620  0.30569648  0.74966272  1
  O  O86  1  0.83640128  0.53070380  0.74966272  1
  O  O87  1  0.69763858  0.53284991  0.24805350  1
  O  O88  1  0.83521233  0.30236142  0.24805350  1
  O  O89  1  0.46715009  0.16478767  0.24805350  1
  O  O90  1  0.65218556  0.51622760  0.92396151  1
  O  O91  1  0.86404304  0.34781444  0.92396151  1
  O  O92  1  0.48377240  0.13595696  0.92396151  1
  O  O93  1  0.66689868  0.14784579  0.41937649  1
  O  O94  1  0.48094810  0.33310132  0.41937649  1
  O  O95  1  0.85215421  0.51905190  0.41937649  1
  O  O96  1  0.35695464  0.51130064  0.07372832  1
  O  O97  1  0.15434500  0.64304536  0.07372832  1
  O  O98  1  0.48869936  0.84565500  0.07372832  1
  O  O99  1  0.35268744  0.85507498  0.57836449  1
  O  O100  1  0.50238654  0.64731256  0.57836449  1
  O  O101  1  0.14492502  0.49761346  0.57836449  1
  O  O102  1  0.30584139  0.83946465  0.25798149  1
  O  O103  1  0.53362226  0.69415861  0.25798149  1
  O  O104  1  0.16053535  0.46637774  0.25798149  1
  O  O105  1  0.30269220  0.46492137  0.75911361  1
  O  O106  1  0.16222817  0.69730780  0.75911361  1
  O  O107  1  0.53507863  0.83777183  0.75911361  1
