# generated using pymatgen
data_Na3Hf3In(PO4)6
_symmetry_space_group_name_H-M   'P 1'
_cell_length_a   8.91872274
_cell_length_b   8.91612418
_cell_length_c   23.11082725
_cell_angle_alpha   89.94846942
_cell_angle_beta   90.03123243
_cell_angle_gamma   120.24587219
_symmetry_Int_Tables_number   1
_chemical_formula_structural   Na3Hf3In(PO4)6
_chemical_formula_sum   'Na9 Hf9 In3 P18 O72'
_cell_volume   1587.60837168
_cell_formula_units_Z   3
loop_
 _symmetry_equiv_pos_site_id
 _symmetry_equiv_pos_as_xyz
  1  'x, y, z'
loop_
 _atom_site_type_symbol
 _atom_site_label
 _atom_site_symmetry_multiplicity
 _atom_site_fract_x
 _atom_site_fract_y
 _atom_site_fract_z
 _atom_site_occupancy
  Na  Na0  1  0.36539376  0.36046547  0.24801379  1
  Na  Na1  1  0.63648834  0.63295476  0.74873322  1
  Na  Na2  1  0.96998288  0.29948330  0.41486225  1
  Na  Na3  1  0.00051807  0.99234442  0.49893563  1
  Na  Na4  1  0.99983229  0.99985394  0.00119561  1
  Na  Na5  1  0.66707172  0.32553226  0.83311207  1
  Na  Na6  1  0.66741821  0.33372641  0.32948705  1
  Na  Na7  1  0.33274450  0.67432758  0.16473800  1
  Na  Na8  1  0.32567651  0.66726122  0.66531224  1
  Hf  Hf9  1  0.00138578  0.00186057  0.85426452  1
  Hf  Hf10  1  0.00208724  0.00256555  0.64575469  1
  Hf  Hf11  1  0.99760893  0.99748871  0.14612085  1
  Hf  Hf12  1  0.66649793  0.33369837  0.98126139  1
  Hf  Hf13  1  0.66088917  0.33401516  0.48183951  1
  Hf  Hf14  1  0.33370585  0.66648592  0.01967520  1
  Hf  Hf15  1  0.33486671  0.66820076  0.51996893  1
  Hf  Hf16  1  0.33510237  0.67424304  0.31295783  1
  Hf  Hf17  1  0.32782468  0.66738146  0.81489627  1
  In  In18  1  0.99859966  0.99206482  0.35091626  1
  In  In19  1  0.66733585  0.32729772  0.68409264  1
  In  In20  1  0.67291138  0.33300961  0.18245349  1
  P  P21  1  0.29220184  0.00088575  0.24953095  1
  P  P22  1  0.70778982  0.70584223  0.24997891  1
  P  P23  1  0.99676092  0.29017026  0.25160513  1
  P  P24  1  0.29066328  0.29043249  0.75039528  1
  P  P25  1  0.00171226  0.71121628  0.74991409  1
  P  P26  1  0.71145887  0.00196239  0.75070525  1
  P  P27  1  0.95904984  0.33351926  0.58266843  1
  P  P28  1  0.37357022  0.03991722  0.58366668  1
  P  P29  1  0.66627882  0.62574482  0.58462244  1
  P  P30  1  0.96001874  0.62619759  0.08290177  1
  P  P31  1  0.66663835  0.04118448  0.08306206  1
  P  P32  1  0.37438881  0.33362092  0.08399836  1
  P  P33  1  0.62327326  0.66549173  0.91612243  1
  P  P34  1  0.04140344  0.37584175  0.91709229  1
  P  P35  1  0.33400493  0.95778429  0.91696145  1
  P  P36  1  0.62481531  0.95812705  0.41721306  1
  P  P37  1  0.33500872  0.37695635  0.41594095  1
  P  P38  1  0.04382092  0.66840838  0.41749349  1
  O  O39  1  0.21837528  0.03782116  0.30412052  1
  O  O40  1  0.81176576  0.78065119  0.30511409  1
  O  O41  1  0.97296344  0.19076569  0.30820886  1
  O  O42  1  0.20055740  0.17828454  0.80394584  1
  O  O43  1  0.97415376  0.79998793  0.80349499  1
  O  O44  1  0.82291074  0.02122865  0.80424778  1
  O  O45  1  0.79487673  0.96842605  0.69675318  1
  O  O46  1  0.17808939  0.20506784  0.69619689  1
  O  O47  1  0.02706372  0.82394487  0.69571494  1
  O  O48  1  0.79431708  0.82142736  0.19646656  1
  O  O49  1  0.03102254  0.20303609  0.19878194  1
  O  O50  1  0.17618578  0.97277929  0.19600731  1
  O  O51  1  0.88548439  0.36906669  0.63687162  1
  O  O52  1  0.48070727  0.11191251  0.63823795  1
  O  O53  1  0.63284192  0.52231518  0.64071715  1
  O  O54  1  0.88920466  0.51994664  0.13775909  1
  O  O55  1  0.63011000  0.11120478  0.13778426  1
  O  O56  1  0.47684917  0.36711246  0.14019496  1
  O  O57  1  0.46484184  0.30721662  0.03096024  1
  O  O58  1  0.84414824  0.53787996  0.02930958  1
  O  O59  1  0.69425771  0.15680157  0.02937907  1
  O  O60  1  0.46149690  0.15557798  0.52981318  1
  O  O61  1  0.69268005  0.53542967  0.53138551  1
  O  O62  1  0.84693708  0.30610993  0.52745259  1
  O  O63  1  0.53542883  0.69254935  0.96886811  1
  O  O64  1  0.15547048  0.46199586  0.97027308  1
  O  O65  1  0.30624383  0.84384856  0.97015685  1
  O  O66  1  0.53496474  0.84589900  0.47056965  1
  O  O67  1  0.30821956  0.46779673  0.46884651  1
  O  O68  1  0.15545302  0.68795942  0.47080871  1
  O  O69  1  0.12762249  0.63517714  0.36362459  1
  O  O70  1  0.51208296  0.87254305  0.36324156  1
  O  O71  1  0.36035214  0.48667945  0.36064060  1
  O  O72  1  0.12853681  0.48894582  0.86287473  1
  O  O73  1  0.36014312  0.87125690  0.86274228  1
  O  O74  1  0.51373022  0.63998139  0.86053242  1
  O  O75  1  0.02351419  0.82780379  0.41365603  1
  O  O76  1  0.80904054  0.98527872  0.41341299  1
  O  O77  1  0.16730895  0.19857036  0.41271916  1
  O  O78  1  0.02334368  0.19513156  0.90950793  1
  O  O79  1  0.17155206  0.97598221  0.90918407  1
  O  O80  1  0.80512577  0.82841338  0.90916598  1
  O  O81  1  0.97622952  0.16952003  0.58920431  1
  O  O82  1  0.19211912  0.02253681  0.58913103  1
  O  O83  1  0.83064793  0.80795923  0.58957280  1
  O  O84  1  0.97744119  0.80778497  0.08881011  1
  O  O85  1  0.83057406  0.02363213  0.08924013  1
  O  O86  1  0.19167533  0.16943776  0.08934232  1
  O  O87  1  0.69078232  0.16103553  0.74679287  1
  O  O88  1  0.47507614  0.31798713  0.74635943  1
  O  O89  1  0.83382666  0.53285601  0.74590184  1
  O  O90  1  0.67465725  0.51989070  0.24405998  1
  O  O91  1  0.84106982  0.31526198  0.24529599  1
  O  O92  1  0.47220447  0.16476326  0.24339355  1
  O  O93  1  0.64154261  0.50337732  0.92341460  1
  O  O94  1  0.86085474  0.35709597  0.92363799  1
  O  O95  1  0.49625334  0.13907230  0.92359845  1
  O  O96  1  0.64578586  0.14264821  0.42404811  1
  O  O97  1  0.49757278  0.36004533  0.42370785  1
  O  O98  1  0.86395962  0.49712827  0.42427638  1
  O  O99  1  0.35257141  0.49369544  0.07406400  1
  O  O100  1  0.14238391  0.64919433  0.07357608  1
  O  O101  1  0.50709058  0.85785026  0.07365536  1
  O  O102  1  0.35066594  0.85770449  0.57434798  1
  O  O103  1  0.50635016  0.64726475  0.57459798  1
  O  O104  1  0.14248554  0.49302318  0.57399120  1
  O  O105  1  0.30767029  0.83574637  0.25616822  1
  O  O106  1  0.52208374  0.68650013  0.25604210  1
  O  O107  1  0.17080125  0.47188208  0.25676060  1
  O  O108  1  0.31209760  0.47545028  0.75715045  1
  O  O109  1  0.16363183  0.69315771  0.75694283  1
  O  O110  1  0.53115362  0.83049344  0.75737467  1
