# generated using pymatgen
data_HfCl4
_symmetry_space_group_name_H-M   'P 1'
_cell_length_a   6.22804747
_cell_length_b   6.45527841
_cell_length_c   7.55601074
_cell_angle_alpha   90.00000000
_cell_angle_beta   90.00000000
_cell_angle_gamma   108.24277619
_symmetry_Int_Tables_number   1
_chemical_formula_structural   HfCl4
_chemical_formula_sum   'Hf2 Cl8'
_cell_volume   288.51177937
_cell_formula_units_Z   2
loop_
 _symmetry_equiv_pos_site_id
 _symmetry_equiv_pos_as_xyz
  1  'x, y, z'
loop_
 _atom_site_type_symbol
 _atom_site_label
 _atom_site_symmetry_multiplicity
 _atom_site_fract_x
 _atom_site_fract_y
 _atom_site_fract_z
 _atom_site_occupancy
  Hf  Hf0  1  0.75000000  0.50000000  0.65922914  1
  Hf  Hf1  1  0.25000000  0.50000000  0.34077086  1
  Cl  Cl2  1  0.50436275  0.27919246  0.39518353  1
  Cl  Cl3  1  0.99563725  0.72080754  0.39518353  1
  Cl  Cl4  1  0.02626575  0.25217946  0.14475849  1
  Cl  Cl5  1  0.47373425  0.74782054  0.14475849  1
  Cl  Cl6  1  0.97373425  0.74782054  0.85524151  1
  Cl  Cl7  1  0.52626575  0.25217946  0.85524151  1
  Cl  Cl8  1  0.00436275  0.27919246  0.60481647  1
  Cl  Cl9  1  0.49563725  0.72080754  0.60481647  1
