# generated using pymatgen
data_Na6Y2Ga2Si3(SO8)3
_symmetry_space_group_name_H-M   'P 1'
_cell_length_a   9.22923560
_cell_length_b   9.08903519
_cell_length_c   22.85914847
_cell_angle_alpha   91.00648101
_cell_angle_beta   89.89662048
_cell_angle_gamma   119.61041731
_symmetry_Int_Tables_number   1
_chemical_formula_structural   Na6Y2Ga2Si3(SO8)3
_chemical_formula_sum   'Na18 Y6 Ga6 Si9 S9 O72'
_cell_volume   1666.80640513
_cell_formula_units_Z   3
loop_
 _symmetry_equiv_pos_site_id
 _symmetry_equiv_pos_as_xyz
  1  'x, y, z'
loop_
 _atom_site_type_symbol
 _atom_site_label
 _atom_site_symmetry_multiplicity
 _atom_site_fract_x
 _atom_site_fract_y
 _atom_site_fract_z
 _atom_site_occupancy
  Na  Na0  1  0.63602475  0.99894829  0.26613990  1
  Na  Na1  1  0.35580517  0.36269945  0.25664300  1
  Na  Na2  1  0.64245079  0.64403563  0.73257922  1
  Na  Na3  1  0.98237200  0.36028828  0.74054679  1
  Na  Na4  1  0.02807569  0.68928677  0.59311772  1
  Na  Na5  1  0.67671281  0.96381216  0.58277322  1
  Na  Na6  1  0.31654234  0.97356657  0.10052028  1
  Na  Na7  1  0.01997480  0.32608164  0.08392728  1
  Na  Na8  1  0.97144763  0.64941090  0.89551345  1
  Na  Na9  1  0.70823728  0.04431718  0.90802793  1
  Na  Na10  1  0.95696175  0.29400604  0.42160084  1
  Na  Na11  1  0.34507218  0.03392356  0.41501275  1
  Na  Na12  1  0.97546510  0.98890549  0.50479226  1
  Na  Na13  1  0.98699238  0.01554418  0.00018901  1
  Na  Na14  1  0.66653757  0.32427242  0.81783734  1
  Na  Na15  1  0.67868646  0.34801945  0.34021006  1
  Na  Na16  1  0.32808156  0.67431061  0.17771109  1
  Na  Na17  1  0.33289917  0.66354445  0.66355002  1
  Y  Y18  1  0.00003798  0.01773831  0.84106353  1
  Y  Y19  1  0.99561406  0.00605345  0.15845343  1
  Y  Y20  1  0.67435965  0.33291767  0.98429671  1
  Y  Y21  1  0.33926857  0.66145362  0.01957194  1
  Y  Y22  1  0.34903719  0.65755651  0.51961391  1
  Y  Y23  1  0.31800524  0.66822418  0.80658500  1
  Ga  Ga24  1  0.99429271  0.01679688  0.34489013  1
  Ga  Ga25  1  0.96197753  0.97358207  0.64661474  1
  Ga  Ga26  1  0.69418763  0.34949198  0.68074930  1
  Ga  Ga27  1  0.66265107  0.29583905  0.19961476  1
  Ga  Ga28  1  0.67974003  0.30792332  0.49602452  1
  Ga  Ga29  1  0.31979670  0.69321106  0.31654812  1
  Si  Si30  1  0.29423978  0.00145274  0.25259125  1
  Si  Si31  1  0.01039856  0.32086718  0.25307436  1
  Si  Si32  1  0.99205494  0.70406563  0.74374944  1
  Si  Si33  1  0.69540702  0.00864808  0.74364085  1
  Si  Si34  1  0.96398605  0.32109332  0.58572794  1
  Si  Si35  1  0.67215891  0.60787348  0.58420429  1
  Si  Si36  1  0.66469181  0.03424352  0.08717279  1
  Si  Si37  1  0.03136092  0.36255727  0.91943739  1
  Si  Si38  1  0.63844646  0.96712005  0.41499465  1
  S  S39  1  0.70005678  0.69492505  0.25261031  1
  S  S40  1  0.30268868  0.28989102  0.74378477  1
  S  S41  1  0.37738939  0.05072659  0.58232533  1
  S  S42  1  0.96229073  0.63361098  0.08639591  1
  S  S43  1  0.37284830  0.33271406  0.08949299  1
  S  S44  1  0.63608223  0.67012708  0.91329871  1
  S  S45  1  0.32756113  0.96675650  0.91998665  1
  S  S46  1  0.32837484  0.36038887  0.40932745  1
  S  S47  1  0.03910487  0.67360415  0.41540065  1
  O  O48  1  0.18652650  0.02741557  0.30573558  1
  O  O49  1  0.80795916  0.77938083  0.30415226  1
  O  O50  1  0.96377132  0.17691145  0.30362915  1
  O  O51  1  0.23349962  0.20632575  0.80084276  1
  O  O52  1  0.97974935  0.78209118  0.80824888  1
  O  O53  1  0.80446790  0.05173571  0.80590204  1
  O  O54  1  0.79374306  0.97422070  0.69012249  1
  O  O55  1  0.18817833  0.19998472  0.69529827  1
  O  O56  1  0.01430408  0.82966294  0.68930016  1
  O  O57  1  0.77294404  0.79914539  0.19961046  1
  O  O58  1  0.05391822  0.25496297  0.19174621  1
  O  O59  1  0.20378253  0.97585036  0.18958973  1
  O  O60  1  0.87576812  0.35893825  0.64138630  1
  O  O61  1  0.48905908  0.14006354  0.63152020  1
  O  O62  1  0.64673153  0.50433598  0.64458329  1
  O  O63  1  0.86638376  0.52779315  0.13494757  1
  O  O64  1  0.64139917  0.13987513  0.14346051  1
  O  O65  1  0.46710312  0.34507867  0.14258412  1
  O  O66  1  0.46061865  0.33043651  0.03549066  1
  O  O67  1  0.87848587  0.56215677  0.02891421  1
  O  O68  1  0.68069787  0.13315203  0.02598484  1
  O  O69  1  0.45081578  0.13584726  0.52447329  1
  O  O70  1  0.69199602  0.50421109  0.52638872  1
  O  O71  1  0.84663971  0.27567740  0.52488130  1
  O  O72  1  0.55240786  0.68931984  0.96649902  1
  O  O73  1  0.12363356  0.44872949  0.98241231  1
  O  O74  1  0.31779295  0.87376655  0.97436218  1
  O  O75  1  0.56300988  0.86331347  0.47417325  1
  O  O76  1  0.29995211  0.44110357  0.46199834  1
  O  O77  1  0.14200162  0.69911090  0.46879923  1
  O  O78  1  0.12246649  0.63964715  0.36411767  1
  O  O79  1  0.50461807  0.87196054  0.35919668  1
  O  O80  1  0.34754764  0.46084274  0.35727799  1
  O  O81  1  0.13125056  0.48387097  0.86465327  1
  O  O82  1  0.35536949  0.88088052  0.86941790  1
  O  O83  1  0.54248525  0.66058154  0.86038639  1
  O  O84  1  0.03104426  0.83096992  0.40714958  1
  O  O85  1  0.82952865  0.99574091  0.40274809  1
  O  O86  1  0.17061837  0.18756208  0.40651553  1
  O  O87  1  0.00114602  0.16919733  0.91813920  1
  O  O88  1  0.16907354  0.96799588  0.91508898  1
  O  O89  1  0.80627444  0.82236450  0.91370884  1
  O  O90  1  0.97836239  0.14778515  0.59240548  1
  O  O91  1  0.20882623  0.02849606  0.58492737  1
  O  O92  1  0.84701718  0.79956928  0.58473399  1
  O  O93  1  0.99534132  0.81049556  0.08882696  1
  O  O94  1  0.83792124  0.02650904  0.08997215  1
  O  O95  1  0.20611386  0.17298749  0.08730334  1
  O  O96  1  0.67675028  0.17741126  0.73513917  1
  O  O97  1  0.47063667  0.31281893  0.74017079  1
  O  O98  1  0.81634932  0.51784784  0.74317171  1
  O  O99  1  0.67735012  0.52211746  0.24524825  1
  O  O100  1  0.83386925  0.32792466  0.24862191  1
  O  O101  1  0.48184232  0.18067616  0.25216560  1
  O  O102  1  0.65376624  0.51751546  0.91706150  1
  O  O103  1  0.84287345  0.34866012  0.91614022  1
  O  O104  1  0.47325994  0.13999801  0.92229586  1
  O  O105  1  0.65142222  0.16089251  0.42338136  1
  O  O106  1  0.47253623  0.33462216  0.41578922  1
  O  O107  1  0.87416041  0.51875381  0.41830213  1
  O  O108  1  0.34169248  0.47932777  0.08917894  1
  O  O109  1  0.12999044  0.64140797  0.08646515  1
  O  O110  1  0.49040378  0.85214910  0.08793182  1
  O  O111  1  0.36079585  0.87590763  0.57907057  1
  O  O112  1  0.52027898  0.65414072  0.58259235  1
  O  O113  1  0.13924136  0.49825981  0.57823934  1
  O  O114  1  0.33414840  0.84437842  0.25915183  1
  O  O115  1  0.53175820  0.67875470  0.25890610  1
  O  O116  1  0.18534580  0.50075227  0.26605788  1
  O  O117  1  0.31878248  0.46450687  0.74795937  1
  O  O118  1  0.14742511  0.66239278  0.74233023  1
  O  O119  1  0.52122575  0.82960306  0.74908797  1
