# generated using pymatgen
data_Na2TiSiGe(PO6)2
_symmetry_space_group_name_H-M   'P 1'
_cell_length_a   8.64497188
_cell_length_b   8.64717148
_cell_length_c   21.81668035
_cell_angle_alpha   89.93023436
_cell_angle_beta   90.25347512
_cell_angle_gamma   119.82344809
_symmetry_Int_Tables_number   1
_chemical_formula_structural   Na2TiSiGe(PO6)2
_chemical_formula_sum   'Na12 Ti6 Si6 Ge6 P12 O72'
_cell_volume   1414.88882219
_cell_formula_units_Z   6
loop_
 _symmetry_equiv_pos_site_id
 _symmetry_equiv_pos_as_xyz
  1  'x, y, z'
loop_
 _atom_site_type_symbol
 _atom_site_label
 _atom_site_symmetry_multiplicity
 _atom_site_fract_x
 _atom_site_fract_y
 _atom_site_fract_z
 _atom_site_occupancy
  Na  Na0  1  0.00131175  0.63951835  0.24986332  1
  Na  Na1  1  0.36626541  0.00060851  0.75107711  1
  Na  Na2  1  0.66559990  0.96597575  0.58507465  1
  Na  Na3  1  0.03515132  0.33085078  0.08504359  1
  Na  Na4  1  0.96892138  0.66901094  0.91870914  1
  Na  Na5  1  0.33155100  0.03340589  0.41736861  1
  Na  Na6  1  0.00092911  0.99692125  0.50011109  1
  Na  Na7  1  0.00206370  0.99853759  0.00016915  1
  Na  Na8  1  0.66701231  0.33129818  0.83454410  1
  Na  Na9  1  0.66827396  0.33294195  0.33258298  1
  Na  Na10  1  0.35508092  0.67910975  0.16601780  1
  Na  Na11  1  0.32323337  0.64388594  0.66781139  1
  Ti  Ti12  1  0.99300366  0.00220590  0.35354631  1
  Ti  Ti13  1  0.00436320  0.00065266  0.64824580  1
  Ti  Ti14  1  0.99848572  0.99305796  0.14533946  1
  Ti  Ti15  1  0.67045195  0.32829233  0.69003132  1
  Ti  Ti16  1  0.66988025  0.34127286  0.47781286  1
  Ti  Ti17  1  0.32482408  0.66876005  0.52138722  1
  Si  Si18  1  0.00010874  0.29202281  0.24698068  1
  Si  Si19  1  0.71371129  0.99197434  0.75311463  1
  Si  Si20  1  0.37392832  0.04779000  0.58223758  1
  Si  Si21  1  0.95080305  0.61732344  0.08041613  1
  Si  Si22  1  0.33868371  0.96082388  0.91607068  1
  Si  Si23  1  0.04155763  0.66261775  0.41259346  1
  Ge  Ge24  1  0.00439305  0.00791252  0.85585760  1
  Ge  Ge25  1  0.66820994  0.32897527  0.18516025  1
  Ge  Ge26  1  0.65960188  0.33049344  0.97894596  1
  Ge  Ge27  1  0.32943973  0.67329940  0.01948717  1
  Ge  Ge28  1  0.32838742  0.65867609  0.31144297  1
  Ge  Ge29  1  0.34171942  0.67388425  0.81493980  1
  P  P30  1  0.29947373  0.00740377  0.25047822  1
  P  P31  1  0.70383159  0.70851456  0.24961234  1
  P  P32  1  0.28423232  0.29379640  0.75383684  1
  P  P33  1  0.99904210  0.70997528  0.75511669  1
  P  P34  1  0.95568152  0.33541012  0.58388493  1
  P  P35  1  0.66718810  0.61808318  0.58492073  1
  P  P36  1  0.65728074  0.04373536  0.08158295  1
  P  P37  1  0.38811445  0.33919850  0.08229682  1
  P  P38  1  0.61577401  0.66718302  0.91808854  1
  P  P39  1  0.05105181  0.37961934  0.91739547  1
  P  P40  1  0.61688011  0.94725939  0.41574637  1
  P  P41  1  0.33364444  0.38519956  0.41493348  1
  O  O42  1  0.21769041  0.03239223  0.30940105  1
  O  O43  1  0.82920910  0.79018195  0.30555456  1
  O  O44  1  0.97170874  0.16422585  0.30591033  1
  O  O45  1  0.20794727  0.16647228  0.80958392  1
  O  O46  1  0.97285611  0.79306154  0.81417244  1
  O  O47  1  0.84239271  0.03039338  0.81193679  1
  O  O48  1  0.79804426  0.96631688  0.68982264  1
  O  O49  1  0.16893231  0.20593860  0.69625646  1
  O  O50  1  0.03961402  0.83711134  0.69985459  1
  O  O51  1  0.79356429  0.82478983  0.19289259  1
  O  O52  1  0.02640143  0.19944525  0.18632666  1
  O  O53  1  0.16871067  0.96499840  0.19588676  1
  O  O54  1  0.87078356  0.36212916  0.64194646  1
  O  O55  1  0.50068194  0.13737239  0.64315225  1
  O  O56  1  0.64637456  0.50534253  0.64142077  1
  O  O57  1  0.86784478  0.48939623  0.14125870  1
  O  O58  1  0.62051091  0.12130906  0.14008812  1
  O  O59  1  0.50362988  0.36981890  0.14005052  1
  O  O60  1  0.46494045  0.30043315  0.02455471  1
  O  O61  1  0.83335927  0.52982177  0.01822554  1
  O  O62  1  0.70079328  0.16882630  0.02577107  1
  O  O63  1  0.46556150  0.16013112  0.52022424  1
  O  O64  1  0.69357286  0.53166106  0.52665734  1
  O  O65  1  0.83645162  0.30480971  0.52754371  1
  O  O66  1  0.52915066  0.69766480  0.97489291  1
  O  O67  1  0.16089944  0.45487535  0.97734856  1
  O  O68  1  0.28205268  0.82003842  0.97310948  1
  O  O69  1  0.54061284  0.84341725  0.47575773  1
  O  O70  1  0.31070520  0.47323005  0.47196472  1
  O  O71  1  0.17363191  0.70070381  0.47209740  1
  O  O72  1  0.13000636  0.63442553  0.35055224  1
  O  O73  1  0.49235838  0.85749862  0.36005718  1
  O  O74  1  0.36689973  0.49738641  0.35625867  1
  O  O75  1  0.13837277  0.50769000  0.86263914  1
  O  O76  1  0.37142828  0.87769466  0.85322759  1
  O  O77  1  0.50098435  0.63046267  0.85991385  1
  O  O78  1  0.03132782  0.84548556  0.40928346  1
  O  O79  1  0.80174845  0.96471232  0.40941555  1
  O  O80  1  0.16705939  0.19719121  0.41031313  1
  O  O81  1  0.03405233  0.19451704  0.91168949  1
  O  O82  1  0.15214554  0.97417613  0.91051562  1
  O  O83  1  0.80547559  0.83324431  0.91362821  1
  O  O84  1  0.96755494  0.16417233  0.58877769  1
  O  O85  1  0.17834551  0.02486798  0.58962358  1
  O  O86  1  0.83274619  0.80641829  0.58865810  1
  O  O87  1  0.97369953  0.81462986  0.08839189  1
  O  O88  1  0.82739127  0.02841120  0.08775217  1
  O  O89  1  0.19844847  0.17478045  0.08836887  1
  O  O90  1  0.68547286  0.16763438  0.74763033  1
  O  O91  1  0.47057645  0.31389375  0.74633734  1
  O  O92  1  0.83341060  0.52874508  0.74733072  1
  O  O93  1  0.68586788  0.52217912  0.24246805  1
  O  O94  1  0.82213321  0.31675594  0.24354809  1
  O  O95  1  0.48012125  0.17732513  0.24136622  1
  O  O96  1  0.64105815  0.50082801  0.92187727  1
  O  O97  1  0.86492549  0.36499549  0.92091218  1
  O  O98  1  0.51659229  0.15690570  0.92344633  1
  O  O99  1  0.63313122  0.13244235  0.41883303  1
  O  O100  1  0.49668906  0.35757994  0.41901177  1
  O  O101  1  0.84872074  0.48644951  0.42029934  1
  O  O102  1  0.36922570  0.50837850  0.07683329  1
  O  O103  1  0.14914303  0.62929691  0.07619399  1
  O  O104  1  0.49168767  0.85781582  0.07464886  1
  O  O105  1  0.36393865  0.85272077  0.57904989  1
  O  O106  1  0.50139533  0.63953853  0.57939682  1
  O  O107  1  0.14161792  0.49917195  0.57846842  1
  O  O108  1  0.31991931  0.83896360  0.25427223  1
  O  O109  1  0.52228133  0.69771468  0.25697685  1
  O  O110  1  0.17802800  0.49279732  0.25251774  1
  O  O111  1  0.29173060  0.47389657  0.76090612  1
  O  O112  1  0.16886705  0.69180310  0.75850654  1
  O  O113  1  0.51095049  0.81531637  0.75656292  1
