# generated using pymatgen
data_Na10Ca3Hf5Si6(SO8)6
_symmetry_space_group_name_H-M   'P 1'
_cell_length_a   18.40464861
_cell_length_b   9.19063814
_cell_length_c   23.24497401
_cell_angle_alpha   89.86921383
_cell_angle_beta   89.95063109
_cell_angle_gamma   119.96904158
_symmetry_Int_Tables_number   1
_chemical_formula_structural   Na10Ca3Hf5Si6(SO8)6
_chemical_formula_sum   'Na30 Ca9 Hf15 Si18 S18 O144'
_cell_volume   3406.16749255
_cell_formula_units_Z   3
loop_
 _symmetry_equiv_pos_site_id
 _symmetry_equiv_pos_as_xyz
  1  'x, y, z'
loop_
 _atom_site_type_symbol
 _atom_site_label
 _atom_site_symmetry_multiplicity
 _atom_site_fract_x
 _atom_site_fract_y
 _atom_site_fract_z
 _atom_site_occupancy
  Na  Na0  1  0.31624352  0.99919465  0.24607281  1
  Na  Na1  1  0.19404006  0.36564001  0.24402865  1
  Na  Na2  1  0.69201836  0.37343018  0.24277029  1
  Na  Na3  1  0.99693571  0.64276120  0.25205509  1
  Na  Na4  1  0.31801480  0.61446539  0.75571479  1
  Na  Na5  1  0.81878895  0.62577269  0.75033096  1
  Na  Na6  1  0.99233143  0.36049998  0.75192708  1
  Na  Na7  1  0.49663603  0.37545802  0.74241305  1
  Na  Na8  1  0.18064789  0.01046099  0.74947596  1
  Na  Na9  1  0.68716251  0.01289401  0.75092269  1
  Na  Na10  1  0.64733176  0.34431081  0.57528143  1
  Na  Na11  1  0.32041356  0.67674089  0.07867766  1
  Na  Na12  1  0.82298694  0.68053746  0.08786731  1
  Na  Na13  1  0.16273738  0.32112115  0.92293288  1
  Na  Na14  1  0.99758540  0.31060144  0.42009925  1
  Na  Na15  1  0.16245734  0.02687537  0.41843003  1
  Na  Na16  1  0.66332970  0.02616916  0.41440036  1
  Na  Na17  1  0.84309592  0.67444173  0.41771057  1
  Na  Na18  1  0.00192910  0.00446590  0.49985215  1
  Na  Na19  1  0.49502524  0.01662761  0.49647751  1
  Na  Na20  1  0.00668143  0.02874987  0.00037416  1
  Na  Na21  1  0.50186928  0.02629909  0.99543868  1
  Na  Na22  1  0.34418633  0.35852725  0.83488500  1
  Na  Na23  1  0.83831528  0.33513131  0.82858170  1
  Na  Na24  1  0.33515041  0.36479511  0.32675644  1
  Na  Na25  1  0.83273466  0.33790131  0.33103623  1
  Na  Na26  1  0.16944842  0.65770743  0.15923169  1
  Na  Na27  1  0.66439798  0.65984639  0.15964191  1
  Na  Na28  1  0.16083596  0.65915682  0.66331344  1
  Na  Na29  1  0.65596955  0.65922384  0.66161034  1
  Ca  Ca30  1  0.49649638  0.99676796  0.35184134  1
  Ca  Ca31  1  0.33672594  0.33988326  0.68300331  1
  Ca  Ca32  1  0.83544035  0.33558686  0.68755850  1
  Ca  Ca33  1  0.33171796  0.33782294  0.18441784  1
  Ca  Ca34  1  0.83171091  0.33048315  0.18331214  1
  Ca  Ca35  1  0.16484480  0.65513077  0.01390331  1
  Ca  Ca36  1  0.65891332  0.64769682  0.01442973  1
  Ca  Ca37  1  0.16194297  0.65585815  0.51530803  1
  Ca  Ca38  1  0.66662532  0.66534533  0.51697408  1
  Hf  Hf39  1  0.00032007  0.99282837  0.35218048  1
  Hf  Hf40  1  0.99758697  0.00279073  0.84966485  1
  Hf  Hf41  1  0.50194586  0.99858411  0.85541182  1
  Hf  Hf42  1  0.00068506  0.00138794  0.65343567  1
  Hf  Hf43  1  0.50307632  0.00847649  0.64820948  1
  Hf  Hf44  1  0.00639567  0.99793946  0.14844764  1
  Hf  Hf45  1  0.49977630  0.00053726  0.14661451  1
  Hf  Hf46  1  0.33353796  0.34273939  0.97844529  1
  Hf  Hf47  1  0.82883657  0.32618957  0.98170974  1
  Hf  Hf48  1  0.33772422  0.33855197  0.48507547  1
  Hf  Hf49  1  0.83569250  0.33844227  0.47664185  1
  Hf  Hf50  1  0.17111349  0.66409481  0.31658530  1
  Hf  Hf51  1  0.67505528  0.67111347  0.31794855  1
  Hf  Hf52  1  0.15755500  0.64349354  0.81955711  1
  Hf  Hf53  1  0.65812694  0.65446722  0.81268511  1
  Si  Si54  1  0.14665685  0.99118438  0.25295566  1
  Si  Si55  1  0.35160557  0.70724742  0.25018676  1
  Si  Si56  1  0.85261846  0.71151939  0.24960576  1
  Si  Si57  1  0.14471585  0.29358870  0.75213091  1
  Si  Si58  1  0.64285106  0.29020007  0.75118685  1
  Si  Si59  1  0.00649830  0.71676272  0.75246078  1
  Si  Si60  1  0.50103023  0.71547653  0.75089859  1
  Si  Si61  1  0.85169639  0.99029696  0.75101539  1
  Si  Si62  1  0.48305486  0.32848247  0.58755009  1
  Si  Si63  1  0.18199263  0.32876949  0.08463272  1
  Si  Si64  1  0.68337164  0.33110228  0.08692557  1
  Si  Si65  1  0.31700505  0.67087631  0.91768449  1
  Si  Si66  1  0.01071213  0.35665551  0.91754459  1
  Si  Si67  1  0.51406752  0.36398239  0.91561990  1
  Si  Si68  1  0.81589273  0.96522959  0.41710914  1
  Si  Si69  1  0.16965509  0.36753248  0.41585750  1
  Si  Si70  1  0.66533792  0.36488276  0.42020222  1
  Si  Si71  1  0.02181321  0.66917509  0.41502695  1
  S  S72  1  0.64394812  0.98933912  0.25060794  1
  S  S73  1  0.00290989  0.29030981  0.25138361  1
  S  S74  1  0.50468161  0.29770555  0.24952552  1
  S  S75  1  0.35497321  0.99156084  0.75143619  1
  S  S76  1  0.97982427  0.32419720  0.58348454  1
  S  S77  1  0.18298416  0.03941340  0.58375755  1
  S  S78  1  0.68518749  0.04365892  0.58380184  1
  S  S79  1  0.33597830  0.63466665  0.58405365  1
  S  S80  1  0.83886864  0.63523466  0.58326837  1
  S  S81  1  0.47969951  0.63310807  0.08360443  1
  S  S82  1  0.97883763  0.63070812  0.08348906  1
  S  S83  1  0.33714338  0.04153144  0.08493632  1
  S  S84  1  0.83667004  0.04026066  0.08213530  1
  S  S85  1  0.81633580  0.66508562  0.91659037  1
  S  S86  1  0.16672821  0.96512952  0.91502686  1
  S  S87  1  0.66907361  0.96676755  0.91546832  1
  S  S88  1  0.31265771  0.96616807  0.41831645  1
  S  S89  1  0.51753665  0.65808087  0.41629046  1
  O  O90  1  0.09783834  0.01825528  0.30686646  1
  O  O91  1  0.61001540  0.01819028  0.30359294  1
  O  O92  1  0.40248311  0.80320153  0.30536408  1
  O  O93  1  0.90952180  0.81416976  0.30472715  1
  O  O94  1  0.49432918  0.20245262  0.30176197  1
  O  O95  1  0.99335313  0.19363562  0.30420771  1
  O  O96  1  0.09748423  0.17986225  0.80851014  1
  O  O97  1  0.59223283  0.16577846  0.80328013  1
  O  O98  1  0.48940529  0.81363829  0.80396061  1
  O  O99  1  0.99310760  0.81080575  0.80672119  1
  O  O100  1  0.40756553  0.01611207  0.80183643  1
  O  O101  1  0.91376115  0.01966174  0.80488106  1
  O  O102  1  0.39519892  0.96832679  0.69862119  1
  O  O103  1  0.89847307  0.96018239  0.69438967  1
  O  O104  1  0.08194260  0.20248318  0.69617753  1
  O  O105  1  0.58510546  0.20576835  0.69196347  1
  O  O106  1  0.02074896  0.83868392  0.69519115  1
  O  O107  1  0.51355216  0.83247601  0.69305689  1
  O  O108  1  0.39957261  0.83037196  0.19166259  1
  O  O109  1  0.89793755  0.82098628  0.19062895  1
  O  O110  1  0.01215822  0.20359272  0.20018611  1
  O  O111  1  0.51866051  0.21122928  0.19850360  1
  O  O112  1  0.08394588  0.96789652  0.19703495  1
  O  O113  1  0.59010262  0.97637170  0.19985519  1
  O  O114  1  0.44243226  0.33729706  0.64743649  1
  O  O115  1  0.93929980  0.33736488  0.63571581  1
  O  O116  1  0.22849407  0.11814732  0.63688207  1
  O  O117  1  0.73185589  0.12121966  0.63616920  1
  O  O118  1  0.32372988  0.54066325  0.63763038  1
  O  O119  1  0.82918145  0.53617384  0.63516525  1
  O  O120  1  0.44407854  0.53416803  0.13542704  1
  O  O121  1  0.94469285  0.53905609  0.13785826  1
  O  O122  1  0.33146219  0.11492478  0.13940080  1
  O  O123  1  0.82857777  0.11715198  0.13480824  1
  O  O124  1  0.23312084  0.34783911  0.14266589  1
  O  O125  1  0.73428233  0.35504450  0.14616391  1
  O  O126  1  0.23374205  0.31017295  0.02681770  1
  O  O127  1  0.73834084  0.31176576  0.03139261  1
  O  O128  1  0.42473443  0.54700467  0.03224169  1
  O  O129  1  0.92200678  0.53622706  0.03415122  1
  O  O130  1  0.34767777  0.15047858  0.03475566  1
  O  O131  1  0.84616427  0.15053412  0.03094929  1
  O  O132  1  0.22966702  0.14841506  0.53179896  1
  O  O133  1  0.72937030  0.15269463  0.53188627  1
  O  O134  1  0.34358226  0.53733069  0.53362167  1
  O  O135  1  0.84582758  0.54320443  0.53116743  1
  O  O136  1  0.41960448  0.31586536  0.53180791  1
  O  O137  1  0.92807329  0.31241186  0.53103623  1
  O  O138  1  0.28455735  0.70313512  0.97702385  1
  O  O139  1  0.78268023  0.69627663  0.96904351  1
  O  O140  1  0.07488334  0.43621233  0.96908500  1
  O  O141  1  0.56992806  0.43680875  0.97114761  1
  O  O142  1  0.15363449  0.86576291  0.96653764  1
  O  O143  1  0.65753314  0.86867539  0.96729776  1
  O  O144  1  0.27328614  0.86489352  0.46870618  1
  O  O145  1  0.78265919  0.84587818  0.47141387  1
  O  O146  1  0.14172209  0.43698497  0.46903756  1
  O  O147  1  0.65666490  0.44297309  0.47864029  1
  O  O148  1  0.08253146  0.72704748  0.46862103  1
  O  O149  1  0.56834674  0.68557057  0.46757261  1
  O  O150  1  0.06242430  0.62830691  0.35771629  1
  O  O151  1  0.55856525  0.63327822  0.36424769  1
  O  O152  1  0.25888239  0.88410970  0.36491420  1
  O  O153  1  0.74936679  0.87405313  0.36184027  1
  O  O154  1  0.18267734  0.48612115  0.35754223  1
  O  O155  1  0.68089324  0.49363543  0.36279383  1
  O  O156  1  0.05586864  0.47403254  0.85736332  1
  O  O157  1  0.56193555  0.48900424  0.85810004  1
  O  O158  1  0.17717424  0.88200679  0.86251647  1
  O  O159  1  0.68126743  0.88694855  0.86316593  1
  O  O160  1  0.25179872  0.63869176  0.86154603  1
  O  O161  1  0.76277531  0.64225272  0.86517918  1
  O  O162  1  0.99866539  0.81972825  0.40543263  1
  O  O163  1  0.50796471  0.80621003  0.40944364  1
  O  O164  1  0.39765492  0.99707661  0.41147669  1
  O  O165  1  0.91134553  0.00625211  0.40294177  1
  O  O166  1  0.08696363  0.17864044  0.40446385  1
  O  O167  1  0.59466550  0.17105958  0.41310897  1
  O  O168  1  0.00425117  0.17160169  0.90869223  1
  O  O169  1  0.50162632  0.17757760  0.90294133  1
  O  O170  1  0.09391480  0.99356509  0.90788225  1
  O  O171  1  0.59549381  0.99060546  0.90812017  1
  O  O172  1  0.41104696  0.82242102  0.90440642  1
  O  O173  1  0.90236333  0.80914527  0.90755612  1
  O  O174  1  0.48926650  0.15017663  0.58589054  1
  O  O175  1  0.98493051  0.16553418  0.58472656  1
  O  O176  1  0.09870301  0.03004402  0.58465288  1
  O  O177  1  0.60154117  0.03877736  0.58622227  1
  O  O178  1  0.41611560  0.79907030  0.58598115  1
  O  O179  1  0.91757139  0.80276148  0.58538353  1
  O  O180  1  0.47908871  0.79862804  0.08862274  1
  O  O181  1  0.97623019  0.79455040  0.08628852  1
  O  O182  1  0.41584603  0.02327251  0.08761462  1
  O  O183  1  0.91396162  0.02359276  0.08466096  1
  O  O184  1  0.08683183  0.15301399  0.08924377  1
  O  O185  1  0.58961422  0.15622845  0.09149490  1
  O  O186  1  0.34312045  0.13845846  0.74664921  1
  O  O187  1  0.84163046  0.15439260  0.74797559  1
  O  O188  1  0.23579011  0.30869142  0.74922869  1
  O  O189  1  0.73592272  0.31526208  0.74803895  1
  O  O190  1  0.42114758  0.52651459  0.75091906  1
  O  O191  1  0.92582721  0.53080560  0.74843295  1
  O  O192  1  0.33411568  0.51764275  0.24810025  1
  O  O193  1  0.84539327  0.52617070  0.25253005  1
  O  O194  1  0.43000169  0.31187784  0.24081256  1
  O  O195  1  0.93144177  0.31911585  0.24676580  1
  O  O196  1  0.24118753  0.14676981  0.25165017  1
  O  O197  1  0.72918428  0.13622909  0.24359192  1
  O  O198  1  0.31677448  0.48660476  0.92157377  1
  O  O199  1  0.82310078  0.50828145  0.92292450  1
  O  O200  1  0.41979576  0.34539676  0.92416268  1
  O  O201  1  0.91839577  0.34301233  0.92560942  1
  O  O202  1  0.24360731  0.13641952  0.91944701  1
  O  O203  1  0.74593706  0.13870436  0.92102105  1
  O  O204  1  0.31427120  0.13300875  0.42301467  1
  O  O205  1  0.82167087  0.15107221  0.42532793  1
  O  O206  1  0.25125080  0.33919935  0.42601577  1
  O  O207  1  0.75853671  0.36563516  0.42359824  1
  O  O208  1  0.43181762  0.50310891  0.42302226  1
  O  O209  1  0.92893872  0.49594789  0.42580416  1
  O  O210  1  0.17568668  0.49874096  0.08193189  1
  O  O211  1  0.68081856  0.50464420  0.08127423  1
  O  O212  1  0.06422253  0.66658755  0.07562204  1
  O  O213  1  0.56589906  0.67092973  0.07596312  1
  O  O214  1  0.26431898  0.87155369  0.07941219  1
  O  O215  1  0.76355212  0.87163664  0.07483708  1
  O  O216  1  0.17394570  0.87282149  0.57840308  1
  O  O217  1  0.67210401  0.87448024  0.57754852  1
  O  O218  1  0.26455941  0.66066652  0.57609072  1
  O  O219  1  0.76418117  0.65260623  0.57878006  1
  O  O220  1  0.06382240  0.47233670  0.57992109  1
  O  O221  1  0.57815307  0.48545117  0.58385325  1
  O  O222  1  0.14610054  0.81174255  0.25871409  1
  O  O223  1  0.64754912  0.83056606  0.25369405  1
  O  O224  1  0.25615394  0.69790764  0.25352073  1
  O  O225  1  0.75579935  0.68416395  0.25715043  1
  O  O226  1  0.08230510  0.45798586  0.25463776  1
  O  O227  1  0.58296709  0.46752442  0.25316690  1
  O  O228  1  0.15313774  0.48283290  0.75675731  1
  O  O229  1  0.64994982  0.47706246  0.75771837  1
  O  O230  1  0.09542435  0.71157743  0.75806909  1
  O  O231  1  0.58999942  0.70884620  0.75761948  1
  O  O232  1  0.27088703  0.83650758  0.75642377  1
  O  O233  1  0.76096786  0.81834835  0.76033409  1
