# generated using pymatgen
data_Na3Sc2Zn2PS5O24
_symmetry_space_group_name_H-M   'P 1'
_cell_length_a   8.82751341
_cell_length_b   8.83150802
_cell_length_c   22.88106769
_cell_angle_alpha   90.24815291
_cell_angle_beta   89.64352701
_cell_angle_gamma   119.88941909
_symmetry_Int_Tables_number   1
_chemical_formula_structural   Na3Sc2Zn2PS5O24
_chemical_formula_sum   'Na9 Sc6 Zn6 P3 S15 O72'
_cell_volume   1546.51515146
_cell_formula_units_Z   3
loop_
 _symmetry_equiv_pos_site_id
 _symmetry_equiv_pos_as_xyz
  1  'x, y, z'
loop_
 _atom_site_type_symbol
 _atom_site_label
 _atom_site_symmetry_multiplicity
 _atom_site_fract_x
 _atom_site_fract_y
 _atom_site_fract_z
 _atom_site_occupancy
  Na  Na0  1  0.36598431  0.99507644  0.75025303  1
  Na  Na1  1  0.66403682  0.96630973  0.58568037  1
  Na  Na2  1  0.66961863  0.69929421  0.08285772  1
  Na  Na3  1  0.01387296  0.00104608  0.50234622  1
  Na  Na4  1  0.00902197  0.00339688  0.00189667  1
  Na  Na5  1  0.67491786  0.33724503  0.83387065  1
  Na  Na6  1  0.66673248  0.33335749  0.33328192  1
  Na  Na7  1  0.31930983  0.66519682  0.16714639  1
  Na  Na8  1  0.33028005  0.65961460  0.66661716  1
  Sc  Sc9  1  0.00174412  0.00056819  0.35150625  1
  Sc  Sc10  1  0.99109909  0.00118360  0.85116253  1
  Sc  Sc11  1  0.66792516  0.32861389  0.68425519  1
  Sc  Sc12  1  0.67599878  0.33822716  0.18499782  1
  Sc  Sc13  1  0.67273597  0.33889336  0.98243062  1
  Sc  Sc14  1  0.65657640  0.32810419  0.48198401  1
  Zn  Zn15  1  0.00423125  0.99931482  0.65052535  1
  Zn  Zn16  1  0.00793225  0.99781386  0.15013504  1
  Zn  Zn17  1  0.31653274  0.66523227  0.01682719  1
  Zn  Zn18  1  0.32618513  0.66966107  0.51658642  1
  Zn  Zn19  1  0.33192714  0.66614791  0.31680382  1
  Zn  Zn20  1  0.34223768  0.66836772  0.81679847  1
  P  P21  1  0.70553225  0.99609808  0.74815890  1
  P  P22  1  0.36704271  0.03600311  0.58368366  1
  P  P23  1  0.96389728  0.62993140  0.08370751  1
  S  S24  1  0.29341503  0.99799263  0.24962825  1
  S  S25  1  0.70391397  0.70788415  0.24948273  1
  S  S26  1  0.00308949  0.29262168  0.24939388  1
  S  S27  1  0.29058068  0.29506667  0.74975699  1
  S  S28  1  -0.00033147  0.70637040  0.75006251  1
  S  S29  1  0.96302200  0.33605142  0.58252131  1
  S  S30  1  0.66605271  0.62614308  0.58317184  1
  S  S31  1  0.66690137  0.03953423  0.08336099  1
  S  S32  1  0.37210081  0.33195438  0.08341294  1
  S  S33  1  0.62339247  0.66574408  0.91767081  1
  S  S34  1  0.04423013  0.37696986  0.91607418  1
  S  S35  1  0.33323725  0.96024919  0.91605826  1
  S  S36  1  0.62525239  0.95789640  0.41654478  1
  S  S37  1  0.33289920  0.37774882  0.41649578  1
  S  S38  1  0.04104443  0.66573763  0.41629182  1
  O  O39  1  0.21023154  0.02603173  0.30241860  1
  O  O40  1  0.81679510  0.79272681  0.30121812  1
  O  O41  1  0.97549669  0.18330663  0.30232123  1
  O  O42  1  0.21201968  0.18118157  0.80196937  1
  O  O43  1  0.97381478  0.78971087  0.80303967  1
  O  O44  1  0.82106454  0.02506008  0.80209565  1
  O  O45  1  0.78634280  0.97111200  0.69180296  1
  O  O46  1  0.18699379  0.21583533  0.69698171  1
  O  O47  1  0.03322018  0.81656466  0.69789003  1
  O  O48  1  0.78181855  0.81081132  0.19549890  1
  O  O49  1  0.02756700  0.21130935  0.19653773  1
  O  O50  1  0.18738651  0.97133438  0.19717209  1
  O  O51  1  0.88032531  0.36246741  0.63555976  1
  O  O52  1  0.48439840  0.12184243  0.63911789  1
  O  O53  1  0.64328908  0.51923273  0.63565733  1
  O  O54  1  0.87244536  0.51374128  0.13770008  1
  O  O55  1  0.63907402  0.12176932  0.13577912  1
  O  O56  1  0.48381732  0.35962143  0.13556359  1
  O  O57  1  0.45514637  0.30491316  0.03053799  1
  O  O58  1  0.84362557  0.54121421  0.02987288  1
  O  O59  1  0.69057520  0.14760949  0.03085463  1
  O  O60  1  0.46123714  0.15352851  0.53034300  1
  O  O61  1  0.69242133  0.54280374  0.53058596  1
  O  O62  1  0.84999565  0.30830351  0.53070024  1
  O  O63  1  0.54687126  0.69345962  0.97198119  1
  O  O64  1  0.14932703  0.45241946  0.96929243  1
  O  O65  1  0.30580720  0.85260359  0.96822893  1
  O  O66  1  0.55134342  0.85474122  0.47091750  1
  O  O67  1  0.30443298  0.45491266  0.46980905  1
  O  O68  1  0.14706039  0.69663342  0.46916468  1
  O  O69  1  0.11932271  0.63715189  0.36329376  1
  O  O70  1  0.51725397  0.87792663  0.36473534  1
  O  O71  1  0.36136782  0.48283181  0.36349432  1
  O  O72  1  0.12183324  0.48289197  0.86334932  1
  O  O73  1  0.36139078  0.88456119  0.86186647  1
  O  O74  1  0.51755792  0.63831910  0.86552714  1
  O  O75  1  0.02143127  0.82433438  0.40948455  1
  O  O76  1  0.80312310  0.97770842  0.40938482  1
  O  O77  1  0.17582528  0.19898190  0.40994318  1
  O  O78  1  0.02420128  0.19866492  0.91012742  1
  O  O79  1  0.17514299  0.97962707  0.90998094  1
  O  O80  1  0.80144558  0.82290589  0.91111778  1
  O  O81  1  0.97207784  0.17295409  0.58778421  1
  O  O82  1  0.18710906  0.02060410  0.58955319  1
  O  O83  1  0.82210362  0.80377269  0.58753341  1
  O  O84  1  0.97132198  0.80816991  0.08902743  1
  O  O85  1  0.82512344  0.02189645  0.08868493  1
  O  O86  1  0.19743855  0.17728180  0.08928480  1
  O  O87  1  0.68405615  0.16280965  0.74426747  1
  O  O88  1  0.46767448  0.30898384  0.74427892  1
  O  O89  1  0.84130220  0.53297811  0.74415177  1
  O  O90  1  0.68825710  0.53154157  0.24470154  1
  O  O91  1  0.84156316  0.30762081  0.24497209  1
  O  O92  1  0.46883570  0.15851965  0.24404069  1
  O  O93  1  0.64340279  0.50757438  0.92297933  1
  O  O94  1  0.86542169  0.35522962  0.92270877  1
  O  O95  1  0.49143335  0.13691500  0.92312581  1
  O  O96  1  0.64650695  0.13614250  0.42274353  1
  O  O97  1  0.49078174  0.35699458  0.42233282  1
  O  O98  1  0.86370540  0.50901027  0.42330349  1
  O  O99  1  0.36357009  0.49539510  0.07754789  1
  O  O100  1  0.14390166  0.64540633  0.07818284  1
  O  O101  1  0.51173283  0.86146741  0.07770084  1
  O  O102  1  0.36149788  0.85888949  0.57771218  1
  O  O103  1  0.50798665  0.64440067  0.57778159  1
  O  O104  1  0.13706312  0.49103660  0.57685334  1
  O  O105  1  0.31230297  0.84144574  0.25653623  1
  O  O106  1  0.52883020  0.68890388  0.25686655  1
  O  O107  1  0.15816091  0.46859275  0.25610752  1
  O  O108  1  0.31034165  0.46943757  0.75732964  1
  O  O109  1  0.15818527  0.68911787  0.75686672  1
  O  O110  1  0.51893216  0.83820390  0.75534910  1
