# generated using pymatgen
data_Na8Y2Si5Sn2SO24
_symmetry_space_group_name_H-M   'P 1'
_cell_length_a   9.34136394
_cell_length_b   9.31899848
_cell_length_c   22.87715263
_cell_angle_alpha   90.30699147
_cell_angle_beta   89.41157669
_cell_angle_gamma   120.09593786
_symmetry_Int_Tables_number   1
_chemical_formula_structural   Na8Y2Si5Sn2SO24
_chemical_formula_sum   'Na24 Y6 Si15 Sn6 S3 O72'
_cell_volume   1722.93367446
_cell_formula_units_Z   3
loop_
 _symmetry_equiv_pos_site_id
 _symmetry_equiv_pos_as_xyz
  1  'x, y, z'
loop_
 _atom_site_type_symbol
 _atom_site_label
 _atom_site_symmetry_multiplicity
 _atom_site_fract_x
 _atom_site_fract_y
 _atom_site_fract_z
 _atom_site_occupancy
  Na  Na0  1  0.64244302  0.00271244  0.25338942  1
  Na  Na1  1  0.35740433  0.36081868  0.24687645  1
  Na  Na2  1  0.99992573  0.63958945  0.24974641  1
  Na  Na3  1  0.63749331  0.63552301  0.74532028  1
  Na  Na4  1  0.99483790  0.36166425  0.74871195  1
  Na  Na5  1  0.36726294  0.00617905  0.74873027  1
  Na  Na6  1  0.29908489  0.33672314  0.58887113  1
  Na  Na7  1  0.03851829  0.70301292  0.58420578  1
  Na  Na8  1  0.66583114  0.96063360  0.58424295  1
  Na  Na9  1  0.28203432  0.96457434  0.08092944  1
  Na  Na10  1  0.66926166  0.68499716  0.08948659  1
  Na  Na11  1  0.04826003  0.34079632  0.08844563  1
  Na  Na12  1  0.98162124  0.66834581  0.91549421  1
  Na  Na13  1  0.70422791  0.04729197  0.90601050  1
  Na  Na14  1  0.31762163  0.28080936  0.91823812  1
  Na  Na15  1  0.95576857  0.29599009  0.41253391  1
  Na  Na16  1  0.32970806  0.01911131  0.41655915  1
  Na  Na17  1  0.71314572  0.68009013  0.41943268  1
  Na  Na18  1  0.98839642  0.98690310  0.50305150  1
  Na  Na19  1  0.02648082  0.01001624  0.99974182  1
  Na  Na20  1  0.66817312  0.32248785  0.82933407  1
  Na  Na21  1  0.67406372  0.33182240  0.33173089  1
  Na  Na22  1  0.32248204  0.65328208  0.16935825  1
  Na  Na23  1  0.33403011  0.66663799  0.66528748  1
  Y  Y24  1  0.99681152  0.99655959  0.34553671  1
  Y  Y25  1  0.00711116  0.00443378  0.84464935  1
  Y  Y26  1  0.00435698  0.99954673  0.15572709  1
  Y  Y27  1  0.66577173  0.33269740  0.98080738  1
  Y  Y28  1  0.31780280  0.65654691  0.01869635  1
  Y  Y29  1  0.33533144  0.67471009  0.52160618  1
  Si  Si30  1  0.31063545  0.00403861  0.24977763  1
  Si  Si31  1  0.68801149  0.69386184  0.25105436  1
  Si  Si32  1  -0.00000069  0.30962141  0.25036099  1
  Si  Si33  1  0.30287056  0.30269906  0.74815371  1
  Si  Si34  1  0.99500851  0.69949693  0.74777864  1
  Si  Si35  1  0.69928754  0.99877096  0.74918669  1
  Si  Si36  1  0.95784460  0.32434396  0.58641481  1
  Si  Si37  1  0.37465865  0.05046068  0.58509422  1
  Si  Si38  1  0.67280102  0.62444863  0.58471936  1
  Si  Si39  1  0.95980186  0.63043610  0.08420699  1
  Si  Si40  1  0.37092308  0.33367271  0.08459165  1
  Si  Si41  1  0.03693924  0.36711192  0.91413528  1
  Si  Si42  1  0.33389131  0.96099531  0.91518203  1
  Si  Si43  1  0.63110903  0.96926193  0.41776457  1
  Si  Si44  1  0.03053445  0.66161677  0.41864804  1
  Sn  Sn45  1  0.99971712  0.00001510  0.64965374  1
  Sn  Sn46  1  0.66779166  0.33347504  0.68414535  1
  Sn  Sn47  1  0.66857498  0.34461368  0.18634991  1
  Sn  Sn48  1  0.67903852  0.33017406  0.48743185  1
  Sn  Sn49  1  0.32867342  0.67782538  0.31590394  1
  Sn  Sn50  1  0.32165881  0.66877780  0.81000209  1
  S  S51  1  0.66830017  0.03959214  0.08473384  1
  S  S52  1  0.62458110  0.66717425  0.91501394  1
  S  S53  1  0.33746681  0.37302100  0.41630728  1
  O  O54  1  0.23770190  0.04853437  0.30754678  1
  O  O55  1  0.80875726  0.77249810  0.30687775  1
  O  O56  1  0.96058649  0.19295290  0.30760715  1
  O  O57  1  0.23264429  0.19098509  0.80655897  1
  O  O58  1  0.95533808  0.76809189  0.80712161  1
  O  O59  1  0.80894941  0.03731570  0.80753646  1
  O  O60  1  0.78574947  0.95998359  0.69213070  1
  O  O61  1  0.17595669  0.21719820  0.69205511  1
  O  O62  1  0.03507324  0.82630885  0.69167719  1
  O  O63  1  0.76006734  0.80952362  0.19292999  1
  O  O64  1  0.03953756  0.23415107  0.19218338  1
  O  O65  1  0.19159722  0.96139606  0.19339808  1
  O  O66  1  0.87199361  0.36186144  0.64219445  1
  O  O67  1  0.49280035  0.13332370  0.64160077  1
  O  O68  1  0.64048401  0.50822954  0.64181092  1
  O  O69  1  0.87042081  0.50619752  0.14140131  1
  O  O70  1  0.64345307  0.11931286  0.13751139  1
  O  O71  1  0.48786409  0.35507873  0.14216340  1
  O  O72  1  0.45052037  0.30279806  0.02559912  1
  O  O73  1  0.85411482  0.54576908  0.02548740  1
  O  O74  1  0.69004843  0.13801563  0.03155546  1
  O  O75  1  0.45696408  0.16681308  0.52533996  1
  O  O76  1  0.70474687  0.54138712  0.52450020  1
  O  O77  1  0.84525985  0.28626029  0.52627384  1
  O  O78  1  0.54877109  0.68830425  0.96901467  1
  O  O79  1  0.14798943  0.44574084  0.97257812  1
  O  O80  1  0.31663471  0.85864431  0.97481469  1
  O  O81  1  0.55142890  0.85127651  0.47404922  1
  O  O82  1  0.31417335  0.45057327  0.46925754  1
  O  O83  1  0.14223844  0.68742499  0.47520801  1
  O  O84  1  0.11531302  0.62455343  0.35971811  1
  O  O85  1  0.51103405  0.88173310  0.35931661  1
  O  O86  1  0.36082653  0.47702732  0.36329749  1
  O  O87  1  0.13215485  0.48889108  0.85653371  1
  O  O88  1  0.36583434  0.87001561  0.85714626  1
  O  O89  1  0.52222958  0.64565278  0.86268870  1
  O  O90  1  0.01524509  0.82816713  0.41293641  1
  O  O91  1  0.81888311  0.00063570  0.41211278  1
  O  O92  1  0.18995634  0.20636537  0.41154475  1
  O  O93  1  0.00955381  0.17940106  0.91249230  1
  O  O94  1  0.16299163  0.97011770  0.91294613  1
  O  O95  1  0.79184570  0.81641755  0.91078268  1
  O  O96  1  0.96793511  0.15245780  0.59079532  1
  O  O97  1  0.19044841  0.03586148  0.58953873  1
  O  O98  1  0.84377339  0.80881297  0.58881064  1
  O  O99  1  0.97111804  0.81150531  0.08772332  1
  O  O100  1  0.81877941  0.02494951  0.08906209  1
  O  O101  1  0.18318871  0.17278561  0.08763560  1
  O  O102  1  0.67696834  0.16303490  0.74213851  1
  O  O103  1  0.48788955  0.32320217  0.74116838  1
  O  O104  1  0.83202745  0.51255703  0.74159982  1
  O  O105  1  0.67070775  0.50875375  0.24589381  1
  O  O106  1  0.83146404  0.32510497  0.24319252  1
  O  O107  1  0.49853990  0.16508971  0.24089970  1
  O  O108  1  0.63982954  0.51594851  0.91800274  1
  O  O109  1  0.85779731  0.35977012  0.91468834  1
  O  O110  1  0.49971044  0.14610764  0.91369850  1
  O  O111  1  0.63399459  0.15121394  0.42228794  1
  O  O112  1  0.49109768  0.36026261  0.41979834  1
  O  O113  1  0.84275823  0.48978324  0.42187521  1
  O  O114  1  0.36950110  0.50960682  0.08531501  1
  O  O115  1  0.14523219  0.65088289  0.08604382  1
  O  O116  1  0.51966572  0.87221999  0.08079096  1
  O  O117  1  0.35395780  0.86590338  0.58250817  1
  O  O118  1  0.50792551  0.64176333  0.58151068  1
  O  O119  1  0.14218654  0.48594498  0.58232757  1
  O  O120  1  0.32626174  0.83548193  0.25548842  1
  O  O121  1  0.50167125  0.67021006  0.26117898  1
  O  O122  1  0.16944441  0.49383150  0.25812673  1
  O  O123  1  0.32213860  0.48979412  0.75461004  1
  O  O124  1  0.16594852  0.68551229  0.75026385  1
  O  O125  1  0.51492424  0.82670651  0.75416379  1
