# generated using pymatgen
data_HfZrP2SO12
_symmetry_space_group_name_H-M   'P 1'
_cell_length_a   8.93535979
_cell_length_b   8.94609420
_cell_length_c   23.04299876
_cell_angle_alpha   90.15684254
_cell_angle_beta   89.98112814
_cell_angle_gamma   119.92453427
_symmetry_Int_Tables_number   1
_chemical_formula_structural   HfZrP2SO12
_chemical_formula_sum   'Hf6 Zr6 P12 S6 O72'
_cell_volume   1596.40454635
_cell_formula_units_Z   6
loop_
 _symmetry_equiv_pos_site_id
 _symmetry_equiv_pos_as_xyz
  1  'x, y, z'
loop_
 _atom_site_type_symbol
 _atom_site_label
 _atom_site_symmetry_multiplicity
 _atom_site_fract_x
 _atom_site_fract_y
 _atom_site_fract_z
 _atom_site_occupancy
  Hf  Hf0  1  0.00338007  0.00298135  0.85654465  1
  Hf  Hf1  1  0.67008441  0.33693374  0.18879308  1
  Hf  Hf2  1  0.65883115  0.33900407  0.97681098  1
  Hf  Hf3  1  0.33340916  0.67024935  0.02252919  1
  Hf  Hf4  1  0.33667032  0.66991752  0.52266786  1
  Hf  Hf5  1  0.34670650  0.67246973  0.81122597  1
  Zr  Zr6  1  -0.00023372  0.00344733  0.35634502  1
  Zr  Zr7  1  0.99201863  0.00595549  0.64393790  1
  Zr  Zr8  1  0.01413946  0.00577245  0.14300515  1
  Zr  Zr9  1  0.66629088  0.33662595  0.68994826  1
  Zr  Zr10  1  0.68017641  0.33902293  0.47702618  1
  Zr  Zr11  1  0.32552287  0.67233752  0.31007683  1
  P  P12  1  0.29095426  0.00546895  0.24997021  1
  P  P13  1  0.99860383  0.28644797  0.24950478  1
  P  P14  1  0.28481628  0.28716625  0.75081612  1
  P  P15  1  0.71397163  0.00176465  0.75122776  1
  P  P16  1  0.95740343  0.33840038  0.58349706  1
  P  P17  1  0.66572075  0.62018499  0.58310408  1
  P  P18  1  0.95198107  0.61728767  0.08273731  1
  P  P19  1  0.38373001  0.33887130  0.08317783  1
  P  P20  1  0.62161732  0.67016170  0.91705128  1
  P  P21  1  0.33399862  0.95277857  0.91668866  1
  P  P22  1  0.61826054  0.95194581  0.41696888  1
  P  P23  1  0.04905622  0.67043688  0.41738264  1
  S  S24  1  0.71101141  0.71117935  0.24955747  1
  S  S25  1  0.00338819  0.71393187  0.75079131  1
  S  S26  1  0.37733508  0.04448727  0.58307368  1
  S  S27  1  0.66681793  0.04681215  0.08289285  1
  S  S28  1  0.04504383  0.38010275  0.91674540  1
  S  S29  1  0.33504174  0.38056084  0.41700596  1
  O  O30  1  0.20413870  0.03046518  0.30373406  1
  O  O31  1  0.81922902  0.78836737  0.30177615  1
  O  O32  1  0.96970998  0.17331362  0.30360239  1
  O  O33  1  0.19826488  0.17189084  0.80425563  1
  O  O34  1  0.97348847  0.79443253  0.80253369  1
  O  O35  1  0.82802315  0.02671247  0.80436827  1
  O  O36  1  0.79481544  0.96841228  0.69683064  1
  O  O37  1  0.17353118  0.20087950  0.69652566  1
  O  O38  1  0.03145397  0.81878088  0.69858738  1
  O  O39  1  0.78958061  0.81787374  0.19781565  1
  O  O40  1  0.02451535  0.19868760  0.19578689  1
  O  O41  1  0.17454764  0.97110380  0.19616852  1
  O  O42  1  0.87049290  0.36361304  0.63718754  1
  O  O43  1  0.48597328  0.12188980  0.63519179  1
  O  O44  1  0.63658279  0.50650516  0.63706215  1
  O  O45  1  0.86683333  0.50431355  0.13677453  1
  O  O46  1  0.63684093  0.12552071  0.13510221  1
  O  O47  1  0.49524125  0.36265441  0.13695611  1
  O  O48  1  0.46708094  0.30570023  0.02945159  1
  O  O49  1  0.83838622  0.52839933  0.02907828  1
  O  O50  1  0.69389441  0.15390223  0.03107534  1
  O  O51  1  0.45582189  0.15095065  0.53128011  1
  O  O52  1  0.69147099  0.53277422  0.52932627  1
  O  O53  1  0.84151260  0.30415837  0.52966790  1
  O  O54  1  0.53346775  0.69523367  0.97054907  1
  O  O55  1  0.15461249  0.45901707  0.96864997  1
  O  O56  1  0.30511929  0.83815751  0.97038650  1
  O  O57  1  0.53226354  0.83820282  0.47067726  1
  O  O58  1  0.30596942  0.46096938  0.46898472  1
  O  O59  1  0.16149613  0.69419664  0.47081839  1
  O  O60  1  0.13017349  0.63702067  0.36320863  1
  O  O61  1  0.50686005  0.86534429  0.36284746  1
  O  O62  1  0.36237636  0.48573683  0.36490020  1
  O  O63  1  0.12388533  0.48681582  0.86482761  1
  O  O64  1  0.35895816  0.86430884  0.86289753  1
  O  O65  1  0.50551661  0.63707110  0.86321381  1
  O  O66  1  0.02724390  0.82781587  0.40725274  1
  O  O67  1  0.79872014  0.97331868  0.40754695  1
  O  O68  1  0.17981853  0.20800009  0.40986851  1
  O  O69  1  0.02671515  0.20697891  0.90837407  1
  O  O70  1  0.17538601  0.97465279  0.90612859  1
  O  O71  1  0.80099462  0.82689647  0.90580644  1
  O  O72  1  0.97787684  0.17809254  0.59158079  1
  O  O73  1  0.20413743  0.02151685  0.59202694  1
  O  O74  1  0.82608487  0.79855096  0.59322287  1
  O  O75  1  0.97039983  0.79608285  0.09286664  1
  O  O76  1  0.81709268  0.02418147  0.09164151  1
  O  O77  1  0.20303618  0.17846537  0.09129786  1
  O  O78  1  0.69210546  0.15916369  0.74064540  1
  O  O79  1  0.46525164  0.30836812  0.74096746  1
  O  O80  1  0.84851781  0.54122953  0.74334789  1
  O  O81  1  0.69277814  0.53777553  0.24124664  1
  O  O82  1  0.84015930  0.30849532  0.23917412  1
  O  O83  1  0.47003544  0.16221787  0.23882352  1
  O  O84  1  0.64227302  0.50992048  0.92598188  1
  O  O85  1  0.87165049  0.35736115  0.92616688  1
  O  O86  1  0.49393467  0.13157377  0.92748569  1
  O  O87  1  0.63678644  0.13060206  0.42676995  1
  O  O88  1  0.48533074  0.35779076  0.42580739  1
  O  O89  1  0.86838452  0.51051275  0.42519208  1
  O  O90  1  0.36092756  0.49559724  0.07222251  1
  O  O91  1  0.13269640  0.63953811  0.07246367  1
  O  O92  1  0.51164214  0.87376849  0.07475322  1
  O  O93  1  0.35932816  0.87122546  0.57475023  1
  O  O94  1  0.50715090  0.64195444  0.57279942  1
  O  O95  1  0.13649030  0.49521903  0.57243076  1
  O  O96  1  0.31127509  0.84512174  0.25803364  1
  O  O97  1  0.53774286  0.68813828  0.25851887  1
  O  O98  1  0.15900002  0.46480822  0.25962770  1
  O  O99  1  0.30394113  0.46609372  0.76153294  1
  O  O100  1  0.15407742  0.69096546  0.76041991  1
  O  O101  1  0.53313735  0.84192299  0.76002005  1
