# generated using pymatgen
data_Ca2Nb10Si9(SO8)9
_symmetry_space_group_name_H-M   'P 1'
_cell_length_a   8.94423902
_cell_length_b   8.97510114
_cell_length_c   23.04796893
_cell_angle_alpha   90.22104484
_cell_angle_beta   89.88257103
_cell_angle_gamma   119.81153384
_symmetry_Int_Tables_number   1
_chemical_formula_structural   Ca2Nb10Si9(SO8)9
_chemical_formula_sum   'Ca2 Nb10 Si9 S9 O72'
_cell_volume   1605.33046235
_cell_formula_units_Z   1
loop_
 _symmetry_equiv_pos_site_id
 _symmetry_equiv_pos_as_xyz
  1  'x, y, z'
loop_
 _atom_site_type_symbol
 _atom_site_label
 _atom_site_symmetry_multiplicity
 _atom_site_fract_x
 _atom_site_fract_y
 _atom_site_fract_z
 _atom_site_occupancy
  Ca  Ca0  1  0.67724781  0.34184585  0.69233384  1
  Ca  Ca1  1  0.66252885  0.33622993  0.19042371  1
  Nb  Nb2  1  0.00056176  0.00122008  0.36232388  1
  Nb  Nb3  1  0.99964660  0.99032298  0.86157205  1
  Nb  Nb4  1  0.00080073  0.99918774  0.64496951  1
  Nb  Nb5  1  0.00572965  0.00492480  0.13998121  1
  Nb  Nb6  1  0.65156614  0.33070255  0.97138576  1
  Nb  Nb7  1  0.67859160  0.32940004  0.47502832  1
  Nb  Nb8  1  0.33261925  0.65628954  0.01525106  1
  Nb  Nb9  1  0.32611041  0.65983250  0.51987411  1
  Nb  Nb10  1  0.33460815  0.66406737  0.31540343  1
  Nb  Nb11  1  0.32242070  0.66520419  0.81150055  1
  Si  Si12  1  0.00445791  0.71923904  0.75102987  1
  Si  Si13  1  0.95732979  0.33124146  0.58464051  1
  Si  Si14  1  0.38482189  0.34297395  0.08407508  1
  Si  Si15  1  0.61494889  0.66579068  0.91291374  1
  Si  Si16  1  0.04172378  0.37934419  0.91428499  1
  Si  Si17  1  0.33333202  0.94683784  0.91672562  1
  Si  Si18  1  0.61378387  0.94868833  0.41738796  1
  Si  Si19  1  0.34144327  0.38346443  0.41711262  1
  Si  Si20  1  0.04879894  0.66532894  0.41649941  1
  S  S21  1  0.27299681  0.98769314  0.25132457  1
  S  S22  1  0.71712485  0.72715578  0.25181854  1
  S  S23  1  0.00987778  0.28310222  0.25118050  1
  S  S24  1  0.27314471  0.28319867  0.75171986  1
  S  S25  1  0.71400270  0.98833484  0.75232037  1
  S  S26  1  0.37399569  0.04087925  0.58211249  1
  S  S27  1  0.66637897  0.62693617  0.58223143  1
  S  S28  1  0.96220575  0.62643787  0.08327984  1
  S  S29  1  0.66396856  0.03765544  0.08295218  1
  O  O30  1  0.18289261  0.00782973  0.30231888  1
  O  O31  1  0.82399509  0.81960527  0.30333094  1
  O  O32  1  0.99235579  0.17588491  0.30223258  1
  O  O33  1  0.18412456  0.18028170  0.80294937  1
  O  O34  1  -0.00032055  0.83501611  0.80653491  1
  O  O35  1  0.82293493  0.01224451  0.80343636  1
  O  O36  1  0.80327596  0.97034676  0.69787962  1
  O  O37  1  0.16516016  0.20119563  0.69696983  1
  O  O38  1  0.03159369  0.84449136  0.69311607  1
  O  O39  1  0.79832188  0.83100038  0.19870864  1
  O  O40  1  0.03035264  0.19677968  0.19758089  1
  O  O41  1  0.16623284  0.96699811  0.19786941  1
  O  O42  1  0.88930090  0.37751775  0.63980494  1
  O  O43  1  0.47233380  0.10777067  0.63459243  1
  O  O44  1  0.62578971  0.52515570  0.63406196  1
  O  O45  1  0.89606108  0.52749395  0.13622662  1
  O  O46  1  0.63772517  0.10848101  0.13626527  1
  O  O47  1  0.48146684  0.37150773  0.14292137  1
  O  O48  1  0.47662531  0.30577714  0.02769869  1
  O  O49  1  0.84987502  0.55283360  0.03283388  1
  O  O50  1  0.70513672  0.15060306  0.03255813  1
  O  O51  1  0.45555844  0.15296495  0.53050837  1
  O  O52  1  0.69801437  0.54582421  0.53073183  1
  O  O53  1  0.83142497  0.30427021  0.52619983  1
  O  O54  1  0.52708774  0.69480334  0.97150017  1
  O  O55  1  0.16847773  0.47224763  0.97060967  1
  O  O56  1  0.30394983  0.83162999  0.97405236  1
  O  O57  1  0.52974940  0.82830493  0.47207126  1
  O  O58  1  0.30146702  0.47371599  0.47072951  1
  O  O59  1  0.17248597  0.70293379  0.47151362  1
  O  O60  1  0.13951392  0.63330061  0.35851352  1
  O  O61  1  0.49381504  0.85749081  0.35868629  1
  O  O62  1  0.36747256  0.50445883  0.35881264  1
  O  O63  1  0.13322402  0.50655466  0.85877940  1
  O  O64  1  0.36701787  0.85874933  0.86012696  1
  O  O65  1  0.49305078  0.63059262  0.85770536  1
  O  O66  1  0.02666702  0.83256319  0.40247363  1
  O  O67  1  0.80662772  0.97748125  0.40241415  1
  O  O68  1  0.17078426  0.19622374  0.40177913  1
  O  O69  1  0.02351904  0.19481974  0.90188172  1
  O  O70  1  0.17175625  0.97934944  0.90757557  1
  O  O71  1  0.80461121  0.83391980  0.90620008  1
  O  O72  1  0.97988068  0.15940844  0.59405357  1
  O  O73  1  0.19670255  0.02208540  0.58873188  1
  O  O74  1  0.82415592  0.80235176  0.59044032  1
  O  O75  1  0.97733150  0.80532704  0.09446271  1
  O  O76  1  0.82561480  0.01698784  0.09378349  1
  O  O77  1  0.18369964  0.16226841  0.09521142  1
  O  O78  1  0.68978234  0.13454576  0.74671423  1
  O  O79  1  0.43909140  0.29548133  0.74520930  1
  O  O80  1  0.83750834  0.54098491  0.75158207  1
  O  O81  1  0.70224557  0.55947962  0.24952873  1
  O  O82  1  0.85896304  0.30130486  0.24642828  1
  O  O83  1  0.44247392  0.13692434  0.24752012  1
  O  O84  1  0.64030375  0.49992269  0.92748803  1
  O  O85  1  0.85819948  0.36146459  0.93397526  1
  O  O86  1  0.50526165  0.13682084  0.92739687  1
  O  O87  1  0.63389495  0.13789113  0.42695008  1
  O  O88  1  0.50356453  0.35977800  0.43146144  1
  O  O89  1  0.85914521  0.50069535  0.42766244  1
  O  O90  1  0.34084566  0.49403771  0.06829709  1
  O  O91  1  0.13944379  0.66351953  0.07270167  1
  O  O92  1  0.52060452  0.86362401  0.07267629  1
  O  O93  1  0.34724832  0.86546181  0.56999390  1
  O  O94  1  0.52026211  0.65873644  0.56951791  1
  O  O95  1  0.15031208  0.49263614  0.56616279  1
  O  O96  1  0.28118574  0.82652424  0.25715778  1
  O  O97  1  0.54363828  0.71336318  0.25847685  1
  O  O98  1  0.17065241  0.45241190  0.25691804  1
  O  O99  1  0.28532304  0.45395445  0.75670354  1
  O  O100  1  0.18611985  0.71276289  0.75959835  1
  O  O101  1  0.54826782  0.82470178  0.75678267  1
