# generated using pymatgen
data_MgCd2(FeO2)4
_symmetry_space_group_name_H-M   'P 1'
_cell_length_a   6.56960215
_cell_length_b   6.44340793
_cell_length_c   6.71281192
_cell_angle_alpha   55.13171739
_cell_angle_beta   56.66123251
_cell_angle_gamma   59.02751880
_symmetry_Int_Tables_number   1
_chemical_formula_structural   MgCd2(FeO2)4
_chemical_formula_sum   'Mg1 Cd2 Fe4 O8'
_cell_volume   186.26242573
_cell_formula_units_Z   1
loop_
 _symmetry_equiv_pos_site_id
 _symmetry_equiv_pos_as_xyz
  1  'x, y, z'
loop_
 _atom_site_type_symbol
 _atom_site_label
 _atom_site_symmetry_multiplicity
 _atom_site_fract_x
 _atom_site_fract_y
 _atom_site_fract_z
 _atom_site_occupancy
  Mg  Mg0  1  0.81530707  0.12999710  0.03335085  1
  Cd  Cd1  1  0.16665248  0.14176750  0.14565245  1
  Cd  Cd2  1  0.92482243  0.82356481  0.79288459  1
  Fe  Fe3  1  0.47408714  0.00724897  0.53887811  1
  Fe  Fe4  1  0.00410988  0.49070659  0.51007073  1
  Fe  Fe5  1  0.42420181  0.58072982  0.00984752  1
  Fe  Fe6  1  0.55983184  0.51760822  0.45752466  1
  O  O7  1  0.73131803  0.70433143  0.72408194  1
  O  O8  1  0.15820621  0.20537627  0.78844847  1
  O  O9  1  0.27100569  0.69578374  0.31247050  1
  O  O10  1  0.71803934  0.26231849  0.29433612  1
  O  O11  1  0.75481720  0.26323754  0.70779077  1
  O  O12  1  0.32487001  0.69316025  0.70881771  1
  O  O13  1  0.27219038  0.28274748  0.28430047  1
  O  O14  1  0.78595748  0.75350478  0.24362813  1
