# generated using pymatgen
data_Na6Nb16Zn8Si15(S7O48)3
_symmetry_space_group_name_H-M   'P 1'
_cell_length_a   17.71814194
_cell_length_b   8.86351568
_cell_length_c   22.91796551
_cell_angle_alpha   90.02512150
_cell_angle_beta   89.64676778
_cell_angle_gamma   119.98353148
_symmetry_Int_Tables_number   1
_chemical_formula_structural   Na6Nb16Zn8Si15(S7O48)3
_chemical_formula_sum   'Na6 Nb16 Zn8 Si15 S21 O144'
_cell_volume   3117.40091586
_cell_formula_units_Z   1
loop_
 _symmetry_equiv_pos_site_id
 _symmetry_equiv_pos_as_xyz
  1  'x, y, z'
loop_
 _atom_site_type_symbol
 _atom_site_label
 _atom_site_symmetry_multiplicity
 _atom_site_fract_x
 _atom_site_fract_y
 _atom_site_fract_z
 _atom_site_occupancy
  Na  Na0  1  0.99823218  0.99673077  0.49792841  1
  Na  Na1  1  0.49897348  0.00080515  0.00060232  1
  Na  Na2  1  0.33279830  0.33227659  0.84250875  1
  Na  Na3  1  0.83501140  0.33029555  0.84129411  1
  Na  Na4  1  0.33578815  0.34000122  0.34024800  1
  Na  Na5  1  0.83391609  0.34126838  0.34005686  1
  Nb  Nb6  1  0.49612770  0.99693795  0.35900873  1
  Nb  Nb7  1  0.99493512  0.99216459  0.85998501  1
  Nb  Nb8  1  0.50415105  0.99591327  0.64590679  1
  Nb  Nb9  1  0.99526446  -0.00022333  0.14925679  1
  Nb  Nb10  1  0.33142447  0.34129573  0.68569195  1
  Nb  Nb11  1  0.83635075  0.34126224  0.69342098  1
  Nb  Nb12  1  0.33416603  0.33214246  0.19320070  1
  Nb  Nb13  1  0.83254058  0.32621325  0.18962238  1
  Nb  Nb14  1  0.16316326  0.66491524  0.01981168  1
  Nb  Nb15  1  0.66655315  0.66894046  0.02654471  1
  Nb  Nb16  1  0.16516012  0.66239027  0.52400752  1
  Nb  Nb17  1  0.66434642  0.66213005  0.51630194  1
  Nb  Nb18  1  0.16420415  0.66486556  0.30330505  1
  Nb  Nb19  1  0.66292277  0.64634720  0.30965196  1
  Nb  Nb20  1  0.16107095  0.67118796  0.81379658  1
  Nb  Nb21  1  0.66419853  0.66568062  0.80436018  1
  Zn  Zn22  1  0.99835680  0.99499722  0.34044697  1
  Zn  Zn23  1  0.50389616  0.99495773  0.84846770  1
  Zn  Zn24  1  0.99321679  0.98193768  0.65327532  1
  Zn  Zn25  1  0.49407540  0.00378009  0.15439316  1
  Zn  Zn26  1  0.32821148  0.32113071  0.98047410  1
  Zn  Zn27  1  0.84093830  0.32731186  0.98069207  1
  Zn  Zn28  1  0.34109380  0.35581719  0.47919619  1
  Zn  Zn29  1  0.83001525  0.33798137  0.47916661  1
  Si  Si30  1  0.13881981  0.00192787  0.25150074  1
  Si  Si31  1  0.36109794  0.71998873  0.24851546  1
  Si  Si32  1  0.85573431  0.71109265  0.25360515  1
  Si  Si33  1  0.99672847  0.27811902  0.25357228  1
  Si  Si34  1  0.50083786  0.27769943  0.24739656  1
  Si  Si35  1  0.63966944  0.27917552  0.75211897  1
  Si  Si36  1  0.00362687  0.72623376  0.74776597  1
  Si  Si37  1  0.49514244  0.71139896  0.75349178  1
  Si  Si38  1  0.86117520  0.00250031  0.74865899  1
  Si  Si39  1  0.33444069  0.62619741  0.58029149  1
  Si  Si40  1  0.83660810  0.05132529  0.08107921  1
  Si  Si41  1  0.01726849  0.37593347  0.91730414  1
  Si  Si42  1  0.17174977  0.96779532  0.91737269  1
  Si  Si43  1  0.67119605  0.37374075  0.41582965  1
  Si  Si44  1  0.51879303  0.65890857  0.41445298  1
  S  S45  1  0.64307463  0.99800870  0.24998085  1
  S  S46  1  0.14429620  0.28879634  0.74991700  1
  S  S47  1  0.35562349  0.00048026  0.75013477  1
  S  S48  1  0.47715340  0.33175273  0.58277140  1
  S  S49  1  0.97484737  0.32693164  0.58072007  1
  S  S50  1  0.18784148  0.04785236  0.58009165  1
  S  S51  1  0.69173604  0.04560576  0.58322119  1
  S  S52  1  0.83457456  0.62441740  0.58119376  1
  S  S53  1  0.47449351  0.62293355  0.08058482  1
  S  S54  1  0.97686553  0.62237338  0.08223541  1
  S  S55  1  0.33501356  0.04496027  0.08085527  1
  S  S56  1  0.19019158  0.33411594  0.08263787  1
  S  S57  1  0.68768757  0.32623814  0.07990942  1
  S  S58  1  0.31293473  0.67073162  0.91684909  1
  S  S59  1  0.80569661  0.65981775  0.91701949  1
  S  S60  1  0.52337234  0.37840323  0.91711496  1
  S  S61  1  0.66484709  0.95094341  0.91749895  1
  S  S62  1  0.30638333  0.95215337  0.41695775  1
  S  S63  1  0.81388353  0.95910703  0.41675014  1
  S  S64  1  0.16450824  0.37648426  0.41688875  1
  S  S65  1  0.02361430  0.66846321  0.41737875  1
  O  O66  1  0.11285824  0.05318008  0.31099104  1
  O  O67  1  0.60440397  0.03357751  0.30236572  1
  O  O68  1  0.41948072  0.80323349  0.30747166  1
  O  O69  1  0.91244262  0.76887377  0.31033926  1
  O  O70  1  0.48344163  0.15978457  0.30657415  1
  O  O71  1  0.97286611  0.17226813  0.31215852  1
  O  O72  1  0.10637811  0.17855719  0.80238401  1
  O  O73  1  0.60763627  0.17071825  0.81023584  1
  O  O74  1  0.46893600  0.77421226  0.80999612  1
  O  O75  1  0.98472466  0.80736254  0.80676635  1
  O  O76  1  0.40722524  0.03994725  0.80251572  1
  O  O77  1  0.91963194  0.03508012  0.80760433  1
  O  O78  1  0.39796830  0.97641286  0.69724565  1
  O  O79  1  0.89262482  0.96641588  0.68900708  1
  O  O80  1  0.09668536  0.22316932  0.69658957  1
  O  O81  1  0.58140634  0.19455203  0.69312112  1
  O  O82  1  0.02637417  0.83077683  0.68911440  1
  O  O83  1  0.51209687  0.83195023  0.69425968  1
  O  O84  1  0.39221883  0.81791941  0.18878311  1
  O  O85  1  0.90281439  0.83231824  0.19452772  1
  O  O86  1  0.01481610  0.19804835  0.19379737  1
  O  O87  1  0.52477573  0.22028907  0.18879369  1
  O  O88  1  0.08295596  0.96917537  0.19203527  1
  O  O89  1  0.59557684  0.97033110  0.19651866  1
  O  O90  1  0.43348008  0.35771021  0.63593569  1
  O  O91  1  0.93718779  0.36127572  0.63440766  1
  O  O92  1  0.24311322  0.12409937  0.63435518  1
  O  O93  1  0.74404767  0.12877203  0.63599654  1
  O  O94  1  0.31763681  0.49778923  0.63946795  1
  O  O95  1  0.82178433  0.51458064  0.63491408  1
  O  O96  1  0.43804372  0.51390561  0.13403143  1
  O  O97  1  0.93611678  0.51118711  0.13518606  1
  O  O98  1  0.32055740  0.12559568  0.13420305  1
  O  O99  1  0.81746765  0.13877910  0.13928031  1
  O  O100  1  0.24585812  0.36306930  0.13499165  1
  O  O101  1  0.74144355  0.36401826  0.13341615  1
  O  O102  1  0.22820990  0.30797713  0.03017683  1
  O  O103  1  0.73069468  0.31266812  0.02750428  1
  O  O104  1  0.42328995  0.54046054  0.02873691  1
  O  O105  1  0.92633739  0.55124882  0.03027171  1
  O  O106  1  0.34632131  0.15129241  0.02918244  1
  O  O107  1  0.85053589  0.15831472  0.02415308  1
  O  O108  1  0.23187307  0.15102095  0.52868690  1
  O  O109  1  0.72635872  0.14872228  0.53082899  1
  O  O110  1  0.35293502  0.54188243  0.52679055  1
  O  O111  1  0.84607422  0.53944212  0.52995257  1
  O  O112  1  0.42554785  0.29843451  0.53118348  1
  O  O113  1  0.92274035  0.30592685  0.52926632  1
  O  O114  1  0.26529898  0.68753338  0.97060821  1
  O  O115  1  0.76524931  0.68882268  0.97000203  1
  O  O116  1  0.08235817  0.47430380  0.97426888  1
  O  O117  1  0.57909492  0.46960509  0.96951560  1
  O  O118  1  0.15553181  0.83353967  0.97331951  1
  O  O119  1  0.65825948  0.83942866  0.97051774  1
  O  O120  1  0.26477519  0.84152635  0.47024053  1
  O  O121  1  0.76364681  0.84222788  0.47183999  1
  O  O122  1  0.15898141  0.47876798  0.47090641  1
  O  O123  1  0.65482370  0.47475420  0.47318224  1
  O  O124  1  0.08008556  0.68343622  0.47020631  1
  O  O125  1  0.58221471  0.68996661  0.47396496  1
  O  O126  1  0.06893741  0.64987302  0.36484112  1
  O  O127  1  0.57750367  0.65331174  0.36066146  1
  O  O128  1  0.25405117  0.86507727  0.36485828  1
  O  O129  1  0.75939013  0.87442661  0.36553334  1
  O  O130  1  0.17497104  0.48810695  0.36546822  1
  O  O131  1  0.68180377  0.50052855  0.36030753  1
  O  O132  1  0.07543100  0.50057340  0.86134919  1
  O  O133  1  0.56898768  0.48781007  0.86409380  1
  O  O134  1  0.18166363  0.86038774  0.86070279  1
  O  O135  1  0.67407962  0.86032706  0.86515364  1
  O  O136  1  0.25884435  0.64760255  0.86427161  1
  O  O137  1  0.75418355  0.64353836  0.86455770  1
  O  O138  1  0.01862594  0.82672590  0.41716250  1
  O  O139  1  0.51565823  0.83962353  0.40609224  1
  O  O140  1  0.39337358  0.96283324  0.41222411  1
  O  O141  1  0.89694752  0.96431771  0.41762018  1
  O  O142  1  0.08409666  0.21103365  0.41811929  1
  O  O143  1  0.58046204  0.19102729  0.40556590  1
  O  O144  1  0.01651608  0.19291289  0.90553063  1
  O  O145  1  0.51540955  0.20603927  0.91350360  1
  O  O146  1  0.08119736  0.96899527  0.90489154  1
  O  O147  1  0.58378335  0.95693864  0.91750565  1
  O  O148  1  0.39682980  0.83314637  0.91463845  1
  O  O149  1  0.89332494  0.82356921  0.91178857  1
  O  O150  1  0.48892721  0.18055017  0.59547023  1
  O  O151  1  0.99336236  0.18528971  0.58805368  1
  O  O152  1  0.10131179  0.02520709  0.58845182  1
  O  O153  1  0.60112077  0.02288319  0.59267356  1
  O  O154  1  0.41333173  0.81932688  0.59873357  1
  O  O155  1  0.91054495  0.79944406  0.58648431  1
  O  O156  1  0.49323065  0.80187694  0.08757385  1
  O  O157  1  0.99204060  0.79982726  0.09230360  1
  O  O158  1  0.41017257  0.01934163  0.08591880  1
  O  O159  1  0.91657158  0.01547812  0.09449401  1
  O  O160  1  0.10220686  0.18238982  0.09211008  1
  O  O161  1  0.59994453  0.17768549  0.08698336  1
  O  O162  1  0.34097288  0.15169941  0.73784765  1
  O  O163  1  0.84416486  0.17146466  0.73978882  1
  O  O164  1  0.23489169  0.30235632  0.74328120  1
  O  O165  1  0.73863759  0.31420149  0.73484543  1
  O  O166  1  0.41519048  0.51030781  0.73630126  1
  O  O167  1  0.91731297  0.52457962  0.74054912  1
  O  O168  1  0.34403925  0.51707001  0.24047032  1
  O  O169  1  0.83770393  0.51509491  0.23362585  1
  O  O170  1  0.41462198  0.30659553  0.23960262  1
  O  O171  1  0.91595696  0.31734636  0.23762899  1
  O  O172  1  0.23904391  0.16296390  0.23459963  1
  O  O173  1  0.73312419  0.16360050  0.24447559  1
  O  O174  1  0.31989677  0.51387470  0.92311061  1
  O  O175  1  0.81681692  0.50934516  0.92281085  1
  O  O176  1  0.43896512  0.37116771  0.92172445  1
  O  O177  1  0.92606864  0.36815844  0.91698829  1
  O  O178  1  0.25637371  0.15412342  0.92001518  1
  O  O179  1  0.74267078  0.12283440  0.92077496  1
  O  O180  1  0.31638303  0.12353955  0.42375812  1
  O  O181  1  0.81927972  0.12814098  0.42539175  1
  O  O182  1  0.24305836  0.36248254  0.42192697  1
  O  O183  1  0.75559364  0.35638786  0.42073541  1
  O  O184  1  0.42648066  0.48576501  0.41706514  1
  O  O185  1  0.93971148  0.50693519  0.42304065  1
  O  O186  1  0.18169213  0.49476318  0.07578263  1
  O  O187  1  0.67840478  0.49122416  0.07146088  1
  O  O188  1  0.06604444  0.63667658  0.07623181  1
  O  O189  1  0.56461365  0.63439713  0.07228753  1
  O  O190  1  0.25314761  0.86729573  0.07378808  1
  O  O191  1  0.74798925  0.85067025  0.07127968  1
  O  O192  1  0.17947004  0.86768551  0.57306719  1
  O  O193  1  0.67931112  0.86740197  0.57784957  1
  O  O194  1  0.24672722  0.64543943  0.57184653  1
  O  O195  1  0.75311125  0.63771311  0.57513713  1
  O  O196  1  0.06421396  0.49516980  0.57278266  1
  O  O197  1  0.56514062  0.49213293  0.57801128  1
  O  O198  1  0.15612757  0.83530383  0.26060922  1
  O  O199  1  0.65965047  0.85336604  0.26094123  1
  O  O200  1  0.26281429  0.68551527  0.26662579  1
  O  O201  1  0.76098366  0.69938113  0.25938570  1
  O  O202  1  0.08194582  0.47631009  0.26012872  1
  O  O203  1  0.57942470  0.47762002  0.26147202  1
  O  O204  1  0.16333081  0.46981626  0.76101856  1
  O  O205  1  0.65637818  0.47889453  0.76081631  1
  O  O206  1  0.08335881  0.68440871  0.76247324  1
  O  O207  1  0.58117195  0.68850213  0.76011838  1
  O  O208  1  0.26880365  0.84066866  0.75623422  1
  O  O209  1  0.76273345  0.84061150  0.76695335  1
