# generated using pymatgen
data_Na6Y4Sc4Si3(S3O16)3
_symmetry_space_group_name_H-M   'P 1'
_cell_length_a   18.21461737
_cell_length_b   9.06076890
_cell_length_c   23.80365296
_cell_angle_alpha   90.13759816
_cell_angle_beta   89.96871733
_cell_angle_gamma   119.80481092
_symmetry_Int_Tables_number   1
_chemical_formula_structural   Na6Y4Sc4Si3(S3O16)3
_chemical_formula_sum   'Na18 Y12 Sc12 Si9 S27 O144'
_cell_volume   3408.85723070
_cell_formula_units_Z   3
loop_
 _symmetry_equiv_pos_site_id
 _symmetry_equiv_pos_as_xyz
  1  'x, y, z'
loop_
 _atom_site_type_symbol
 _atom_site_label
 _atom_site_symmetry_multiplicity
 _atom_site_fract_x
 _atom_site_fract_y
 _atom_site_fract_z
 _atom_site_occupancy
  Na  Na0  1  0.00527016  0.64673290  0.25318195  1
  Na  Na1  1  0.50346501  0.36367856  0.74340099  1
  Na  Na2  1  0.16107654  0.30537164  0.91280729  1
  Na  Na3  1  0.66114229  0.30370616  0.91226078  1
  Na  Na4  1  0.16336735  0.02270129  0.41680909  1
  Na  Na5  1  0.65965768  0.01076624  0.41744588  1
  Na  Na6  1  0.99473855  0.98819082  0.49785156  1
  Na  Na7  1  0.49296768  0.00047343  0.50155648  1
  Na  Na8  1  0.99456389  0.00296144  0.99351579  1
  Na  Na9  1  0.49451808  0.00191551  0.99512890  1
  Na  Na10  1  0.33098916  0.33301156  0.82656112  1
  Na  Na11  1  0.83856997  0.33530063  0.83062126  1
  Na  Na12  1  0.34147528  0.34805897  0.33730995  1
  Na  Na13  1  0.83154019  0.33029338  0.33512251  1
  Na  Na14  1  0.17357618  0.68074702  0.17255104  1
  Na  Na15  1  0.66471466  0.68076714  0.17329682  1
  Na  Na16  1  0.16825013  0.65159079  0.67100513  1
  Na  Na17  1  0.66262570  0.65161324  0.66430847  1
  Y  Y18  1  0.00333704  0.01074769  0.64945329  1
  Y  Y19  1  0.50482540  0.01695795  0.64642866  1
  Y  Y20  1  0.00608900  0.00155591  0.14963607  1
  Y  Y21  1  0.50237549  0.99529001  0.14984495  1
  Y  Y22  1  0.82836827  0.33290792  0.68910837  1
  Y  Y23  1  0.32915597  0.32551654  0.19014803  1
  Y  Y24  1  0.16094197  0.65705346  0.01556076  1
  Y  Y25  1  0.66385458  0.65823197  0.01585973  1
  Y  Y26  1  0.16537415  0.67013377  0.51640620  1
  Y  Y27  1  0.65205895  0.65160221  0.51955832  1
  Y  Y28  1  0.66020028  0.66907989  0.31683757  1
  Y  Y29  1  0.15986140  0.65003974  0.81477992  1
  Sc  Sc30  1  0.00321951  0.99530491  0.35124496  1
  Sc  Sc31  1  0.50601024  0.99292387  0.34897858  1
  Sc  Sc32  1  0.00654279  0.02130790  0.84644333  1
  Sc  Sc33  1  0.50269687  0.01161370  0.84828620  1
  Sc  Sc34  1  0.33034888  0.33503743  0.68308104  1
  Sc  Sc35  1  0.82280453  0.31488991  0.18794838  1
  Sc  Sc36  1  0.34369332  0.33454186  0.97837252  1
  Sc  Sc37  1  0.84008508  0.33334802  0.97993298  1
  Sc  Sc38  1  0.34685990  0.34627735  0.48352453  1
  Sc  Sc39  1  0.84277490  0.35104598  0.47947584  1
  Sc  Sc40  1  0.16233547  0.67065378  0.31849831  1
  Sc  Sc41  1  0.66054363  0.65315290  0.81624880  1
  Si  Si42  1  0.14768517  0.99447878  0.25431353  1
  Si  Si43  1  0.64979446  0.00145958  0.25062439  1
  Si  Si44  1  0.15427272  0.29770557  0.75014082  1
  Si  Si45  1  0.64849909  0.29957713  0.75504879  1
  Si  Si46  1  0.47654477  0.33128600  0.58733544  1
  Si  Si47  1  0.01395476  0.35830657  0.91705832  1
  Si  Si48  1  0.51748815  0.36509774  0.91426560  1
  Si  Si49  1  0.01706376  0.66692174  0.41438197  1
  Si  Si50  1  0.51241800  0.66756522  0.41619286  1
  S  S51  1  0.35076810  0.70962180  0.25256494  1
  S  S52  1  0.85475647  0.70427260  0.24933771  1
  S  S53  1  0.99997280  0.29712304  0.25099775  1
  S  S54  1  0.50053174  0.28997087  0.25117937  1
  S  S55  1  0.99985537  0.71127423  0.75148949  1
  S  S56  1  0.50013627  0.70596552  0.75226912  1
  S  S57  1  0.35391872  0.00321036  0.75098144  1
  S  S58  1  0.85094974  0.99277817  0.75287000  1
  S  S59  1  0.97742849  0.33226606  0.58123789  1
  S  S60  1  0.18943608  0.04614571  0.58149344  1
  S  S61  1  0.69119705  0.04566444  0.57983344  1
  S  S62  1  0.33203225  0.61861745  0.58323011  1
  S  S63  1  0.83474919  0.62620994  0.58075336  1
  S  S64  1  0.47736899  0.62281290  0.08138612  1
  S  S65  1  0.97494726  0.61801458  0.08454086  1
  S  S66  1  0.33342572  0.04255688  0.08098495  1
  S  S67  1  0.83331074  0.04778216  0.08347111  1
  S  S68  1  0.18922486  0.33503348  0.08033622  1
  S  S69  1  0.69111728  0.33437548  0.08232050  1
  S  S70  1  0.31765612  0.66647643  0.91814521  1
  S  S71  1  0.81496601  0.66666892  0.91588504  1
  S  S72  1  0.16709907  0.97052973  0.91740813  1
  S  S73  1  0.66642371  0.96401281  0.91597507  1
  S  S74  1  0.31462390  0.96222238  0.41457386  1
  S  S75  1  0.81789084  0.96823187  0.41812912  1
  S  S76  1  0.16561561  0.36924127  0.41451393  1
  S  S77  1  0.66779257  0.36363729  0.41646096  1
  O  O78  1  0.09856449  0.01538507  0.30878974  1
  O  O79  1  0.60668200  0.02635557  0.30778973  1
  O  O80  1  0.40520385  0.79818008  0.30107575  1
  O  O81  1  0.90791853  0.78788038  0.29912505  1
  O  O82  1  0.49036625  0.18606782  0.30081253  1
  O  O83  1  0.98555141  0.18925037  0.30030362  1
  O  O84  1  0.10779631  0.18850393  0.80853805  1
  O  O85  1  0.60196989  0.18485314  0.81110471  1
  O  O86  1  0.48889183  0.78993099  0.80207165  1
  O  O87  1  0.98995515  0.79550541  0.80153803  1
  O  O88  1  0.40751976  0.02315096  0.80095154  1
  O  O89  1  0.90573016  0.01428548  0.80160989  1
  O  O90  1  0.39096192  0.97346981  0.69992759  1
  O  O91  1  0.88703713  0.96605192  0.70045793  1
  O  O92  1  0.09242059  0.20322628  0.69683022  1
  O  O93  1  0.58775465  0.21657150  0.70051202  1
  O  O94  1  0.00516465  0.80421789  0.69933097  1
  O  O95  1  0.51043773  0.80340954  0.70059363  1
  O  O96  1  0.38680232  0.80763731  0.19981946  1
  O  O97  1  0.89232024  0.80839055  0.19825308  1
  O  O98  1  0.01020304  0.21766352  0.19924131  1
  O  O99  1  0.50597222  0.20737461  0.19866362  1
  O  O100  1  0.08723275  0.95666446  0.19877225  1
  O  O101  1  0.59268287  0.97935157  0.19546619  1
  O  O102  1  0.42932705  0.34448981  0.64470430  1
  O  O103  1  0.93865517  0.35032757  0.63337391  1
  O  O104  1  0.23942104  0.13413937  0.63167278  1
  O  O105  1  0.73993422  0.13171146  0.63122495  1
  O  O106  1  0.32132453  0.51727081  0.63446800  1
  O  O107  1  0.82617412  0.52837443  0.63274178  1
  O  O108  1  0.43836202  0.52710956  0.13323016  1
  O  O109  1  0.93556992  0.52322543  0.13637894  1
  O  O110  1  0.32494630  0.12327304  0.13287938  1
  O  O111  1  0.82573798  0.13291971  0.13448580  1
  O  O112  1  0.23815374  0.34871357  0.13161948  1
  O  O113  1  0.74177280  0.34722531  0.13232454  1
  O  O114  1  0.23036484  0.31946830  0.02934077  1
  O  O115  1  0.73118571  0.31845769  0.03025994  1
  O  O116  1  0.42667471  0.53316686  0.03146672  1
  O  O117  1  0.92472054  0.52999179  0.03417457  1
  O  O118  1  0.34047199  0.14624416  0.03126490  1
  O  O119  1  0.84079811  0.14835750  0.03277064  1
  O  O120  1  0.22745844  0.13971457  0.52893647  1
  O  O121  1  0.73296585  0.14649704  0.52905456  1
  O  O122  1  0.33782877  0.53300422  0.53220119  1
  O  O123  1  0.84223861  0.53519281  0.53120405  1
  O  O124  1  0.42200187  0.32107432  0.53110253  1
  O  O125  1  0.92673410  0.32019835  0.53152273  1
  O  O126  1  0.27921112  0.69782678  0.96857620  1
  O  O127  1  0.77901880  0.69820167  0.96766710  1
  O  O128  1  0.07690232  0.44141191  0.97133898  1
  O  O129  1  0.57994536  0.44913638  0.96868654  1
  O  O130  1  0.15679873  0.86716534  0.96813547  1
  O  O131  1  0.65664712  0.86438509  0.96740012  1
  O  O132  1  0.27882184  0.85926692  0.46616315  1
  O  O133  1  0.78019669  0.86137679  0.46808291  1
  O  O134  1  0.15499524  0.44852609  0.46610175  1
  O  O135  1  0.65785754  0.44679253  0.46684572  1
  O  O136  1  0.08091678  0.70963674  0.46770928  1
  O  O137  1  0.57847126  0.71832557  0.46878756  1
  O  O138  1  0.06096393  0.63897437  0.35783740  1
  O  O139  1  0.55562271  0.63508953  0.36127376  1
  O  O140  1  0.25796170  0.87319292  0.36613923  1
  O  O141  1  0.76387326  0.89054991  0.36757456  1
  O  O142  1  0.17775916  0.47651193  0.36522667  1
  O  O143  1  0.68439691  0.46933550  0.36601181  1
  O  O144  1  0.05599671  0.47884839  0.86325235  1
  O  O145  1  0.56279162  0.48487739  0.85942913  1
  O  O146  1  0.18358105  0.89701241  0.86743043  1
  O  O147  1  0.68115096  0.88568078  0.86655960  1
  O  O148  1  0.26307404  0.63581525  0.86848868  1
  O  O149  1  0.75872836  0.63837147  0.86760404  1
  O  O150  1  0.00924044  0.84078781  0.40756383  1
  O  O151  1  0.50736222  0.84420851  0.40789210  1
  O  O152  1  0.40029922  0.99088395  0.40562848  1
  O  O153  1  0.90404407  0.99662668  0.40871288  1
  O  O154  1  0.08699037  0.19803831  0.40870459  1
  O  O155  1  0.59035540  0.19392821  0.41021817  1
  O  O156  1  0.00827141  0.17159278  0.90956392  1
  O  O157  1  0.50895257  0.17556611  0.90808551  1
  O  O158  1  0.08960882  0.98575312  0.91168531  1
  O  O159  1  0.58943858  0.98089740  0.91027194  1
  O  O160  1  0.40343124  0.81099666  0.91030574  1
  O  O161  1  0.90098640  0.80932512  0.90775301  1
  O  O162  1  0.48435633  0.15884008  0.58444988  1
  O  O163  1  0.98382043  0.17419540  0.58277065  1
  O  O164  1  0.10229204  0.02229487  0.58580820  1
  O  O165  1  0.60501756  0.02366697  0.58375352  1
  O  O166  1  0.40935787  0.78719951  0.58776680  1
  O  O167  1  0.91300719  0.79580444  0.58380979  1
  O  O168  1  0.48384435  0.79375294  0.08296594  1
  O  O169  1  0.98252467  0.79021560  0.08580488  1
  O  O170  1  0.41072080  0.02596450  0.08373604  1
  O  O171  1  0.91032440  0.03032851  0.08724420  1
  O  O172  1  0.10270488  0.18181926  0.08444410  1
  O  O173  1  0.60460939  0.18322453  0.08613644  1
  O  O174  1  0.35228547  0.16605910  0.74653907  1
  O  O175  1  0.84608791  0.15187082  0.74795834  1
  O  O176  1  0.24635531  0.30881229  0.74414727  1
  O  O177  1  0.74204301  0.31815879  0.75125215  1
  O  O178  1  0.42573323  0.52983146  0.74787573  1
  O  O179  1  0.92526024  0.53657302  0.74812579  1
  O  O180  1  0.34565072  0.54076315  0.24733210  1
  O  O181  1  0.85434158  0.53837509  0.24244905  1
  O  O182  1  0.42590720  0.31521828  0.24732197  1
  O  O183  1  0.92625777  0.32699986  0.24372778  1
  O  O184  1  0.24019615  0.16281678  0.24940570  1
  O  O185  1  0.74375869  0.17806400  0.24359104  1
  O  O186  1  0.31966367  0.50380151  0.92642172  1
  O  O187  1  0.81601730  0.50197537  0.92383043  1
  O  O188  1  0.42401571  0.34766985  0.92404730  1
  O  O189  1  0.92022884  0.33887232  0.92767032  1
  O  O190  1  0.24013615  0.14810993  0.92597798  1
  O  O191  1  0.74003616  0.14182768  0.92356126  1
  O  O192  1  0.31425229  0.12667362  0.42086495  1
  O  O193  1  0.82067088  0.13667169  0.42540991  1
  O  O194  1  0.23792230  0.33793814  0.42048033  1
  O  O195  1  0.74085337  0.33154593  0.42423559  1
  O  O196  1  0.41896925  0.50144842  0.42412411  1
  O  O197  1  0.92345792  0.49828484  0.42345409  1
  O  O198  1  0.18096577  0.49114619  0.07891774  1
  O  O199  1  0.68431771  0.49199079  0.08066815  1
  O  O200  1  0.06167491  0.64016073  0.08001913  1
  O  O201  1  0.56416708  0.64561542  0.07705732  1
  O  O202  1  0.25680973  0.87074154  0.07667423  1
  O  O203  1  0.75661148  0.87659900  0.07929945  1
  O  O204  1  0.18234079  0.87421604  0.57997575  1
  O  O205  1  0.68626934  0.87738242  0.57792253  1
  O  O206  1  0.25573918  0.63979532  0.57920604  1
  O  O207  1  0.75941849  0.64644243  0.57583894  1
  O  O208  1  0.06406782  0.48298579  0.57682622  1
  O  O209  1  0.57122205  0.50143578  0.58555201  1
  O  O210  1  0.15358497  0.81880616  0.25953655  1
  O  O211  1  0.66509041  0.83917477  0.25259537  1
  O  O212  1  0.26495483  0.68516625  0.25977155  1
  O  O213  1  0.76822186  0.67347323  0.25592730  1
  O  O214  1  0.07698734  0.46750275  0.25687671  1
  O  O215  1  0.57897919  0.45812198  0.25394963  1
  O  O216  1  0.16457044  0.48743312  0.75315503  1
  O  O217  1  0.65462974  0.48753150  0.76100272  1
  O  O218  1  0.07812575  0.69973546  0.75455619  1
  O  O219  1  0.57752402  0.68784647  0.75859998  1
  O  O220  1  0.26768528  0.85902598  0.75828002  1
  O  O221  1  0.76562072  0.84601809  0.76115222  1
