# generated using pymatgen
data_MgFe4(CoO4)2
_symmetry_space_group_name_H-M   'P 1'
_cell_length_a   5.98027216
_cell_length_b   5.98027216
_cell_length_c   6.32513145
_cell_angle_alpha   61.78776405
_cell_angle_beta   61.78776405
_cell_angle_gamma   60.00000000
_symmetry_Int_Tables_number   1
_chemical_formula_structural   MgFe4(CoO4)2
_chemical_formula_sum   'Mg1 Fe4 Co2 O8'
_cell_volume   164.14135447
_cell_formula_units_Z   1
loop_
 _symmetry_equiv_pos_site_id
 _symmetry_equiv_pos_as_xyz
  1  'x, y, z'
loop_
 _atom_site_type_symbol
 _atom_site_label
 _atom_site_symmetry_multiplicity
 _atom_site_fract_x
 _atom_site_fract_y
 _atom_site_fract_z
 _atom_site_occupancy
  Mg  Mg0  1  0.87500000  0.87500000  0.37500000  1
  Fe  Fe1  1  0.87500000  0.37500000  0.37500000  1
  Fe  Fe2  1  0.37500000  0.87500000  0.37500000  1
  Fe  Fe3  1  0.37500000  0.37500000  0.87500000  1
  Fe  Fe4  1  0.37500000  0.37500000  0.37500000  1
  Co  Co5  1  0.72256600  0.72256600  0.83230300  1
  Co  Co6  1  0.02743400  0.02743400  0.91769700  1
  O  O7  1  0.62158900  0.11837900  0.14165200  1
  O  O8  1  0.11837900  0.62158900  0.14165200  1
  O  O9  1  0.14484300  0.14484300  0.56547000  1
  O  O10  1  0.11837900  0.11837900  0.14165200  1
  O  O11  1  0.12841100  0.63162100  0.60834800  1
  O  O12  1  0.63162100  0.12841100  0.60834800  1
  O  O13  1  0.60515700  0.60515700  0.18453000  1
  O  O14  1  0.63162100  0.63162100  0.60834800  1
