# generated using pymatgen
data_Na7Ca3NbSi3(SO8)3
_symmetry_space_group_name_H-M   'P 1'
_cell_length_a   9.42850896
_cell_length_b   9.45598289
_cell_length_c   23.06152940
_cell_angle_alpha   89.45694931
_cell_angle_beta   90.41202308
_cell_angle_gamma   119.88806975
_symmetry_Int_Tables_number   1
_chemical_formula_structural   Na7Ca3NbSi3(SO8)3
_chemical_formula_sum   'Na21 Ca9 Nb3 Si9 S9 O72'
_cell_volume   1782.52609064
_cell_formula_units_Z   3
loop_
 _symmetry_equiv_pos_site_id
 _symmetry_equiv_pos_as_xyz
  1  'x, y, z'
loop_
 _atom_site_type_symbol
 _atom_site_label
 _atom_site_symmetry_multiplicity
 _atom_site_fract_x
 _atom_site_fract_y
 _atom_site_fract_z
 _atom_site_occupancy
  Na  Na0  1  0.63563402  0.99730315  0.23608902  1
  Na  Na1  1  0.37675372  0.34297830  0.25849782  1
  Na  Na2  1  0.98578700  0.66469003  0.25255856  1
  Na  Na3  1  0.67885408  0.64774256  0.75542457  1
  Na  Na4  1  0.98132852  0.33321869  0.75669973  1
  Na  Na5  1  0.35072207  0.01448054  0.75599312  1
  Na  Na6  1  0.29140913  0.32897857  0.58843879  1
  Na  Na7  1  0.04047839  0.70994727  0.58838724  1
  Na  Na8  1  0.67353882  0.96781979  0.59700699  1
  Na  Na9  1  0.31347764  0.96913636  0.09420172  1
  Na  Na10  1  0.66477096  0.72482445  0.07714271  1
  Na  Na11  1  0.02459584  0.31810965  0.07718102  1
  Na  Na12  1  0.98806463  0.31559876  0.41919309  1
  Na  Na13  1  0.31140983  0.03807553  0.40628919  1
  Na  Na14  1  0.71365675  0.65912904  0.40156141  1
  Na  Na15  1  0.01981927  0.99832378  0.49092890  1
  Na  Na16  1  0.95714359  0.98093864  0.98936775  1
  Na  Na17  1  0.66615137  0.33497067  0.81877421  1
  Na  Na18  1  0.65420148  0.34340007  0.33129248  1
  Na  Na19  1  0.36920401  0.70412759  0.16734576  1
  Na  Na20  1  0.32578983  0.66837262  0.67275201  1
  Ca  Ca21  1  0.00131155  0.99604421  0.34634252  1
  Ca  Ca22  1  0.99338112  0.99119589  0.84779344  1
  Ca  Ca23  1  0.00311058  0.99516986  0.67046808  1
  Ca  Ca24  1  0.98763445  0.98566274  0.15325546  1
  Ca  Ca25  1  0.66744504  0.33567875  0.68478789  1
  Ca  Ca26  1  0.66062269  0.32863189  0.18385559  1
  Ca  Ca27  1  0.66633448  0.34191298  0.47763434  1
  Ca  Ca28  1  0.34374161  0.67429009  0.01137317  1
  Ca  Ca29  1  0.32776611  0.66011495  0.51396156  1
  Nb  Nb30  1  0.66660019  0.32654740  0.97494901  1
  Nb  Nb31  1  0.32915913  0.66326100  0.31860817  1
  Nb  Nb32  1  0.35008773  0.66186262  0.81454214  1
  Si  Si33  1  0.30669369  0.99391610  0.25091717  1
  Si  Si34  1  0.68364091  0.69301069  0.25167527  1
  Si  Si35  1  0.30623278  0.30566395  0.74827241  1
  Si  Si36  1  0.01089589  0.69249605  0.74965880  1
  Si  Si37  1  0.69374266  0.99979468  0.74816641  1
  Si  Si38  1  0.66745566  0.03800221  0.08323657  1
  Si  Si39  1  0.63479185  0.66315551  0.92404736  1
  Si  Si40  1  0.32911332  0.36437514  0.42009423  1
  Si  Si41  1  0.03277583  0.66614452  0.41923127  1
  S  S42  1  0.01124124  0.31532027  0.25102520  1
  S  S43  1  0.96694859  0.32727203  0.58197494  1
  S  S44  1  0.36461593  0.03189452  0.58119686  1
  S  S45  1  0.67366285  0.64408485  0.58183855  1
  S  S46  1  0.95454336  0.62024976  0.07941232  1
  S  S47  1  0.37116482  0.32904156  0.07993604  1
  S  S48  1  0.02802331  0.36961751  0.92098177  1
  S  S49  1  0.34377309  0.97509289  0.91926757  1
  S  S50  1  0.62449290  0.95967298  0.41540224  1
  O  O51  1  0.22347979  0.02998206  0.30554438  1
  O  O52  1  0.79428246  0.77876942  0.30810845  1
  O  O53  1  0.98517751  0.21572820  0.30325124  1
  O  O54  1  0.21460651  0.17199029  0.79780227  1
  O  O55  1  0.95573441  0.78691496  0.79335635  1
  O  O56  1  0.83257569  0.05116663  0.79641583  1
  O  O57  1  0.73810612  0.93931857  0.68833053  1
  O  O58  1  0.20564514  0.25992718  0.68683966  1
  O  O59  1  0.07260241  0.79237370  0.68759203  1
  O  O60  1  0.74925869  0.80661373  0.19276650  1
  O  O61  1  0.03753934  0.24015993  0.19890976  1
  O  O62  1  0.19393193  0.94876612  0.19156042  1
  O  O63  1  0.87737103  0.33407471  0.63324782  1
  O  O64  1  0.45809918  0.12061814  0.63312380  1
  O  O65  1  0.66040188  0.54642896  0.63408947  1
  O  O66  1  0.88316822  0.53581287  0.13467291  1
  O  O67  1  0.65891909  0.12114276  0.14258184  1
  O  O68  1  0.46330421  0.35489658  0.13460355  1
  O  O69  1  0.47129603  0.32233631  0.03028995  1
  O  O70  1  0.84530136  0.52120529  0.02952302  1
  O  O71  1  0.67088773  0.16915668  0.02818202  1
  O  O72  1  0.45003790  0.12232454  0.52766483  1
  O  O73  1  0.68014140  0.55853277  0.52904842  1
  O  O74  1  0.87679344  0.32147978  0.52788355  1
  O  O75  1  0.55522281  0.66810085  0.98443553  1
  O  O76  1  0.10964276  0.44573427  0.97555496  1
  O  O77  1  0.33107607  0.88974469  0.97380894  1
  O  O78  1  0.55553815  0.86836626  0.46937576  1
  O  O79  1  0.32101955  0.44508364  0.48015067  1
  O  O80  1  0.13172453  0.68745124  0.47859828  1
  O  O81  1  0.15818836  0.66517465  0.36359093  1
  O  O82  1  0.51948427  0.86163681  0.36415304  1
  O  O83  1  0.33520811  0.49501648  0.36477817  1
  O  O84  1  0.11066004  0.47393176  0.86994771  1
  O  O85  1  0.36750337  0.89389527  0.86873994  1
  O  O86  1  0.50116603  0.64156044  0.86941089  1
  O  O87  1  0.00413364  0.82141922  0.41308487  1
  O  O88  1  0.79229452  0.98921175  0.40863306  1
  O  O89  1  0.16089305  0.19025748  0.41361160  1
  O  O90  1  0.00129192  0.20401791  0.91633207  1
  O  O91  1  0.20949885  0.00903491  0.91331775  1
  O  O92  1  0.81603586  0.81080596  0.91530811  1
  O  O93  1  0.98325672  0.17782626  0.58348689  1
  O  O94  1  0.19728944  0.01388661  0.58121685  1
  O  O95  1  0.82630006  0.80765372  0.58337751  1
  O  O96  1  0.96703203  0.78351728  0.07746073  1
  O  O97  1  0.83775330  0.03203640  0.07536835  1
  O  O98  1  0.21300784  0.17172179  0.08105088  1
  O  O99  1  0.63555884  0.13467301  0.74433564  1
  O  O100  1  0.49947818  0.36236323  0.74611107  1
  O  O101  1  0.86727504  0.50171555  0.74582632  1
  O  O102  1  0.66210235  0.51072770  0.24726729  1
  O  O103  1  0.87422493  0.34813477  0.24434730  1
  O  O104  1  0.49475754  0.14528695  0.24851191  1
  O  O105  1  0.64142904  0.48205821  0.92829210  1
  O  O106  1  0.85512732  0.35725766  0.92334959  1
  O  O107  1  0.50497173  0.14664772  0.92279022  1
  O  O108  1  0.62474434  0.11690130  0.41416016  1
  O  O109  1  0.49556402  0.35434579  0.40951555  1
  O  O110  1  0.86497566  0.48984639  0.41030199  1
  O  O111  1  0.33511949  0.46487992  0.07428768  1
  O  O112  1  0.11905705  0.63672638  0.07392790  1
  O  O113  1  0.49973038  0.85856228  0.08029246  1
  O  O114  1  0.35179115  0.86651293  0.58265019  1
  O  O115  1  0.52704154  0.66734478  0.58110220  1
  O  O116  1  0.13374900  0.47781364  0.58341280  1
  O  O117  1  0.32122834  0.82219065  0.26194922  1
  O  O118  1  0.49441905  0.66973320  0.26246853  1
  O  O119  1  0.16643591  0.48061765  0.25690336  1
  O  O120  1  0.30929982  0.48673893  0.76651287  1
  O  O121  1  0.18105695  0.68770779  0.77469768  1
  O  O122  1  0.51318633  0.82306305  0.76777045  1
