# generated using pymatgen
data_Mn(FeO2)2
_symmetry_space_group_name_H-M   'P 1'
_cell_length_a   6.05363147
_cell_length_b   6.07038277
_cell_length_c   6.08953505
_cell_angle_alpha   59.33925994
_cell_angle_beta   59.57319689
_cell_angle_gamma   60.31516040
_symmetry_Int_Tables_number   1
_chemical_formula_structural   Mn(FeO2)2
_chemical_formula_sum   'Mn2 Fe4 O8'
_cell_volume   157.28416976
_cell_formula_units_Z   2
loop_
 _symmetry_equiv_pos_site_id
 _symmetry_equiv_pos_as_xyz
  1  'x, y, z'
loop_
 _atom_site_type_symbol
 _atom_site_label
 _atom_site_symmetry_multiplicity
 _atom_site_fract_x
 _atom_site_fract_y
 _atom_site_fract_z
 _atom_site_occupancy
  Mn  Mn0  1  0.12320300  0.12786600  0.12574400  1
  Mn  Mn1  1  0.87679500  0.87213100  0.87425600  1
  Fe  Fe2  1  0.49999900  0.49999800  0.49999400  1
  Fe  Fe3  1  0.49999900  0.50000200  0.00000900  1
  Fe  Fe4  1  0.99999900  0.50001500  0.49999400  1
  Fe  Fe5  1  0.50000300  0.99999500  0.50000200  1
  O  O6  1  0.73004800  0.74208300  0.73497300  1
  O  O7  1  0.25937300  0.27697300  0.71267100  1
  O  O8  1  0.26333300  0.71381700  0.24469500  1
  O  O9  1  0.70813500  0.26701100  0.25970700  1
  O  O10  1  0.73667000  0.28618100  0.75530200  1
  O  O11  1  0.29186700  0.73298500  0.74029000  1
  O  O12  1  0.26994700  0.25791600  0.26503000  1
  O  O13  1  0.74062600  0.72302900  0.28732800  1
