# generated using pymatgen
data_Na5Zr4Si3(PO8)3
_symmetry_space_group_name_H-M   'P 1'
_cell_length_a   9.13886370
_cell_length_b   9.14487626
_cell_length_c   23.29216782
_cell_angle_alpha   90.01744383
_cell_angle_beta   89.97775006
_cell_angle_gamma   119.97176952
_symmetry_Int_Tables_number   1
_chemical_formula_structural   Na5Zr4Si3(PO8)3
_chemical_formula_sum   'Na15 Zr12 Si9 P9 O72'
_cell_volume   1686.29678647
_cell_formula_units_Z   3
loop_
 _symmetry_equiv_pos_site_id
 _symmetry_equiv_pos_as_xyz
  1  'x, y, z'
loop_
 _atom_site_type_symbol
 _atom_site_label
 _atom_site_symmetry_multiplicity
 _atom_site_fract_x
 _atom_site_fract_y
 _atom_site_fract_z
 _atom_site_occupancy
  Na  Na0  1  0.00068540  0.63025674  0.25005783  1
  Na  Na1  1  0.36857107  0.00021303  0.75051154  1
  Na  Na2  1  0.03147677  0.70128940  0.58135629  1
  Na  Na3  1  0.66176959  0.96441727  0.58459409  1
  Na  Na4  1  0.29789242  0.96890480  0.08139540  1
  Na  Na5  1  0.03464431  0.33828088  0.08513889  1
  Na  Na6  1  0.97168699  0.66866524  0.91840294  1
  Na  Na7  1  0.96495309  0.30199864  0.41447036  1
  Na  Na8  1  0.33535721  0.02815793  0.41745326  1
  Na  Na9  1  0.99814466  0.99290928  0.49989775  1
  Na  Na10  1  0.99839664  0.99873581  0.99933789  1
  Na  Na11  1  0.66541228  0.32616936  0.83355924  1
  Na  Na12  1  0.66555916  0.33166088  0.33271706  1
  Na  Na13  1  0.34363846  0.65983278  0.16759105  1
  Na  Na14  1  0.33895507  0.65454733  0.66698995  1
  Zr  Zr15  1  0.98872579  0.99459621  0.35145042  1
  Zr  Zr16  1  0.99922370  0.00841463  0.85247600  1
  Zr  Zr17  1  0.99941066  0.00137815  0.64884028  1
  Zr  Zr18  1  0.99914376  0.00066206  0.14836863  1
  Zr  Zr19  1  0.66648944  0.33466848  0.68593146  1
  Zr  Zr20  1  0.66628484  0.33301586  0.18537981  1
  Zr  Zr21  1  0.65498143  0.32787853  0.98094540  1
  Zr  Zr22  1  0.66559839  0.34099801  0.48165778  1
  Zr  Zr23  1  0.33421493  0.66602728  0.01795929  1
  Zr  Zr24  1  0.34044111  0.67146899  0.51835780  1
  Zr  Zr25  1  0.33376400  0.66543885  0.31455654  1
  Zr  Zr26  1  0.34151218  0.67110306  0.81425482  1
  Si  Si27  1  0.00017321  0.29580801  0.24987908  1
  Si  Si28  1  0.70616226  0.00141497  0.74928478  1
  Si  Si29  1  0.37180355  0.04167602  0.58328121  1
  Si  Si30  1  0.66491828  0.62642575  0.58485981  1
  Si  Si31  1  0.95740209  0.62634016  0.08216225  1
  Si  Si32  1  0.37401224  0.33556880  0.08457922  1
  Si  Si33  1  0.33398946  0.96155814  0.91602054  1
  Si  Si34  1  0.62778430  0.96094138  0.41683770  1
  Si  Si35  1  0.04029730  0.66731677  0.41657627  1
  P  P36  1  0.29284359  0.00104358  0.25085288  1
  P  P37  1  0.70631485  0.70699316  0.24910804  1
  P  P38  1  0.29043851  0.29211985  0.75020910  1
  P  P39  1  -0.00064218  0.70768032  0.75131685  1
  P  P40  1  0.95781104  0.33366835  0.58281040  1
  P  P41  1  0.66642476  0.04302377  0.08303847  1
  P  P42  1  0.62697625  0.66708583  0.91629261  1
  P  P43  1  0.04229033  0.37619914  0.91678010  1
  P  P44  1  0.33304922  0.37487684  0.41596958  1
  O  O45  1  0.20657154  0.02164179  0.30507538  1
  O  O46  1  0.82179112  0.79083612  0.30247442  1
  O  O47  1  0.97788367  0.18104613  0.30725263  1
  O  O48  1  0.20619121  0.17607737  0.80306525  1
  O  O49  1  0.97863064  0.79526846  0.80511871  1
  O  O50  1  0.82652090  0.02329667  0.80428854  1
  O  O51  1  0.79290285  0.97601311  0.69110357  1
  O  O52  1  0.18168335  0.20499478  0.69656596  1
  O  O53  1  0.03071645  0.82047273  0.69692008  1
  O  O54  1  0.79529552  0.81769803  0.19618499  1
  O  O55  1  0.02205091  0.20381449  0.19233056  1
  O  O56  1  0.17961543  0.97104709  0.19670390  1
  O  O57  1  0.87197523  0.36308316  0.63535418  1
  O  O58  1  0.49366154  0.12666732  0.63980295  1
  O  O59  1  0.64392443  0.50853263  0.64002629  1
  O  O60  1  0.87389575  0.50595296  0.13935443  1
  O  O61  1  0.63416277  0.12410128  0.13636356  1
  O  O62  1  0.49158192  0.35785554  0.13998764  1
  O  O63  1  0.45982090  0.29482851  0.02917500  1
  O  O64  1  0.84667481  0.53625100  0.02444324  1
  O  O65  1  0.69908251  0.15750547  0.03007426  1
  O  O66  1  0.46126937  0.15255336  0.52525397  1
  O  O67  1  0.70521788  0.54171388  0.52905198  1
  O  O68  1  0.84783406  0.30178532  0.52801332  1
  O  O69  1  0.54071908  0.69051657  0.96972220  1
  O  O70  1  0.14881481  0.45626306  0.97222697  1
  O  O71  1  0.30313882  0.84224137  0.97337021  1
  O  O72  1  0.54346116  0.84752302  0.47506640  1
  O  O73  1  0.30091177  0.45606227  0.46916613  1
  O  O74  1  0.15687836  0.69562710  0.47411841  1
  O  O75  1  0.12821179  0.63483677  0.35966003  1
  O  O76  1  0.50206695  0.86704520  0.36260716  1
  O  O77  1  0.35917345  0.48556183  0.36283764  1
  O  O78  1  0.13188135  0.49072829  0.86466244  1
  O  O79  1  0.35409117  0.86547172  0.85917572  1
  O  O80  1  0.51509560  0.64100366  0.86329472  1
  O  O81  1  0.03725686  0.84452665  0.40994298  1
  O  O82  1  0.82086010  0.99128145  0.41193878  1
  O  O83  1  0.17371977  0.19606207  0.40943434  1
  O  O84  1  0.02349564  0.19901697  0.91089649  1
  O  O85  1  0.15600397  0.96555134  0.90992697  1
  O  O86  1  0.80718875  0.82353364  0.91000765  1
  O  O87  1  0.96973332  0.17148401  0.58998463  1
  O  O88  1  0.17967048  0.01055205  0.58946901  1
  O  O89  1  0.83620893  0.81575936  0.59001257  1
  O  O90  1  0.98981366  0.81888338  0.08942934  1
  O  O91  1  0.82776864  0.02946719  0.08999568  1
  O  O92  1  0.18453353  0.16406688  0.08981100  1
  O  O93  1  0.67650138  0.16456798  0.74574444  1
  O  O94  1  0.46476912  0.30165259  0.74448687  1
  O  O95  1  0.84269491  0.53165362  0.74459275  1
  O  O96  1  0.69820313  0.53355630  0.24405759  1
  O  O97  1  0.83449297  0.32227559  0.24571816  1
  O  O98  1  0.46891108  0.15745533  0.24425317  1
  O  O99  1  0.65315910  0.51178922  0.92174171  1
  O  O100  1  0.86864851  0.36661474  0.92257541  1
  O  O101  1  0.50390893  0.14709101  0.92065011  1
  O  O102  1  0.64424479  0.14835639  0.42221093  1
  O  O103  1  0.48762468  0.34895980  0.42166964  1
  O  O104  1  0.85805106  0.49201066  0.42158366  1
  O  O105  1  0.34383400  0.49641185  0.07742637  1
  O  O106  1  0.14832616  0.64553070  0.07689789  1
  O  O107  1  0.50490418  0.86838331  0.07603973  1
  O  O108  1  0.35203237  0.85097845  0.57847572  1
  O  O109  1  0.50132179  0.65290110  0.57941864  1
  O  O110  1  0.13187658  0.49497937  0.57689933  1
  O  O111  1  0.30191803  0.83558650  0.25565644  1
  O  O112  1  0.53144791  0.68959845  0.25583680  1
  O  O113  1  0.16596742  0.48784487  0.25410598  1
  O  O114  1  0.30804058  0.46723313  0.75712767  1
  O  O115  1  0.16318196  0.69556817  0.75692559  1
  O  O116  1  0.51397121  0.83420051  0.75498548  1
