# generated using pymatgen
data_Na2Ca2SiSn2S5O24
_symmetry_space_group_name_H-M   'P 1'
_cell_length_a   9.03142467
_cell_length_b   9.03869530
_cell_length_c   23.45979822
_cell_angle_alpha   89.97002504
_cell_angle_beta   89.92990586
_cell_angle_gamma   120.04194212
_symmetry_Int_Tables_number   1
_chemical_formula_structural   Na2Ca2SiSn2S5O24
_chemical_formula_sum   'Na6 Ca6 Si3 Sn6 S15 O72'
_cell_volume   1657.80143672
_cell_formula_units_Z   3
loop_
 _symmetry_equiv_pos_site_id
 _symmetry_equiv_pos_as_xyz
  1  'x, y, z'
loop_
 _atom_site_type_symbol
 _atom_site_label
 _atom_site_symmetry_multiplicity
 _atom_site_fract_x
 _atom_site_fract_y
 _atom_site_fract_z
 _atom_site_occupancy
  Na  Na0  1  0.99893803  0.99987270  0.49935482  1
  Na  Na1  1  0.99555093  0.98161809  0.00098481  1
  Na  Na2  1  0.66934185  0.31168350  0.82363403  1
  Na  Na3  1  0.64203631  0.31419051  0.33747327  1
  Na  Na4  1  0.30470450  0.67450911  0.16620951  1
  Na  Na5  1  0.34683694  0.67675279  0.66529578  1
  Ca  Ca6  1  0.01309608  0.00147561  0.34893344  1
  Ca  Ca7  1  0.99608721  0.00001459  0.85256130  1
  Ca  Ca8  1  0.66765521  0.32940524  0.68381715  1
  Ca  Ca9  1  0.66132738  0.32979269  0.48509814  1
  Ca  Ca10  1  0.32482814  0.66807052  0.02445274  1
  Ca  Ca11  1  0.33570431  0.67128280  0.52099098  1
  Si  Si12  1  0.30740005  0.00119593  0.24981434  1
  Si  Si13  1  0.69694964  0.99392992  0.75281899  1
  Si  Si14  1  0.95133589  0.62718863  0.08666221  1
  Sn  Sn15  1  0.98835533  0.99711572  0.65386762  1
  Sn  Sn16  1  0.00740277  0.98581383  0.15164029  1
  Sn  Sn17  1  0.66798925  0.33226534  0.18546432  1
  Sn  Sn18  1  0.67586736  0.34388875  0.98277489  1
  Sn  Sn19  1  0.33211072  0.67616324  0.31548904  1
  Sn  Sn20  1  0.34018795  0.67186663  0.81380670  1
  S  S21  1  0.69644300  0.69980398  0.24884217  1
  S  S22  1  0.00339422  0.29657007  0.24706522  1
  S  S23  1  0.29108942  0.30090264  0.75099943  1
  S  S24  1  0.00889468  0.70755453  0.75134165  1
  S  S25  1  0.96997874  0.32235420  0.58607062  1
  S  S26  1  0.34735462  0.03045269  0.58812109  1
  S  S27  1  0.67930719  0.64605994  0.58641400  1
  S  S28  1  0.68203368  0.04917308  0.08556096  1
  S  S29  1  0.37149248  0.32168118  0.08472646  1
  S  S30  1  0.61996843  0.65202973  0.91891996  1
  S  S31  1  0.03584794  0.37984145  0.91687981  1
  S  S32  1  0.34893100  0.97391001  0.91920074  1
  S  S33  1  0.62838282  0.96423863  0.41380296  1
  S  S34  1  0.33766386  0.38344540  0.41239041  1
  S  S35  1  0.03443106  0.65884577  0.41473413  1
  O  O36  1  0.23673931  0.03946437  0.30536900  1
  O  O37  1  0.79902066  0.77736251  0.29891834  1
  O  O38  1  0.97228850  0.19432840  0.29764440  1
  O  O39  1  0.21534661  0.19949873  0.80180097  1
  O  O40  1  0.99768280  0.79156654  0.80237997  1
  O  O41  1  0.80078109  0.01144724  0.81036780  1
  O  O42  1  0.78383846  0.96226656  0.69447431  1
  O  O43  1  0.18680430  0.21831640  0.69793258  1
  O  O44  1  0.04223927  0.81636558  0.69841457  1
  O  O45  1  0.77140709  0.80965097  0.19617523  1
  O  O46  1  0.02585701  0.21346818  0.19415767  1
  O  O47  1  0.18691184  0.96386702  0.19155607  1
  O  O48  1  0.88594724  0.33578104  0.63719253  1
  O  O49  1  0.45038305  0.11550622  0.63797087  1
  O  O50  1  0.66575444  0.54820258  0.63739722  1
  O  O51  1  0.85026401  0.51014774  0.14207202  1
  O  O52  1  0.64934977  0.12775940  0.13597216  1
  O  O53  1  0.47162248  0.33436378  0.13623064  1
  O  O54  1  0.44562578  0.28762730  0.03188247  1
  O  O55  1  0.83829888  0.54408038  0.02702641  1
  O  O56  1  0.70447664  0.15138939  0.03203897  1
  O  O57  1  0.41959316  0.12643394  0.53477521  1
  O  O58  1  0.69492835  0.56633741  0.53374636  1
  O  O59  1  0.87163433  0.30177049  0.53367955  1
  O  O60  1  0.53336089  0.66538261  0.96888785  1
  O  O61  1  0.13316668  0.46864523  0.96688825  1
  O  O62  1  0.33386396  0.87403296  0.96934720  1
  O  O63  1  0.53920290  0.86462531  0.46405546  1
  O  O64  1  0.33198071  0.47543963  0.46237784  1
  O  O65  1  0.13705535  0.67116138  0.46424022  1
  O  O66  1  0.11845039  0.64241052  0.35926159  1
  O  O67  1  0.52730168  0.87808497  0.35896010  1
  O  O68  1  0.35305531  0.48483886  0.35671926  1
  O  O69  1  0.11529389  0.48205478  0.86243579  1
  O  O70  1  0.37113854  0.89525556  0.86518712  1
  O  O71  1  0.51954992  0.63118973  0.86473455  1
  O  O72  1  0.01934320  0.81333371  0.41158044  1
  O  O73  1  0.79759954  0.97923069  0.40970984  1
  O  O74  1  0.18013504  0.21679013  0.40972441  1
  O  O75  1  0.01596759  0.20984532  0.91402537  1
  O  O76  1  0.20249489  0.00100903  0.91511898  1
  O  O77  1  0.79456393  0.79653752  0.91547387  1
  O  O78  1  0.98492922  0.16056023  0.58951077  1
  O  O79  1  0.17216000  0.01822021  0.59376962  1
  O  O80  1  0.84529520  0.81978751  0.58893904  1
  O  O81  1  0.95608068  0.81466412  0.08989243  1
  O  O82  1  0.84716387  0.04852230  0.09236825  1
  O  O83  1  0.19431514  0.16861187  0.08941586  1
  O  O84  1  0.66598447  0.15489135  0.74798405  1
  O  O85  1  0.46632336  0.33820860  0.74404767  1
  O  O86  1  0.85810676  0.53975096  0.74510409  1
  O  O87  1  0.67932496  0.52709401  0.24127722  1
  O  O88  1  0.85459554  0.32499771  0.23975008  1
  O  O89  1  0.50373866  0.16900040  0.23936781  1
  O  O90  1  0.62702643  0.48583467  0.92022982  1
  O  O91  1  0.85873129  0.36371536  0.91856011  1
  O  O92  1  0.51427111  0.14897291  0.92235585  1
  O  O93  1  0.64167144  0.13390643  0.41428366  1
  O  O94  1  0.49139090  0.36555495  0.41205915  1
  O  O95  1  0.86436563  0.50364586  0.41547503  1
  O  O96  1  0.36224609  0.47700742  0.08024206  1
  O  O97  1  0.13814741  0.65019096  0.08621753  1
  O  O98  1  0.53837342  0.87587762  0.08082833  1
  O  O99  1  0.31865373  0.85488188  0.58470327  1
  O  O100  1  0.53397148  0.67781301  0.58403804  1
  O  O101  1  0.14524514  0.47024893  0.58308608  1
  O  O102  1  0.32736573  0.82576714  0.25346713  1
  O  O103  1  0.51879049  0.67251571  0.25355091  1
  O  O104  1  0.16212221  0.46984218  0.25113483  1
  O  O105  1  0.29004049  0.46934849  0.75491793  1
  O  O106  1  0.16598368  0.68611879  0.75477720  1
  O  O107  1  0.50434700  0.81261885  0.75452874  1
