# generated using pymatgen
data_MgMn6(O2F)4
_symmetry_space_group_name_H-M   'P 1'
_cell_length_a   7.03422708
_cell_length_b   5.91695568
_cell_length_c   5.87948393
_cell_angle_alpha   84.40997813
_cell_angle_beta   74.80758191
_cell_angle_gamma   73.00454406
_symmetry_Int_Tables_number   1
_chemical_formula_structural   MgMn6(O2F)4
_chemical_formula_sum   'Mg1 Mn6 O8 F4'
_cell_volume   225.78790113
_cell_formula_units_Z   1
loop_
 _symmetry_equiv_pos_site_id
 _symmetry_equiv_pos_as_xyz
  1  'x, y, z'
loop_
 _atom_site_type_symbol
 _atom_site_label
 _atom_site_symmetry_multiplicity
 _atom_site_fract_x
 _atom_site_fract_y
 _atom_site_fract_z
 _atom_site_occupancy
  Mg  Mg0  1  0.49736939  0.50926796  0.00068314  1
  Mn  Mn1  1  0.83569769  0.67429380  0.66635955  1
  Mn  Mn2  1  0.66674725  0.30204432  0.37886533  1
  Mn  Mn3  1  0.32677745  0.71383565  0.61725243  1
  Mn  Mn4  1  0.14597869  0.33129295  0.36138545  1
  Mn  Mn5  1  0.50304851  0.99890270  0.99565322  1
  Mn  Mn6  1  0.99610223  0.01233118  -0.00532742  1
  O  O7  1  0.30203280  0.84821381  0.92617315  1
  O  O8  1  0.61060950  0.53143105  0.62863631  1
  O  O9  1  0.96121189  0.17902008  0.27944283  1
  O  O10  1  0.68838333  0.16634426  0.07219104  1
  O  O11  1  0.03405031  0.81712055  0.73055795  1
  O  O12  1  0.37898984  0.47749749  0.37280395  1
  O  O13  1  0.68588546  0.70290965  -0.00288293  1
  O  O14  1  0.97631206  0.63129855  0.34993915  1
  F  F15  1  0.62902666  0.02448697  0.62353181  1
  F  F16  1  0.31487660  0.32005240  0.97695022  1
  F  F17  1  0.34391393  0.00901989  0.36847289  1
  F  F18  1  0.01965440  0.31016274  0.73074193  1
