# generated using pymatgen
data_Na7CaGa3(PO4)6
_symmetry_space_group_name_H-M   'P 1'
_cell_length_a   8.93855075
_cell_length_b   8.95991130
_cell_length_c   22.03998624
_cell_angle_alpha   90.01079509
_cell_angle_beta   90.02402762
_cell_angle_gamma   119.90974301
_symmetry_Int_Tables_number   1
_chemical_formula_structural   Na7CaGa3(PO4)6
_chemical_formula_sum   'Na21 Ca3 Ga9 P18 O72'
_cell_volume   1530.05469425
_cell_formula_units_Z   3
loop_
 _symmetry_equiv_pos_site_id
 _symmetry_equiv_pos_as_xyz
  1  'x, y, z'
loop_
 _atom_site_type_symbol
 _atom_site_label
 _atom_site_symmetry_multiplicity
 _atom_site_fract_x
 _atom_site_fract_y
 _atom_site_fract_z
 _atom_site_occupancy
  Na  Na0  1  0.63881835  0.00514105  0.24700508  1
  Na  Na1  1  0.36596777  0.36019596  0.24705972  1
  Na  Na2  1  0.99447420  0.63349551  0.24637945  1
  Na  Na3  1  0.63077017  0.62654182  0.74903111  1
  Na  Na4  1  0.99573604  0.36921530  0.74958586  1
  Na  Na5  1  0.37408973  0.00392267  0.74939266  1
  Na  Na6  1  0.02712352  0.69404860  0.58388771  1
  Na  Na7  1  0.66480623  0.97182705  0.58347143  1
  Na  Na8  1  0.30721932  0.97167190  0.08325289  1
  Na  Na9  1  0.66678460  0.69335927  0.08357353  1
  Na  Na10  1  0.69957311  0.03476125  0.91921483  1
  Na  Na11  1  0.33223673  0.29888561  0.91869257  1
  Na  Na12  1  0.96503374  0.29392854  0.41543874  1
  Na  Na13  1  0.32890271  0.03542971  0.41561654  1
  Na  Na14  1  0.70673351  0.67144761  0.41537085  1
  Na  Na15  1  0.00963632  0.01065410  0.50253331  1
  Na  Na16  1  0.99984948  0.99920948  0.00112930  1
  Na  Na17  1  0.67693432  0.34497823  0.83685404  1
  Na  Na18  1  0.66684767  0.33335431  0.33062085  1
  Na  Na19  1  0.32150696  0.65430018  0.16308112  1
  Na  Na20  1  0.33234845  0.65425706  0.66423622  1
  Ca  Ca21  1  0.99982508  0.99994126  0.35296740  1
  Ca  Ca22  1  0.66418265  0.33347236  0.68164025  1
  Ca  Ca23  1  0.67021432  0.33443303  0.17476230  1
  Ga  Ga24  1  0.99955857  0.99399285  0.85358722  1
  Ga  Ga25  1  0.00701138  0.00695102  0.64903842  1
  Ga  Ga26  1  0.00082879  0.00818083  0.14892243  1
  Ga  Ga27  1  0.67638318  0.34100921  0.98518552  1
  Ga  Ga28  1  0.66385734  0.33263468  0.48634828  1
  Ga  Ga29  1  0.32701521  0.66259835  0.01338511  1
  Ga  Ga30  1  0.33311574  0.66237520  0.51745564  1
  Ga  Ga31  1  0.33348276  0.66603474  0.31628321  1
  Ga  Ga32  1  0.32985163  0.66484122  0.81944537  1
  P  P33  1  0.29519150  0.99174121  0.25034164  1
  P  P34  1  0.69627197  0.70478775  0.25044055  1
  P  P35  1  0.00823748  0.30261611  0.25160839  1
  P  P36  1  0.27994239  0.28973155  0.75426894  1
  P  P37  1  0.00969846  0.71935313  0.75219378  1
  P  P38  1  0.71033915  0.99050341  0.75313501  1
  P  P39  1  0.97260008  0.33395885  0.58175582  1
  P  P40  1  0.36180905  0.02892251  0.58127772  1
  P  P41  1  0.66494678  0.63725108  0.58195474  1
  P  P42  1  0.97414016  0.63852586  0.08146726  1
  P  P43  1  0.66568733  0.02654803  0.07950115  1
  P  P44  1  0.36035598  0.33523783  0.07977741  1
  P  P45  1  0.62656596  0.66551679  0.91625831  1
  P  P46  1  0.03891157  0.37566199  0.91548317  1
  P  P47  1  0.33225904  0.95899785  0.91622622  1
  P  P48  1  0.61409637  0.95922551  0.41976475  1
  P  P49  1  0.34503464  0.38581210  0.41901035  1
  P  P50  1  0.04090382  0.65514462  0.41981077  1
  O  O51  1  0.22444036  0.02257170  0.30889161  1
  O  O52  1  0.79824415  0.77583160  0.30891321  1
  O  O53  1  0.97672606  0.20421951  0.31092865  1
  O  O54  1  0.19699837  0.17924481  0.81156428  1
  O  O55  1  0.97997419  0.80829127  0.80647506  1
  O  O56  1  0.82408999  0.01878757  0.80960586  1
  O  O57  1  0.79140780  0.96342103  0.69410677  1
  O  O58  1  0.16684109  0.20638209  0.69712884  1
  O  O59  1  0.03777822  0.82529773  0.69244230  1
  O  O60  1  0.78743117  0.82272009  0.19381994  1
  O  O61  1  0.03797881  0.20869107  0.19701369  1
  O  O62  1  0.17730982  0.96538031  0.19361133  1
  O  O63  1  0.90574693  0.37407800  0.63982380  1
  O  O64  1  0.46889039  0.09352499  0.63923609  1
  O  O65  1  0.63335434  0.53951901  0.64110717  1
  O  O66  1  0.91599674  0.54671134  0.14195096  1
  O  O67  1  0.62258115  0.08765726  0.13797935  1
  O  O68  1  0.46449159  0.37656670  0.13850527  1
  O  O69  1  0.45349195  0.29906185  0.02539230  1
  O  O70  1  0.84030135  0.54314909  0.02954775  1
  O  O71  1  0.69356429  0.14749019  0.02426683  1
  O  O72  1  0.45244744  0.14726380  0.52541458  1
  O  O73  1  0.69996603  0.54639724  0.52700573  1
  O  O74  1  0.84612663  0.29826705  0.52658302  1
  O  O75  1  0.54256286  0.70040284  0.97169366  1
  O  O76  1  0.16356497  0.46213640  0.96864269  1
  O  O77  1  0.30684217  0.84850803  0.97263120  1
  O  O78  1  0.52628513  0.84652145  0.47541773  1
  O  O79  1  0.31605730  0.47619170  0.47249545  1
  O  O80  1  0.15478121  0.68228210  0.47546727  1
  O  O81  1  0.12191790  0.62819647  0.36095717  1
  O  O82  1  0.50624961  0.87778044  0.36091806  1
  O  O83  1  0.37325926  0.49128062  0.35925535  1
  O  O84  1  0.11565618  0.48169438  0.85626716  1
  O  O85  1  0.36703764  0.87757556  0.85893219  1
  O  O86  1  0.50989176  0.62964501  0.85875698  1
  O  O87  1  0.01839870  0.81445458  0.41913302  1
  O  O88  1  0.79591334  0.98111764  0.41935987  1
  O  O89  1  0.18653491  0.20392505  0.41862044  1
  O  O90  1  0.01954141  0.19116114  0.91138368  1
  O  O91  1  0.17291191  0.98542870  0.91100705  1
  O  O92  1  0.80586352  0.83248433  0.91032667  1
  O  O93  1  0.97862716  0.16322439  0.58730546  1
  O  O94  1  0.17842725  0.00844170  0.58667287  1
  O  O95  1  0.83411821  0.81882847  0.58543182  1
  O  O96  1  0.98665571  0.82036941  0.08514642  1
  O  O97  1  0.82892184  0.00639065  0.08560589  1
  O  O98  1  0.18400092  0.16403069  0.08590845  1
  O  O99  1  0.68834999  0.15042589  0.75088309  1
  O  O100  1  0.46161162  0.31090607  0.75128948  1
  O  O101  1  0.85034815  0.53750285  0.75031268  1
  O  O102  1  0.66930299  0.52217318  0.24468004  1
  O  O103  1  0.85192707  0.32850374  0.24468145  1
  O  O104  1  0.47794202  0.14750339  0.24436711  1
  O  O105  1  0.63927414  0.49889908  0.92342203  1
  O  O106  1  0.85396784  0.35019518  0.92336193  1
  O  O107  1  0.49809971  0.14229354  0.92144944  1
  O  O108  1  0.63054919  0.14215576  0.42378968  1
  O  O109  1  0.51230787  0.37034699  0.42429822  1
  O  O110  1  0.85804458  0.48869346  0.42429601  1
  O  O111  1  0.34588808  0.49830161  0.06887152  1
  O  O112  1  0.15753845  0.66596007  0.07012372  1
  O  O113  1  0.50415342  0.84360768  0.06987308  1
  O  O114  1  0.33875902  0.84485637  0.57304457  1
  O  O115  1  0.50996607  0.66757140  0.57306634  1
  O  O116  1  0.15143017  0.49620001  0.57243559  1
  O  O117  1  0.30366610  0.82067942  0.25400725  1
  O  O118  1  0.51651281  0.69656162  0.25395524  1
  O  O119  1  0.17884625  0.48279257  0.25447774  1
  O  O120  1  0.29773483  0.47349209  0.75773207  1
  O  O121  1  0.17700206  0.70380378  0.75730866  1
  O  O122  1  0.52749952  0.82401807  0.75756418  1
