# generated using pymatgen
data_Hg7(PO5)2
_symmetry_space_group_name_H-M   'P 1'
_cell_length_a   10.08830552
_cell_length_b   6.32005485
_cell_length_c   9.67180193
_cell_angle_alpha   84.76212008
_cell_angle_beta   90.00000000
_cell_angle_gamma   90.00000000
_symmetry_Int_Tables_number   1
_chemical_formula_structural   Hg7(PO5)2
_chemical_formula_sum   'Hg14 P4 O20'
_cell_volume   614.08596352
_cell_formula_units_Z   2
loop_
 _symmetry_equiv_pos_site_id
 _symmetry_equiv_pos_as_xyz
  1  'x, y, z'
loop_
 _atom_site_type_symbol
 _atom_site_label
 _atom_site_symmetry_multiplicity
 _atom_site_fract_x
 _atom_site_fract_y
 _atom_site_fract_z
 _atom_site_occupancy
  Hg  Hg0  1  -0.00000000  0.50000000  0.00000000  1
  Hg  Hg1  1  0.50000000  0.50000000  0.50000000  1
  Hg  Hg2  1  0.61694299  0.81058514  0.18948906  1
  Hg  Hg3  1  0.11694299  0.18941486  0.31051094  1
  Hg  Hg4  1  0.38305701  0.18941486  0.81051094  1
  Hg  Hg5  1  0.88305701  0.81058514  0.68948906  1
  Hg  Hg6  1  0.84870479  0.98774870  0.08876992  1
  Hg  Hg7  1  0.34870479  0.01225130  0.41123008  1
  Hg  Hg8  1  0.15129521  0.01225130  0.91123008  1
  Hg  Hg9  1  0.65129521  0.98774870  0.58876992  1
  Hg  Hg10  1  0.63849447  0.23688559  0.15087144  1
  Hg  Hg11  1  0.13849447  0.76311441  0.34912856  1
  Hg  Hg12  1  0.36150553  0.76311441  0.84912856  1
  Hg  Hg13  1  0.86150553  0.23688559  0.65087144  1
  P  P14  1  0.85080649  0.50109077  0.35253475  1
  P  P15  1  0.35080649  0.49890923  0.14746525  1
  P  P16  1  0.14919351  0.49890923  0.64746525  1
  P  P17  1  0.64919351  0.50109077  0.85253475  1
  O  O18  1  0.43213344  0.32183557  0.23025309  1
  O  O19  1  0.93213344  0.67816443  0.26974691  1
  O  O20  1  0.56786656  0.67816443  0.76974691  1
  O  O21  1  0.06786656  0.32183557  0.73025309  1
  O  O22  1  0.90532319  0.27771903  0.33592495  1
  O  O23  1  0.40532319  0.72228097  0.16407505  1
  O  O24  1  0.09467681  0.72228097  0.66407505  1
  O  O25  1  0.59467681  0.27771903  0.83592495  1
  O  O26  1  0.65390843  0.54159845  0.00702891  1
  O  O27  1  0.15390843  0.45840155  0.49297109  1
  O  O28  1  0.34609157  0.45840155  0.99297109  1
  O  O29  1  0.84609157  0.54159845  0.50702891  1
  O  O30  1  0.03294084  0.18719901  0.06301888  1
  O  O31  1  0.53294084  0.81280099  0.43698112  1
  O  O32  1  0.96705916  0.81280099  0.93698112  1
  O  O33  1  0.46705916  0.18719901  0.56301888  1
  O  O34  1  0.70699334  0.50301316  0.29511386  1
  O  O35  1  0.20699334  0.49698684  0.20488614  1
  O  O36  1  0.79300666  0.50301316  0.79511386  1
  O  O37  1  0.29300666  0.49698684  0.70488614  1
