# generated using pymatgen
data_Na6Ca6Zr2SiS11O48
_symmetry_space_group_name_H-M   'P 1'
_cell_length_a   18.39419886
_cell_length_b   9.18804843
_cell_length_c   23.94046641
_cell_angle_alpha   90.10562997
_cell_angle_beta   89.86115696
_cell_angle_gamma   119.94570016
_symmetry_Int_Tables_number   1
_chemical_formula_structural   Na6Ca6Zr2SiS11O48
_chemical_formula_sum   'Na18 Ca18 Zr6 Si3 S33 O144'
_cell_volume   3505.93104398
_cell_formula_units_Z   3
loop_
 _symmetry_equiv_pos_site_id
 _symmetry_equiv_pos_as_xyz
  1  'x, y, z'
loop_
 _atom_site_type_symbol
 _atom_site_label
 _atom_site_symmetry_multiplicity
 _atom_site_fract_x
 _atom_site_fract_y
 _atom_site_fract_z
 _atom_site_occupancy
  Na  Na0  1  0.68755069  0.36487014  0.24284564  1
  Na  Na1  1  0.99057021  0.63558949  0.25559868  1
  Na  Na2  1  0.33567975  0.96149087  0.59574636  1
  Na  Na3  1  0.83660318  0.96302047  0.59597960  1
  Na  Na4  1  0.33363607  0.69410642  0.08135763  1
  Na  Na5  1  0.34531764  0.66446492  0.41389473  1
  Na  Na6  1  0.00918083  0.99419596  0.49485904  1
  Na  Na7  1  0.51291595  0.01582659  0.50073526  1
  Na  Na8  1  0.00220067  0.00078748  0.99758225  1
  Na  Na9  1  0.51279772  0.01877275  0.00206317  1
  Na  Na10  1  0.33269749  0.32291853  0.83985231  1
  Na  Na11  1  0.83173085  0.32276904  0.83981979  1
  Na  Na12  1  0.32936556  0.32028940  0.32943429  1
  Na  Na13  1  0.83785536  0.34329766  0.33421099  1
  Na  Na14  1  0.16862892  0.67033441  0.16527886  1
  Na  Na15  1  0.66768580  0.67560743  0.15478101  1
  Na  Na16  1  0.17225075  0.67470978  0.67862537  1
  Na  Na17  1  0.67369798  0.67537679  0.67929794  1
  Ca  Ca18  1  0.99882438  0.99827255  0.35095822  1
  Ca  Ca19  1  0.49842405  0.00063825  0.34898069  1
  Ca  Ca20  1  0.00021830  0.99838158  0.65143278  1
  Ca  Ca21  1  0.50072125  0.99804978  0.65174703  1
  Ca  Ca22  1  0.50366462  0.00612652  0.15177051  1
  Ca  Ca23  1  0.33490865  0.33156360  0.18200048  1
  Ca  Ca24  1  0.83197547  0.32940241  0.17938240  1
  Ca  Ca25  1  0.33081629  0.32437551  0.98356178  1
  Ca  Ca26  1  0.83418910  0.33340785  0.98475347  1
  Ca  Ca27  1  0.33408047  0.33000578  0.48148146  1
  Ca  Ca28  1  0.83295969  0.33879115  0.47853563  1
  Ca  Ca29  1  0.16217844  0.66930375  0.01147670  1
  Ca  Ca30  1  0.66679434  0.66791385  0.01187112  1
  Ca  Ca31  1  0.15986585  0.65845258  0.51962002  1
  Ca  Ca32  1  0.66223492  0.65949860  0.52053262  1
  Ca  Ca33  1  0.16749161  0.66664039  0.31566885  1
  Ca  Ca34  1  0.17065746  0.67518794  0.81637473  1
  Ca  Ca35  1  0.67092204  0.67586026  0.81647737  1
  Zr  Zr36  1  0.99346456  0.00095284  0.84556630  1
  Zr  Zr37  1  0.49404412  0.00142885  0.84642850  1
  Zr  Zr38  1  0.99129794  0.99038982  0.15179191  1
  Zr  Zr39  1  0.33404390  0.32915483  0.69041884  1
  Zr  Zr40  1  0.83416326  0.33014973  0.69015493  1
  Zr  Zr41  1  0.67283242  0.67506554  0.31533859  1
  Si  Si42  1  0.85097851  0.69918395  0.25241457  1
  Si  Si43  1  0.34898101  0.99606739  0.74311183  1
  Si  Si44  1  0.84848134  0.99679564  0.74296189  1
  S  S45  1  0.14481908  0.99854339  0.24786489  1
  S  S46  1  0.64970654  0.99592475  0.25270074  1
  S  S47  1  0.34810726  0.69534946  0.25015660  1
  S  S48  1  0.00106593  0.29750974  0.24821720  1
  S  S49  1  0.50369465  0.30928026  0.25384059  1
  S  S50  1  0.14911176  0.29151037  0.74952426  1
  S  S51  1  0.64905936  0.29149412  0.74964470  1
  S  S52  1  0.99626250  0.70019680  0.74963282  1
  S  S53  1  0.49617168  0.69996369  0.74972413  1
  S  S54  1  0.47812104  0.33329811  0.58583432  1
  S  S55  1  0.97658815  0.33270624  0.58513324  1
  S  S56  1  0.19003062  0.04412704  0.58584079  1
  S  S57  1  0.69085265  0.04668553  0.58452256  1
  S  S58  1  0.33424820  0.62883130  0.58273324  1
  S  S59  1  0.83329601  0.62655748  0.58483732  1
  S  S60  1  0.48278577  0.63405894  0.08341031  1
  S  S61  1  0.98625393  0.64410550  0.08730426  1
  S  S62  1  0.33254734  0.02447642  0.08367729  1
  S  S63  1  0.83587033  0.02896048  0.08451568  1
  S  S64  1  0.17999819  0.33013210  0.08537139  1
  S  S65  1  0.68068402  0.33519571  0.08481896  1
  S  S66  1  0.32201336  0.67287027  0.91618692  1
  S  S67  1  0.82188526  0.67266684  0.91417687  1
  S  S68  1  0.01564179  0.35828374  0.91361912  1
  S  S69  1  0.51610633  0.35922126  0.91340042  1
  S  S70  1  0.16138573  0.97122304  0.91354052  1
  S  S71  1  0.66212263  0.97077994  0.91433436  1
  S  S72  1  0.31710404  0.96231051  0.41926022  1
  S  S73  1  0.81212489  0.96031978  0.41803289  1
  S  S74  1  0.16869291  0.36945074  0.41762036  1
  S  S75  1  0.66627167  0.37469349  0.41361140  1
  S  S76  1  0.01590893  0.66717820  0.41486246  1
  S  S77  1  0.51922200  0.66719331  0.41469026  1
  O  O78  1  0.10997521  0.01998451  0.29960428  1
  O  O79  1  0.60871467  0.02311008  0.30110847  1
  O  O80  1  0.39509084  0.77874027  0.30212199  1
  O  O81  1  0.91238906  0.78309816  0.30368053  1
  O  O82  1  0.49284314  0.20666287  0.30322385  1
  O  O83  1  0.99578373  0.20775863  0.29908913  1
  O  O84  1  0.10734704  0.18060760  0.79948144  1
  O  O85  1  0.60694713  0.18030157  0.79952273  1
  O  O86  1  0.48574748  0.78716210  0.79976131  1
  O  O87  1  0.98603624  0.78787599  0.79973603  1
  O  O88  1  0.41482278  0.01956288  0.79700769  1
  O  O89  1  0.91436890  0.02017890  0.79688528  1
  O  O90  1  0.38854653  0.98518721  0.68458562  1
  O  O91  1  0.88834382  0.98515836  0.68474898  1
  O  O92  1  0.10268248  0.21552233  0.69880073  1
  O  O93  1  0.60256800  0.21541210  0.69879915  1
  O  O94  1  0.00959853  0.79775617  0.69928521  1
  O  O95  1  0.50945585  0.79733950  0.69922807  1
  O  O96  1  0.39278300  0.79539414  0.19998851  1
  O  O97  1  0.89755641  0.81971099  0.19541785  1
  O  O98  1  0.00601696  0.20259935  0.19785286  1
  O  O99  1  0.52265417  0.24000933  0.20361534  1
  O  O100  1  0.08997883  0.98967982  0.19886484  1
  O  O101  1  0.60051263  0.96411087  0.20135179  1
  O  O102  1  0.43003553  0.34193233  0.63618910  1
  O  O103  1  0.92881053  0.34235623  0.63592040  1
  O  O104  1  0.24347306  0.14300744  0.63574508  1
  O  O105  1  0.74306072  0.14350591  0.63492854  1
  O  O106  1  0.33068468  0.52389744  0.63165743  1
  O  O107  1  0.82944542  0.52625354  0.63546091  1
  O  O108  1  0.44312255  0.53696119  0.13449015  1
  O  O109  1  0.94785405  0.54967808  0.13914489  1
  O  O110  1  0.32557905  0.10652133  0.13450308  1
  O  O111  1  0.82658194  0.10773297  0.13519308  1
  O  O112  1  0.23411250  0.35531096  0.13404989  1
  O  O113  1  0.72301054  0.34459230  0.13905422  1
  O  O114  1  0.21541906  0.30096506  0.03405099  1
  O  O115  1  0.72886932  0.32367767  0.03741738  1
  O  O116  1  0.43052143  0.54730650  0.03389867  1
  O  O117  1  0.93408149  0.56588741  0.03788432  1
  O  O118  1  0.33874354  0.12045253  0.03303505  1
  O  O119  1  0.84893863  0.13034791  0.03420414  1
  O  O120  1  0.22907525  0.13685943  0.53456113  1
  O  O121  1  0.73012377  0.13983382  0.53345654  1
  O  O122  1  0.33839481  0.55117745  0.52970697  1
  O  O123  1  0.83618311  0.54234562  0.53375422  1
  O  O124  1  0.43012198  0.31853092  0.53528030  1
  O  O125  1  0.92773969  0.31666395  0.53490112  1
  O  O126  1  0.28981086  0.70102512  0.96974842  1
  O  O127  1  0.78753442  0.70356967  0.96551551  1
  O  O128  1  0.06408350  0.42880414  0.96542446  1
  O  O129  1  0.56442505  0.42974818  0.96504714  1
  O  O130  1  0.14829353  0.87475388  0.96563110  1
  O  O131  1  0.64892650  0.87267901  0.96593566  1
  O  O132  1  0.27611911  0.86822018  0.47119486  1
  O  O133  1  0.77203785  0.86950519  0.46993671  1
  O  O134  1  0.16313429  0.45394784  0.46870152  1
  O  O135  1  0.66013838  0.45895425  0.46395990  1
  O  O136  1  0.06635639  0.67217911  0.46356667  1
  O  O137  1  0.56468877  0.67927835  0.46623733  1
  O  O138  1  0.05569397  0.65859543  0.36144455  1
  O  O139  1  0.56697777  0.65991413  0.36486731  1
  O  O140  1  0.26696334  0.87519332  0.36944485  1
  O  O141  1  0.75789852  0.85554566  0.36868216  1
  O  O142  1  0.17647057  0.47067500  0.36746434  1
  O  O143  1  0.66952657  0.47645059  0.36222569  1
  O  O144  1  0.05740572  0.46049468  0.86463902  1
  O  O145  1  0.55780812  0.46084700  0.86424290  1
  O  O146  1  0.17195662  0.88616661  0.86517270  1
  O  O147  1  0.67282847  0.88735874  0.86539512  1
  O  O148  1  0.26739706  0.65311615  0.86926001  1
  O  O149  1  0.77023185  0.65079595  0.86514887  1
  O  O150  1  0.00842122  0.82049120  0.41716090  1
  O  O151  1  0.50730501  0.81622013  0.41140761  1
  O  O152  1  0.40005430  0.96653637  0.41655698  1
  O  O153  1  0.89590952  0.98008047  0.41297504  1
  O  O154  1  0.09583184  0.19844273  0.41528905  1
  O  O155  1  0.59108930  0.20614598  0.41005146  1
  O  O156  1  0.00812965  0.18496145  0.90630221  1
  O  O157  1  0.50892819  0.18578279  0.90604993  1
  O  O158  1  0.08411003  0.98804465  0.90567889  1
  O  O159  1  0.58460656  0.98739623  0.90623857  1
  O  O160  1  0.40790921  0.82949505  0.90655666  1
  O  O161  1  0.90869480  0.82997186  0.90570375  1
  O  O162  1  0.48524157  0.17939540  0.58837267  1
  O  O163  1  0.98411264  0.17972250  0.58860105  1
  O  O164  1  0.10492729  0.01728930  0.59066852  1
  O  O165  1  0.60524063  0.01968921  0.58885528  1
  O  O166  1  0.40990225  0.80001942  0.58512008  1
  O  O167  1  0.90890531  0.79740750  0.58626974  1
  O  O168  1  0.48570820  0.80046765  0.08652458  1
  O  O169  1  0.99555519  0.81880349  0.09290767  1
  O  O170  1  0.40803797  0.00231142  0.08634153  1
  O  O171  1  0.91551435  0.01574009  0.09038403  1
  O  O172  1  0.09368706  0.18144669  0.09405671  1
  O  O173  1  0.59594273  0.18188374  0.08448151  1
  O  O174  1  0.34663303  0.18025869  0.74211649  1
  O  O175  1  0.84631132  0.18056800  0.74214714  1
  O  O176  1  0.23534039  0.30728762  0.74547196  1
  O  O177  1  0.73500633  0.30668749  0.74569077  1
  O  O178  1  0.41398682  0.53406250  0.74487635  1
  O  O179  1  0.91428335  0.53425424  0.74518303  1
  O  O180  1  0.33931224  0.52564995  0.24832815  1
  O  O181  1  0.83364101  0.50835351  0.24396684  1
  O  O182  1  0.43087817  0.33324608  0.24777415  1
  O  O183  1  0.92613442  0.31863338  0.24350421  1
  O  O184  1  0.23099991  0.13895551  0.24073606  1
  O  O185  1  0.73442285  0.14549713  0.24762644  1
  O  O186  1  0.33494881  0.52659404  0.91946689  1
  O  O187  1  0.83557193  0.52747098  0.91937706  1
  O  O188  1  0.42940701  0.33071463  0.91789881  1
  O  O189  1  0.92935857  0.33137570  0.91858626  1
  O  O190  1  0.23581984  0.14248617  0.91771672  1
  O  O191  1  0.73648241  0.14236656  0.91923522  1
  O  O192  1  0.33094101  0.13515229  0.41999985  1
  O  O193  1  0.81447314  0.12307672  0.41412611  1
  O  O194  1  0.24924677  0.36317505  0.41870093  1
  O  O195  1  0.74376676  0.36447506  0.41192665  1
  O  O196  1  0.43399882  0.51484858  0.41352217  1
  O  O197  1  0.93123341  0.51371062  0.41637916  1
  O  O198  1  0.17462189  0.48701758  0.07989277  1
  O  O199  1  0.67277858  0.48833456  0.08090761  1
  O  O200  1  0.07147906  0.66708246  0.08167343  1
  O  O201  1  0.56888059  0.65978465  0.07884387  1
  O  O202  1  0.25744374  0.84980316  0.08084477  1
  O  O203  1  0.76333647  0.85687879  0.07969144  1
  O  O204  1  0.19036640  0.88169139  0.58691167  1
  O  O205  1  0.69074089  0.88375035  0.58543865  1
  O  O206  1  0.25836196  0.64862076  0.58476436  1
  O  O207  1  0.75745475  0.64761133  0.58599258  1
  O  O208  1  0.05975340  0.48593389  0.58616612  1
  O  O209  1  0.56127201  0.48616483  0.58658266  1
  O  O210  1  0.14269486  0.83322835  0.24656354  1
  O  O211  1  0.65902142  0.84329786  0.26215481  1
  O  O212  1  0.26389534  0.68157769  0.25104404  1
  O  O213  1  0.75539545  0.68088621  0.25953917  1
  O  O214  1  0.07696628  0.46854615  0.24647651  1
  O  O215  1  0.58239628  0.48077754  0.26169188  1
  O  O216  1  0.16010857  0.45947131  0.75743984  1
  O  O217  1  0.65981060  0.45924809  0.75738734  1
  O  O218  1  0.06481126  0.66486811  0.75772343  1
  O  O219  1  0.56453671  0.66420166  0.75766301  1
  O  O220  1  0.25577533  0.84212943  0.75198400  1
  O  O221  1  0.75531370  0.84268651  0.75182330  1
