# generated using pymatgen
data_Na6Ca3HfP4(SO12)2
_symmetry_space_group_name_H-M   'P 1'
_cell_length_a   9.28405950
_cell_length_b   9.29899517
_cell_length_c   23.25791875
_cell_angle_alpha   90.09506777
_cell_angle_beta   90.00695938
_cell_angle_gamma   119.85429673
_symmetry_Int_Tables_number   1
_chemical_formula_structural   Na6Ca3HfP4(SO12)2
_chemical_formula_sum   'Na18 Ca9 Hf3 P12 S6 O72'
_cell_volume   1741.44724682
_cell_formula_units_Z   3
loop_
 _symmetry_equiv_pos_site_id
 _symmetry_equiv_pos_as_xyz
  1  'x, y, z'
loop_
 _atom_site_type_symbol
 _atom_site_label
 _atom_site_symmetry_multiplicity
 _atom_site_fract_x
 _atom_site_fract_y
 _atom_site_fract_z
 _atom_site_occupancy
  Na  Na0  1  0.36468404  0.36531566  0.25358503  1
  Na  Na1  1  0.64030598  0.64293318  0.74584243  1
  Na  Na2  1  0.99248151  0.34188445  0.74971561  1
  Na  Na3  1  0.29683434  0.34686526  0.58253378  1
  Na  Na4  1  0.02561995  0.68837484  0.57756116  1
  Na  Na5  1  0.67389865  0.95812226  0.58002478  1
  Na  Na6  1  0.28800755  0.96023311  0.07732893  1
  Na  Na7  1  0.65952350  0.68609102  0.07969005  1
  Na  Na8  1  0.04881499  0.34745623  0.08007934  1
  Na  Na9  1  0.31697767  0.29541693  0.91094893  1
  Na  Na10  1  0.98487962  0.30608680  0.41392995  1
  Na  Na11  1  0.68870572  0.67681412  0.41417630  1
  Na  Na12  1  0.00332513  0.99934417  0.49242800  1
  Na  Na13  1  0.99470767  0.98441834  0.98976242  1
  Na  Na14  1  0.65216129  0.30326212  0.83013527  1
  Na  Na15  1  0.66454895  0.31624591  0.33150250  1
  Na  Na16  1  0.32210821  0.66930623  0.17197000  1
  Na  Na17  1  0.33963070  0.66629023  0.66717176  1
  Ca  Ca18  1  0.00412882  0.99418810  0.35006668  1
  Ca  Ca19  1  0.99762857  0.99790893  0.85064266  1
  Ca  Ca20  1  0.99564104  0.00599265  0.65514368  1
  Ca  Ca21  1  0.99889120  0.99368167  0.14940313  1
  Ca  Ca22  1  0.65836317  0.32689224  0.68530784  1
  Ca  Ca23  1  0.67486775  0.33855620  0.18390112  1
  Ca  Ca24  1  0.33249826  0.66933373  0.01218212  1
  Ca  Ca25  1  0.33346782  0.66868530  0.50988731  1
  Ca  Ca26  1  0.33350839  0.67941330  0.32412502  1
  Hf  Hf27  1  0.67109846  0.34104759  0.97670015  1
  Hf  Hf28  1  0.66698628  0.33388117  0.48242249  1
  Hf  Hf29  1  0.33715036  0.67415943  0.82397713  1
  P  P30  1  0.30579045  0.31940677  0.75412607  1
  P  P31  1  0.68746772  0.98940581  0.75129924  1
  P  P32  1  0.96150978  0.33428683  0.58342277  1
  P  P33  1  0.66776063  0.62895535  0.58324821  1
  P  P34  1  0.95809927  0.62441005  0.08023136  1
  P  P35  1  0.37537225  0.33283282  0.08151365  1
  P  P36  1  0.63009641  0.66039090  0.91941078  1
  P  P37  1  0.03185036  0.37272678  0.91833904  1
  P  P38  1  0.34266466  0.97413728  0.92089768  1
  P  P39  1  0.64292309  0.97995813  0.42124575  1
  P  P40  1  0.34017825  0.36203811  0.41846925  1
  P  P41  1  0.01845714  0.65867039  0.42221185  1
  S  S42  1  0.30526369  0.00126238  0.24698943  1
  S  S43  1  0.68842190  0.69300944  0.24974127  1
  S  S44  1  0.00533903  0.30431042  0.25007128  1
  S  S45  1  0.01090551  0.69735289  0.75049004  1
  S  S46  1  0.37215624  0.03921321  0.58139799  1
  S  S47  1  0.66759262  0.04510968  0.08047772  1
  O  O48  1  0.21307169  0.01605511  0.29634995  1
  O  O49  1  0.78417411  0.78008204  0.30149342  1
  O  O50  1  0.99527802  0.20754332  0.30193889  1
  O  O51  1  0.22050536  0.21163853  0.80627454  1
  O  O52  1  0.98594148  0.78412885  0.79864831  1
  O  O53  1  0.81022907  0.01379386  0.79877977  1
  O  O54  1  0.74332293  0.94578962  0.69352956  1
  O  O55  1  0.20348308  0.24753207  0.69777065  1
  O  O56  1  0.03558571  0.78766690  0.69566289  1
  O  O57  1  0.77238720  0.78429307  0.19642170  1
  O  O58  1  0.01584323  0.21863836  0.19697282  1
  O  O59  1  0.21545164  0.98819838  0.19227107  1
  O  O60  1  0.88153437  0.34891132  0.63913511  1
  O  O61  1  0.46674578  0.11394668  0.63375907  1
  O  O62  1  0.64883566  0.53214048  0.63867752  1
  O  O63  1  0.88085742  0.52155950  0.13402848  1
  O  O64  1  0.64686061  0.11890389  0.13331680  1
  O  O65  1  0.47085801  0.34850218  0.13708696  1
  O  O66  1  0.47870898  0.32216812  0.02860324  1
  O  O67  1  0.84632481  0.52174204  0.02722088  1
  O  O68  1  0.68252062  0.15069209  0.02962848  1
  O  O69  1  0.46369765  0.14416447  0.53064407  1
  O  O70  1  0.67230377  0.52253974  0.53085179  1
  O  O71  1  0.84774677  0.32443034  0.53130636  1
  O  O72  1  0.55687398  0.67885701  0.97573789  1
  O  O73  1  0.12919380  0.44609058  0.97377205  1
  O  O74  1  0.32290022  0.88721269  0.97789233  1
  O  O75  1  0.57083805  0.87878493  0.47679326  1
  O  O76  1  0.31502087  0.44397757  0.47226900  1
  O  O77  1  0.11410106  0.68495518  0.47841071  1
  O  O78  1  0.09915989  0.62038493  0.37123254  1
  O  O79  1  0.53274850  0.89931899  0.36896200  1
  O  O80  1  0.38069124  0.47349285  0.36455892  1
  O  O81  1  0.12838885  0.49118350  0.86592459  1
  O  O82  1  0.35833555  0.86980037  0.87017806  1
  O  O83  1  0.50668827  0.63758785  0.86793346  1
  O  O84  1  0.97873205  0.79947492  0.41407630  1
  O  O85  1  0.82074372  0.00570728  0.41424132  1
  O  O86  1  0.18358945  0.19100838  0.41224321  1
  O  O87  1  0.01776927  0.20286147  0.90960888  1
  O  O88  1  0.19870276  0.00823928  0.91137523  1
  O  O89  1  0.80438868  0.80160364  0.91013814  1
  O  O90  1  0.97380558  0.17300922  0.58107625  1
  O  O91  1  0.20615726  0.02955763  0.58260696  1
  O  O92  1  0.83348541  0.79765414  0.58133253  1
  O  O93  1  0.95982793  0.79306982  0.07995042  1
  O  O94  1  0.82346531  0.03426145  0.08199859  1
  O  O95  1  0.20180900  0.17198770  0.07970904  1
  O  O96  1  0.67486972  0.14861946  0.74791628  1
  O  O97  1  0.48837054  0.35881167  0.75018572  1
  O  O98  1  0.86198471  0.52669714  0.74757209  1
  O  O99  1  0.66809853  0.52255238  0.24981774  1
  O  O100  1  0.85780707  0.32553386  0.24904328  1
  O  O101  1  0.46950307  0.15842029  0.24725502  1
  O  O102  1  0.62563003  0.48638395  0.92062273  1
  O  O103  1  0.85617215  0.35877433  0.92160611  1
  O  O104  1  0.50803301  0.14901362  0.92159215  1
  O  O105  1  0.66652772  0.15955844  0.42825252  1
  O  O106  1  0.49943245  0.34505578  0.42802667  1
  O  O107  1  0.84078599  0.49438013  0.42760836  1
  O  O108  1  0.35617880  0.48903971  0.07753043  1
  O  O109  1  0.13710291  0.65399384  0.07637745  1
  O  O110  1  0.52186415  0.87611306  0.07581428  1
  O  O111  1  0.35117114  0.87114569  0.57599444  1
  O  O112  1  0.51459184  0.65346236  0.57838376  1
  O  O113  1  0.13617225  0.49047674  0.57834377  1
  O  O114  1  0.32554330  0.85380198  0.25106796  1
  O  O115  1  0.51775762  0.67190536  0.25075950  1
  O  O116  1  0.16332762  0.46827159  0.25162601  1
  O  O117  1  0.31394534  0.49505773  0.76215917  1
  O  O118  1  0.15972954  0.67558843  0.75979152  1
  O  O119  1  0.51242226  0.83122068  0.76452907  1
