# generated using pymatgen
data_Na4FeO5
_symmetry_space_group_name_H-M   'P 1'
_cell_length_a   4.87178031
_cell_length_b   7.25375496
_cell_length_c   14.50775483
_cell_angle_alpha   89.99889097
_cell_angle_beta   90.00141872
_cell_angle_gamma   90.00209863
_symmetry_Int_Tables_number   1
_chemical_formula_structural   Na4FeO5
_chemical_formula_sum   'Na16 Fe4 O20'
_cell_volume   512.68520404
_cell_formula_units_Z   4
loop_
 _symmetry_equiv_pos_site_id
 _symmetry_equiv_pos_as_xyz
  1  'x, y, z'
loop_
 _atom_site_type_symbol
 _atom_site_label
 _atom_site_symmetry_multiplicity
 _atom_site_fract_x
 _atom_site_fract_y
 _atom_site_fract_z
 _atom_site_occupancy
  Na  Na0  1  0.50251585  0.29380402  0.04870138  1
  Na  Na1  1  0.50271062  0.29364023  0.54836375  1
  Na  Na2  1  0.99743289  0.79371616  0.29858296  1
  Na  Na3  1  0.99744216  0.79427263  0.79859752  1
  Na  Na4  1  0.99749468  0.40248669  0.89695619  1
  Na  Na5  1  0.99745053  0.40268390  0.39677685  1
  Na  Na6  1  0.50263377  0.90243141  0.14700257  1
  Na  Na7  1  0.50274723  0.90282141  0.64684991  1
  Na  Na8  1  0.99736976  0.59742377  0.10313305  1
  Na  Na9  1  0.99736650  0.59746646  0.60286370  1
  Na  Na10  1  0.50246166  0.09705459  0.35313248  1
  Na  Na11  1  0.50256085  0.09655875  0.85324089  1
  Na  Na12  1  0.50267828  0.70629031  0.95147683  1
  Na  Na13  1  0.50241158  0.70615763  0.45140105  1
  Na  Na14  1  0.99735592  0.20627347  0.20128438  1
  Na  Na15  1  0.99751523  0.20617021  0.70108520  1
  Fe  Fe16  1  0.05005896  0.00003218  0.50014920  1
  Fe  Fe17  1  0.44972514  0.50073103  0.74995588  1
  Fe  Fe18  1  0.05019728  0.00009642  0.00032360  1
  Fe  Fe19  1  0.44985724  0.50009101  0.24983538  1
  O  O20  1  0.41390421  0.00005404  0.00025976  1
  O  O21  1  0.41422213  0.99994797  0.49999782  1
  O  O22  1  0.08590768  0.50001885  0.24994308  1
  O  O23  1  0.08523029  0.50030588  0.74997698  1
  O  O24  1  0.99139694  0.24059371  0.03565563  1
  O  O25  1  0.99143813  0.24063142  0.53552944  1
  O  O26  1  0.50866733  0.74033938  0.28573140  1
  O  O27  1  0.50875164  0.74187964  0.78598820  1
  O  O28  1  0.50882575  0.42797946  0.87057634  1
  O  O29  1  0.50875250  0.42863683  0.37008992  1
  O  O30  1  0.99153322  0.92854971  0.12041234  1
  O  O31  1  0.99146022  0.92840010  0.62027363  1
  O  O32  1  0.50843414  0.57127693  0.12964312  1
  O  O33  1  0.50890424  0.57131441  0.62908241  1
  O  O34  1  0.99109233  0.07111621  0.37978433  1
  O  O35  1  0.99138746  0.07100558  0.88000192  1
  O  O36  1  0.99149350  0.75977996  0.96442444  1
  O  O37  1  0.99108960  0.75968667  0.46416685  1
  O  O38  1  0.50853711  0.25943010  0.21447209  1
  O  O39  1  0.50898448  0.25885484  0.71428054  1
