# generated using pymatgen
data_NaTiSn(PO4)3
_symmetry_space_group_name_H-M   'P 1'
_cell_length_a   8.66528668
_cell_length_b   8.66528641
_cell_length_c   22.61047454
_cell_angle_alpha   90.00000000
_cell_angle_beta   90.00000000
_cell_angle_gamma   120.00000104
_symmetry_Int_Tables_number   1
_chemical_formula_structural   NaTiSn(PO4)3
_chemical_formula_sum   'Na6 Ti6 Sn6 P18 O72'
_cell_volume   1470.30069119
_cell_formula_units_Z   6
loop_
 _symmetry_equiv_pos_site_id
 _symmetry_equiv_pos_as_xyz
  1  'x, y, z'
loop_
 _atom_site_type_symbol
 _atom_site_label
 _atom_site_symmetry_multiplicity
 _atom_site_fract_x
 _atom_site_fract_y
 _atom_site_fract_z
 _atom_site_occupancy
  Na  Na0  1  0.00000000  0.00000000  0.50104902  1
  Na  Na1  1  0.00000000  0.00000000  0.00091181  1
  Na  Na2  1  0.66666700  0.33333300  0.83237220  1
  Na  Na3  1  0.66666700  0.33333300  0.33423618  1
  Na  Na4  1  0.33333300  0.66666700  0.16753754  1
  Na  Na5  1  0.33333300  0.66666700  0.66544369  1
  Ti  Ti6  1  0.00000000  0.00000000  0.64625796  1
  Ti  Ti7  1  0.00000000  0.00000000  0.14660028  1
  Ti  Ti8  1  0.66666700  0.33333300  0.68549825  1
  Ti  Ti9  1  0.66666700  0.33333300  0.48082259  1
  Ti  Ti10  1  0.33333300  0.66666700  0.51960422  1
  Ti  Ti11  1  0.33333300  0.66666700  0.31311236  1
  Sn  Sn12  1  0.00000000  0.00000000  0.35305005  1
  Sn  Sn13  1  0.00000000  0.00000000  0.85186531  1
  Sn  Sn14  1  0.66666700  0.33333300  0.18610398  1
  Sn  Sn15  1  0.66666700  0.33333300  0.98108205  1
  Sn  Sn16  1  0.33333300  0.66666700  0.01953531  1
  Sn  Sn17  1  0.33333300  0.66666700  0.81282818  1
  P  P18  1  0.28822705  0.99768653  0.24960579  1
  P  P19  1  0.70945947  0.71177295  0.24960579  1
  P  P20  1  0.00231347  0.29054053  0.24960579  1
  P  P21  1  0.29101004  0.28818365  0.74823293  1
  P  P22  1  0.99717361  0.70898996  0.74823293  1
  P  P23  1  0.71181635  0.00282639  0.74823293  1
  P  P24  1  0.95438289  0.33358614  0.58323431  1
  P  P25  1  0.37920425  0.04561711  0.58323431  1
  P  P26  1  0.66641386  0.62079575  0.58323431  1
  P  P27  1  0.95837561  0.62736253  0.08387691  1
  P  P28  1  0.66898793  0.04162439  0.08387691  1
  P  P29  1  0.37263747  0.33101207  0.08387691  1
  P  P30  1  0.62530740  0.66676760  0.91649629  1
  P  P31  1  0.04145920  0.37469260  0.91649629  1
  P  P32  1  0.33323240  0.95854080  0.91649629  1
  P  P33  1  0.61838207  0.95423181  0.41713821  1
  P  P34  1  0.33584874  0.38161793  0.41713821  1
  P  P35  1  0.04576819  0.66415126  0.41713821  1
  O  O36  1  0.21412160  0.03636767  0.30590584  1
  O  O37  1  0.82224607  0.78587840  0.30590584  1
  O  O38  1  0.96363233  0.17775393  0.30590584  1
  O  O39  1  0.21722804  0.17846615  0.80547979  1
  O  O40  1  0.96123811  0.78277196  0.80547979  1
  O  O41  1  0.82153385  0.03876189  0.80547979  1
  O  O42  1  0.80175833  0.97128838  0.69422536  1
  O  O43  1  0.16953005  0.19824167  0.69422536  1
  O  O44  1  0.02871162  0.83046995  0.69422536  1
  O  O45  1  0.79849534  0.82962878  0.19450101  1
  O  O46  1  0.03113344  0.20150466  0.19450101  1
  O  O47  1  0.17037122  0.96886656  0.19450101  1
  O  O48  1  0.86705101  0.36372623  0.63847147  1
  O  O49  1  0.49667623  0.13294899  0.63847147  1
  O  O50  1  0.63627377  0.50332377  0.63847147  1
  O  O51  1  0.88114764  0.51091814  0.13931343  1
  O  O52  1  0.62977150  0.11885236  0.13931343  1
  O  O53  1  0.48908186  0.37022850  0.13931343  1
  O  O54  1  0.44857466  0.29365872  0.02761728  1
  O  O55  1  0.84508506  0.55142534  0.02761728  1
  O  O56  1  0.70634128  0.15491494  0.02761728  1
  O  O57  1  0.46667819  0.16370203  0.52805625  1
  O  O58  1  0.69702484  0.53332181  0.52805625  1
  O  O59  1  0.83629797  0.30297516  0.52805625  1
  O  O60  1  0.54784761  0.70308127  0.97276480  1
  O  O61  1  0.15523265  0.45215239  0.97276480  1
  O  O62  1  0.29691873  0.84476735  0.97276480  1
  O  O63  1  0.53109209  0.83622036  0.47222126  1
  O  O64  1  0.30512726  0.46890791  0.47222126  1
  O  O65  1  0.16377964  0.69487274  0.47222126  1
  O  O66  1  0.13306586  0.63635481  0.36122012  1
  O  O67  1  0.50328794  0.86693414  0.36122012  1
  O  O68  1  0.36364519  0.49671206  0.36122012  1
  O  O69  1  0.11880068  0.48871629  0.86036053  1
  O  O70  1  0.36991461  0.88119932  0.86036053  1
  O  O71  1  0.51128371  0.63008539  0.86036053  1
  O  O72  1  0.02703650  0.83231438  0.41202534  1
  O  O73  1  0.80527788  0.97296350  0.41202534  1
  O  O74  1  0.16768562  0.19472212  0.41202534  1
  O  O75  1  0.02391667  0.18927868  0.91151979  1
  O  O76  1  0.16536201  0.97608333  0.91151979  1
  O  O77  1  0.81072132  0.83463799  0.91151979  1
  O  O78  1  0.97376617  0.16650068  0.59157287  1
  O  O79  1  0.19273451  0.02623383  0.59157287  1
  O  O80  1  0.83349932  0.80726549  0.59157287  1
  O  O81  1  0.97657286  0.81267344  0.09206214  1
  O  O82  1  0.83610058  0.02342714  0.09206214  1
  O  O83  1  0.18732656  0.16389942  0.09206214  1
  O  O84  1  0.69111503  0.16823717  0.74014824  1
  O  O85  1  0.47712314  0.30888497  0.74014824  1
  O  O86  1  0.83176283  0.52287686  0.74014824  1
  O  O87  1  0.68900957  0.52466427  0.24384425  1
  O  O88  1  0.83565570  0.31099043  0.24384425  1
  O  O89  1  0.47533573  0.16434430  0.24384425  1
  O  O90  1  0.64265307  0.49863078  0.92171956  1
  O  O91  1  0.85597871  0.35734693  0.92171956  1
  O  O92  1  0.50136922  0.14402129  0.92171956  1
  O  O93  1  0.63847895  0.14052911  0.42501421  1
  O  O94  1  0.50205116  0.36152105  0.42501421  1
  O  O95  1  0.85947089  0.49794884  0.42501421  1
  O  O96  1  0.35463081  0.49892128  0.07831933  1
  O  O97  1  0.14428948  0.64536919  0.07831933  1
  O  O98  1  0.50107872  0.85571052  0.07831933  1
  O  O99  1  0.35933577  0.85941277  0.57496996  1
  O  O100  1  0.50007601  0.64066423  0.57496996  1
  O  O101  1  0.14058723  0.49992399  0.57496996  1
  O  O102  1  0.30648719  0.83021674  0.25739032  1
  O  O103  1  0.52372855  0.69351281  0.25739032  1
  O  O104  1  0.16978326  0.47627145  0.25739032  1
  O  O105  1  0.30736985  0.47422995  0.75338876  1
  O  O106  1  0.16685910  0.69263015  0.75338876  1
  O  O107  1  0.52577005  0.83314090  0.75338876  1
