# generated using pymatgen
data_Na5ZnSiGe3P5O24
_symmetry_space_group_name_H-M   'P 1'
_cell_length_a   8.67644596
_cell_length_b   8.64859847
_cell_length_c   21.68846389
_cell_angle_alpha   90.10626367
_cell_angle_beta   89.89261221
_cell_angle_gamma   119.91002554
_symmetry_Int_Tables_number   1
_chemical_formula_structural   Na5ZnSiGe3P5O24
_chemical_formula_sum   'Na15 Zn3 Si3 Ge9 P15 O72'
_cell_volume   1410.71425609
_cell_formula_units_Z   3
loop_
 _symmetry_equiv_pos_site_id
 _symmetry_equiv_pos_as_xyz
  1  'x, y, z'
loop_
 _atom_site_type_symbol
 _atom_site_label
 _atom_site_symmetry_multiplicity
 _atom_site_fract_x
 _atom_site_fract_y
 _atom_site_fract_z
 _atom_site_occupancy
  Na  Na0  1  0.64001240  0.00949837  0.24586584  1
  Na  Na1  1  0.37014178  0.36084835  0.24590552  1
  Na  Na2  1  0.99088223  0.63127307  0.24632871  1
  Na  Na3  1  0.63105231  0.62365054  0.74848596  1
  Na  Na4  1  0.99285902  0.36926379  0.74846692  1
  Na  Na5  1  0.37807186  0.00826828  0.74602918  1
  Na  Na6  1  0.66238696  0.97352320  0.58361926  1
  Na  Na7  1  0.33307871  0.30265069  0.92128647  1
  Na  Na8  1  0.32608950  0.03416165  0.41508185  1
  Na  Na9  1  0.99975070  0.00023678  0.49624338  1
  Na  Na10  1  0.98877081  0.99206117  0.00128236  1
  Na  Na11  1  0.67580327  0.33575327  0.83693543  1
  Na  Na12  1  0.67579709  0.34172623  0.33228211  1
  Na  Na13  1  0.33360605  0.66735118  0.16072401  1
  Na  Na14  1  0.32474071  0.66191896  0.66253813  1
  Zn  Zn15  1  0.99362212  0.99945367  0.35413415  1
  Zn  Zn16  1  0.66407340  0.32989213  0.67769987  1
  Zn  Zn17  1  0.66884721  0.33420301  0.17604472  1
  Si  Si18  1  0.37013050  0.03876522  0.58280230  1
  Si  Si19  1  0.62516921  0.66894408  0.91819750  1
  Si  Si20  1  0.03961134  0.37872399  0.91760729  1
  Ge  Ge21  1  0.99317915  0.99681071  0.85859166  1
  Ge  Ge22  1  0.00727675  0.00007454  0.64363122  1
  Ge  Ge23  1  0.99853629  0.00053243  0.14436132  1
  Ge  Ge24  1  0.67738832  0.34084247  0.98215933  1
  Ge  Ge25  1  0.66651841  0.33629271  0.48244664  1
  Ge  Ge26  1  0.33565776  0.66429554  0.01826886  1
  Ge  Ge27  1  0.32985984  0.66565486  0.51930800  1
  Ge  Ge28  1  0.33160979  0.66424862  0.31606403  1
  Ge  Ge29  1  0.33038852  0.66193359  0.82064908  1
  P  P30  1  0.28842757  0.99733103  0.25194025  1
  P  P31  1  0.70964901  0.71186543  0.25105778  1
  P  P32  1  0.00256792  0.29059640  0.25100421  1
  P  P33  1  0.28150350  0.28626371  0.75179487  1
  P  P34  1  0.00513986  0.71889082  0.75189707  1
  P  P35  1  0.71340310  0.99607489  0.75140826  1
  P  P36  1  0.96351861  0.33789753  0.58362513  1
  P  P37  1  0.66550021  0.62437897  0.58353478  1
  P  P38  1  0.96599606  0.63060804  0.08338885  1
  P  P39  1  0.66364906  0.03682310  0.08298564  1
  P  P40  1  0.37105619  0.33361614  0.08333223  1
  P  P41  1  0.33404363  0.95284890  0.91705476  1
  P  P42  1  0.62242616  0.95624293  0.41857688  1
  P  P43  1  0.34024695  0.38541065  0.41858556  1
  P  P44  1  0.03936617  0.65640900  0.41843165  1
  O  O45  1  0.21508735  0.03117140  0.31086047  1
  O  O46  1  0.82346990  0.78708184  0.30756046  1
  O  O47  1  0.96643960  0.17829589  0.30773306  1
  O  O48  1  0.19799255  0.16746707  0.80942049  1
  O  O49  1  0.97156758  0.80652484  0.80830430  1
  O  O50  1  0.83727621  0.02978311  0.80667807  1
  O  O51  1  0.79183767  0.95856061  0.69138603  1
  O  O52  1  0.15922423  0.20287759  0.69428305  1
  O  O53  1  0.04179353  0.83740977  0.69331047  1
  O  O54  1  0.79039006  0.83627761  0.19299564  1
  O  O55  1  0.04527161  0.20929881  0.19275852  1
  O  O56  1  0.16266218  0.95619505  0.19500585  1
  O  O57  1  0.89792841  0.37487868  0.64386451  1
  O  O58  1  0.48833161  0.10178639  0.64451947  1
  O  O59  1  0.63185409  0.52429556  0.64381533  1
  O  O60  1  0.89814140  0.52834207  0.14307395  1
  O  O61  1  0.63236491  0.10511502  0.14334593  1
  O  O62  1  0.47433193  0.36482648  0.14240954  1
  O  O63  1  0.45860226  0.29964068  0.02499138  1
  O  O64  1  0.83950669  0.54199441  0.02714036  1
  O  O65  1  0.69873928  0.16332414  0.02673172  1
  O  O66  1  0.46516399  0.16718316  0.52209231  1
  O  O67  1  0.70562493  0.53970420  0.52726909  1
  O  O68  1  0.83272722  0.29444459  0.52835342  1
  O  O69  1  0.53250372  0.70763023  0.97522232  1
  O  O70  1  0.17872015  0.46786111  0.97341947  1
  O  O71  1  0.29550899  0.83108000  0.97217860  1
  O  O72  1  0.53010373  0.84071260  0.47602728  1
  O  O73  1  0.31189482  0.47699475  0.47459203  1
  O  O74  1  0.16646431  0.69250791  0.47326537  1
  O  O75  1  0.12091969  0.62431016  0.35769592  1
  O  O76  1  0.49800369  0.87430871  0.35978361  1
  O  O77  1  0.37130369  0.49730725  0.35795126  1
  O  O78  1  0.12076215  0.49750786  0.85329064  1
  O  O79  1  0.37005523  0.87594356  0.85598765  1
  O  O80  1  0.49827495  0.62165609  0.85474214  1
  O  O81  1  0.02587671  0.82369473  0.41473997  1
  O  O82  1  0.80281614  0.97475716  0.41513976  1
  O  O83  1  0.18126806  0.19907535  0.41558983  1
  O  O84  1  0.03282885  0.18544588  0.90875242  1
  O  O85  1  0.16896464  0.97758195  0.90907877  1
  O  O86  1  0.82161043  0.84216391  0.90971486  1
  O  O87  1  0.97019755  0.15956279  0.58889831  1
  O  O88  1  0.17424085  0.02240825  0.58853633  1
  O  O89  1  0.83069006  0.81849094  0.58832108  1
  O  O90  1  0.98142558  0.81928725  0.08862475  1
  O  O91  1  0.83597246  0.01973892  0.08751143  1
  O  O92  1  0.18216253  0.16084184  0.08779327  1
  O  O93  1  0.69298932  0.16095444  0.74861055  1
  O  O94  1  0.46759207  0.31041460  0.74758138  1
  O  O95  1  0.84259169  0.53302031  0.74750030  1
  O  O96  1  0.67849002  0.52296027  0.24316377  1
  O  O97  1  0.84505973  0.32141077  0.24355798  1
  O  O98  1  0.47570641  0.15567971  0.24432069  1
  O  O99  1  0.63436637  0.48451033  0.92546972  1
  O  O100  1  0.84285587  0.35337254  0.92513296  1
  O  O101  1  0.49672192  0.14116794  0.92331284  1
  O  O102  1  0.63082061  0.14217464  0.42303904  1
  O  O103  1  0.51390919  0.37104108  0.42293232  1
  O  O104  1  0.85535105  0.48411806  0.42551779  1
  O  O105  1  0.35119684  0.50120766  0.07536211  1
  O  O106  1  0.15244931  0.65155310  0.07283854  1
  O  O107  1  0.49530549  0.85092711  0.07393665  1
  O  O108  1  0.35216288  0.84017388  0.57319845  1
  O  O109  1  0.50165051  0.64997127  0.57395450  1
  O  O110  1  0.15113716  0.49700565  0.57324507  1
  O  O111  1  0.30302472  0.82028875  0.25660593  1
  O  O112  1  0.51904060  0.69803232  0.25677013  1
  O  O113  1  0.17950981  0.48141922  0.25599642  1
  O  O114  1  0.29762106  0.47547607  0.75538630  1
  O  O115  1  0.17859409  0.70448596  0.75612326  1
  O  O116  1  0.52488214  0.82454255  0.75669080  1
