# generated using pymatgen
data_Na14Ca5Sn3(PO4)12
_symmetry_space_group_name_H-M   'P 1'
_cell_length_a   18.57417562
_cell_length_b   9.29603930
_cell_length_c   22.63478138
_cell_angle_alpha   89.99188641
_cell_angle_beta   90.00347234
_cell_angle_gamma   119.82343574
_symmetry_Int_Tables_number   1
_chemical_formula_structural   Na14Ca5Sn3(PO4)12
_chemical_formula_sum   'Na42 Ca15 Sn9 P36 O144'
_cell_volume   3390.66100314
_cell_formula_units_Z   3
loop_
 _symmetry_equiv_pos_site_id
 _symmetry_equiv_pos_as_xyz
  1  'x, y, z'
loop_
 _atom_site_type_symbol
 _atom_site_label
 _atom_site_symmetry_multiplicity
 _atom_site_fract_x
 _atom_site_fract_y
 _atom_site_fract_z
 _atom_site_occupancy
  Na  Na0  1  0.18532846  0.35827834  0.24589903  1
  Na  Na1  1  0.68665264  0.36139297  0.24643853  1
  Na  Na2  1  0.99392132  0.63546153  0.24714455  1
  Na  Na3  1  0.49411380  0.63413322  0.24570690  1
  Na  Na4  1  0.31939468  0.62784212  0.74602224  1
  Na  Na5  1  0.82030572  0.62697059  0.74642001  1
  Na  Na6  1  0.18224320  0.01188335  0.74640589  1
  Na  Na7  1  0.68176446  0.01246764  0.74553605  1
  Na  Na8  1  0.15892313  0.34086348  0.57933256  1
  Na  Na9  1  0.65907754  0.34130089  0.57939284  1
  Na  Na10  1  0.01152391  0.68212398  0.57966416  1
  Na  Na11  1  0.51149068  0.68178801  0.57971228  1
  Na  Na12  1  0.32867619  0.97413868  0.57829939  1
  Na  Na13  1  0.82880210  0.97387362  0.57891464  1
  Na  Na14  1  0.15439161  0.97139837  0.07903552  1
  Na  Na15  1  0.65735053  0.96862532  0.08090336  1
  Na  Na16  1  0.32951072  0.68022080  0.08010156  1
  Na  Na17  1  0.01460858  0.34669730  0.08024705  1
  Na  Na18  1  0.51473141  0.34539260  0.07744470  1
  Na  Na19  1  0.48258065  0.67034575  0.91636654  1
  Na  Na20  1  0.99047490  0.67846177  0.91341613  1
  Na  Na21  1  0.35337411  0.03816499  0.91653876  1
  Na  Na22  1  0.16483259  0.28951812  0.91640205  1
  Na  Na23  1  0.66257129  0.29688539  0.91324512  1
  Na  Na24  1  0.48131696  0.29371608  0.41745082  1
  Na  Na25  1  0.98135000  0.29361159  0.41697429  1
  Na  Na26  1  0.16496235  0.03690551  0.41632317  1
  Na  Na27  1  0.66519027  0.03708098  0.41655700  1
  Na  Na28  1  0.35325329  0.66732672  0.41651076  1
  Na  Na29  1  0.85354732  0.66782404  0.41602307  1
  Na  Na30  1  0.99947641  0.00048192  0.49714700  1
  Na  Na31  1  0.49958846  0.00069701  0.49732890  1
  Na  Na32  1  0.98161982  0.98417673  0.99712155  1
  Na  Na33  1  0.49970001  0.00065926  0.99816730  1
  Na  Na34  1  0.34206113  0.33349691  0.83266873  1
  Na  Na35  1  0.84341412  0.31845762  0.83060046  1
  Na  Na36  1  0.33288021  0.31609678  0.33310422  1
  Na  Na37  1  0.83369218  0.31642252  0.33343858  1
  Na  Na38  1  0.17446933  0.68063143  0.16567369  1
  Na  Na39  1  0.68282931  0.68464437  0.16223027  1
  Na  Na40  1  0.15946617  0.65362813  0.66440626  1
  Na  Na41  1  0.65893776  0.65180759  0.66498330  1
  Ca  Ca42  1  0.99789431  0.00135386  0.34689699  1
  Ca  Ca43  1  0.49766421  0.00059009  0.34730073  1
  Ca  Ca44  1  0.99532565  0.00319071  0.85160963  1
  Ca  Ca45  1  0.50020628  0.00485809  0.84802777  1
  Ca  Ca46  1  0.33704725  0.33253814  0.68358313  1
  Ca  Ca47  1  0.83716693  0.33341260  0.68282816  1
  Ca  Ca48  1  0.33341923  0.32547026  0.18296178  1
  Ca  Ca49  1  0.83389338  0.33100554  0.18487251  1
  Ca  Ca50  1  0.33292319  0.33227801  0.98677398  1
  Ca  Ca51  1  0.33375274  0.33352809  0.48678263  1
  Ca  Ca52  1  0.83386136  0.33366528  0.48675054  1
  Ca  Ca53  1  0.16709549  0.66687888  0.01712555  1
  Ca  Ca54  1  0.67158389  0.66805726  0.01778006  1
  Ca  Ca55  1  0.16713293  0.66751665  0.51667427  1
  Ca  Ca56  1  0.66724918  0.66766591  0.51672381  1
  Sn  Sn57  1  0.99919537  0.00335407  0.65659556  1
  Sn  Sn58  1  0.50010447  0.00417795  0.65704880  1
  Sn  Sn59  1  0.99355934  0.99430649  0.15238227  1
  Sn  Sn60  1  0.50024076  0.00103684  0.15504806  1
  Sn  Sn61  1  0.83349248  0.33166748  0.98459503  1
  Sn  Sn62  1  0.16866695  0.67075542  0.31441253  1
  Sn  Sn63  1  0.66896683  0.67150343  0.31472866  1
  Sn  Sn64  1  0.16128683  0.65923276  0.81611569  1
  Sn  Sn65  1  0.66982410  0.66887938  0.81770352  1
  P  P66  1  0.14547704  0.98627887  0.25064045  1
  P  P67  1  0.64751212  0.98829513  0.25258756  1
  P  P68  1  0.34542042  0.70139961  0.25108710  1
  P  P69  1  0.84568588  0.70416833  0.25210022  1
  P  P70  1  0.00754575  0.31297936  0.25193962  1
  P  P71  1  0.50851716  0.31421977  0.25169156  1
  P  P72  1  0.14773747  0.30707444  0.75303131  1
  P  P73  1  0.65026701  0.31179580  0.75201464  1
  P  P74  1  0.00548691  0.70697693  0.75315174  1
  P  P75  1  0.50714191  0.70619415  0.75371180  1
  P  P76  1  0.34211978  0.98299630  0.75348094  1
  P  P77  1  0.84360825  0.98509599  0.75107292  1
  P  P78  1  0.48682915  0.32065062  0.58410186  1
  P  P79  1  0.98703396  0.32093918  0.58403954  1
  P  P80  1  0.17296961  0.02703756  0.58817781  1
  P  P81  1  0.67294585  0.02689169  0.58802473  1
  P  P82  1  0.33994543  0.65316367  0.58853546  1
  P  P83  1  0.83993923  0.65310543  0.58824530  1
  P  P84  1  0.48641645  0.65168164  0.08768439  1
  P  P85  1  0.97979234  0.64315493  0.08448872  1
  P  P86  1  0.34050398  0.02720373  0.08399400  1
  P  P87  1  0.83949895  0.04434829  0.08401773  1
  P  P88  1  0.17260014  0.31764109  0.08836087  1
  P  P89  1  0.67853316  0.31813937  0.08636321  1
  P  P90  1  0.31287781  0.65991507  0.91418684  1
  P  P91  1  0.81440509  0.64898418  0.91636012  1
  P  P92  1  0.01371660  0.37476170  0.92059370  1
  P  P93  1  0.51875281  0.37799912  0.91669524  1
  P  P94  1  0.16949643  0.96643599  0.91380757  1
  P  P95  1  0.67317661  0.97255114  0.91817662  1
  P  P96  1  0.31322856  0.96522356  0.41624291  1
  P  P97  1  0.81350257  0.96565099  0.41638282  1
  P  P98  1  0.16953189  0.37310118  0.41395542  1
  P  P99  1  0.66948483  0.37305165  0.41398569  1
  P  P100  1  0.01740416  0.66209889  0.41375180  1
  P  P101  1  0.51736390  0.66171348  0.41371352  1
  O  O102  1  0.10652771  0.00289109  0.30713588  1
  O  O103  1  0.60704406  0.00352194  0.30837535  1
  O  O104  1  0.39422042  0.77743594  0.30698807  1
  O  O105  1  0.89269779  0.77556770  0.30895168  1
  O  O106  1  0.49994718  0.21989194  0.30789839  1
  O  O107  1  0.99974935  0.22156145  0.30878877  1
  O  O108  1  0.10892781  0.20694998  0.80817213  1
  O  O109  1  0.61148743  0.21188049  0.80742229  1
  O  O110  1  0.49759544  0.78453082  0.80964842  1
  O  O111  1  0.99903293  0.78991035  0.80853273  1
  O  O112  1  0.38933673  0.00028923  0.80976329  1
  O  O113  1  0.89480542  0.00267798  0.80410190  1
  O  O114  1  0.38927249  0.96165111  0.69792953  1
  O  O115  1  0.88531501  0.96081340  0.69296295  1
  O  O116  1  0.09359749  0.21932370  0.69596809  1
  O  O117  1  0.59493166  0.22207119  0.69554772  1
  O  O118  1  0.01958266  0.82376261  0.69716970  1
  O  O119  1  0.52137065  0.82545679  0.69825711  1
  O  O120  1  0.39092504  0.81211745  0.19484969  1
  O  O121  1  0.89142652  0.81949839  0.19719767  1
  O  O122  1  0.01672031  0.21746775  0.19643520  1
  O  O123  1  0.52012852  0.22168352  0.19561231  1
  O  O124  1  0.08503649  0.95536096  0.19549611  1
  O  O125  1  0.58802962  0.95893190  0.19691680  1
  O  O126  1  0.44107040  0.34890259  0.63405324  1
  O  O127  1  0.94148601  0.34905848  0.63418567  1
  O  O128  1  0.22617835  0.11108768  0.64247785  1
  O  O129  1  0.72610999  0.11118261  0.64227953  1
  O  O130  1  0.32835355  0.54590538  0.64273250  1
  O  O131  1  0.82856413  0.54662517  0.64261131  1
  O  O132  1  0.44382974  0.54690903  0.14205918  1
  O  O133  1  0.94112733  0.54128009  0.13955314  1
  O  O134  1  0.32682849  0.11829986  0.13408806  1
  O  O135  1  0.82799714  0.12576494  0.13765757  1
  O  O136  1  0.22582740  0.34083235  0.14270050  1
  O  O137  1  0.72635171  0.33593308  0.14237068  1
  O  O138  1  0.20995347  0.28808599  0.03165211  1
  O  O139  1  0.72296285  0.29173768  0.02969416  1
  O  O140  1  0.43420496  0.57761334  0.03095079  1
  O  O141  1  0.92637029  0.55372222  0.02693494  1
  O  O142  1  0.35580269  0.12116610  0.02474700  1
  O  O143  1  0.85804830  0.16305682  0.02778040  1
  O  O144  1  0.21066146  0.13119779  0.53146726  1
  O  O145  1  0.71048768  0.13092751  0.53129598  1
  O  O146  1  0.35541740  0.57959149  0.53168773  1
  O  O147  1  0.85504914  0.57861637  0.53152439  1
  O  O148  1  0.43902596  0.28801244  0.52505082  1
  O  O149  1  0.93904759  0.28846698  0.52510553  1
  O  O150  1  0.27238307  0.67415146  0.97074065  1
  O  O151  1  0.77036719  0.66643172  0.96876810  1
  O  O152  1  0.05950938  0.45001639  0.97779003  1
  O  O153  1  0.56361343  0.45356492  0.97446332  1
  O  O154  1  0.16136933  0.86797803  0.96978263  1
  O  O155  1  0.66175958  0.87147108  0.97327639  1
  O  O156  1  0.27557245  0.87525443  0.47417736  1
  O  O157  1  0.77562115  0.87531040  0.47420588  1
  O  O158  1  0.16292884  0.45590443  0.47016154  1
  O  O159  1  0.66284445  0.45602410  0.47011458  1
  O  O160  1  0.06580886  0.67638048  0.46989784  1
  O  O161  1  0.56584849  0.67633738  0.46985441  1
  O  O162  1  0.06446781  0.64773341  0.35672843  1
  O  O163  1  0.56451507  0.64747636  0.35676100  1
  O  O164  1  0.25534670  0.86607103  0.36214122  1
  O  O165  1  0.75557537  0.86680565  0.36224272  1
  O  O166  1  0.17670150  0.48182443  0.35725191  1
  O  O167  1  0.67660718  0.48153004  0.35715876  1
  O  O168  1  0.05785258  0.49654181  0.86613970  1
  O  O169  1  0.56956603  0.49645154  0.86291782  1
  O  O170  1  0.17631731  0.87085581  0.85705613  1
  O  O171  1  0.68404501  0.88716943  0.86022456  1
  O  O172  1  0.25639207  0.64358482  0.85830505  1
  O  O173  1  0.76235000  0.62510033  0.85706390  1
  O  O174  1  0.00764946  0.81767327  0.41099187  1
  O  O175  1  0.50731975  0.81695517  0.41097404  1
  O  O176  1  0.40017656  0.98265788  0.41169854  1
  O  O177  1  0.90043643  0.98320463  0.41180086  1
  O  O178  1  0.09174577  0.19862799  0.41112909  1
  O  O179  1  0.59154487  0.19872705  0.41121598  1
  O  O180  1  0.00646196  0.20577893  0.91275519  1
  O  O181  1  0.51027072  0.20452520  0.91131765  1
  O  O182  1  0.09257770  0.98794369  0.91052212  1
  O  O183  1  0.59726254  0.99789091  0.91226707  1
  O  O184  1  0.40009582  0.81570703  0.91066986  1
  O  O185  1  0.90430422  0.78844700  0.91229711  1
  O  O186  1  0.49060160  0.15477222  0.59346866  1
  O  O187  1  0.99112293  0.15541872  0.59310798  1
  O  O188  1  0.08513351  0.01678334  0.59346143  1
  O  O189  1  0.58499853  0.01649094  0.59335718  1
  O  O190  1  0.42217846  0.82876230  0.59451297  1
  O  O191  1  0.92245577  0.82831263  0.59368001  1
  O  O192  1  0.49134109  0.82754102  0.09261559  1
  O  O193  1  0.98739798  0.82063035  0.08718745  1
  O  O194  1  0.42488190  0.02226524  0.09238857  1
  O  O195  1  0.92305352  0.03762407  0.08794025  1
  O  O196  1  0.08468992  0.15144669  0.09347100  1
  O  O197  1  0.59232717  0.14734182  0.08798199  1
  O  O198  1  0.32392212  0.12500457  0.74646136  1
  O  O199  1  0.82319627  0.12460243  0.74573008  1
  O  O200  1  0.23592692  0.33394912  0.74568104  1
  O  O201  1  0.73743411  0.33366863  0.74498126  1
  O  O202  1  0.43071799  0.53673197  0.74520697  1
  O  O203  1  0.92863966  0.53694930  0.74612738  1
  O  O204  1  0.33295911  0.52594288  0.24441517  1
  O  O205  1  0.83412565  0.52997799  0.24432869  1
  O  O206  1  0.43764988  0.35077885  0.24496149  1
  O  O207  1  0.93775268  0.35355622  0.24613713  1
  O  O208  1  0.23022198  0.13958139  0.24309810  1
  O  O209  1  0.73186861  0.14239386  0.24539600  1
  O  O210  1  0.31918724  0.50017220  0.91240231  1
  O  O211  1  0.81466153  0.47652580  0.92000211  1
  O  O212  1  0.43273628  0.36557523  0.91310089  1
  O  O213  1  0.92659339  0.36938082  0.92110902  1
  O  O214  1  0.25038465  0.13653868  0.91223819  1
  O  O215  1  0.75341758  0.15106728  0.92113629  1
  O  O216  1  0.31916714  0.13719447  0.41366275  1
  O  O217  1  0.81931716  0.13751565  0.41381648  1
  O  O218  1  0.24972078  0.36082153  0.41248035  1
  O  O219  1  0.74959229  0.36059486  0.41249443  1
  O  O220  1  0.43168023  0.50116797  0.41223213  1
  O  O221  1  0.93165252  0.50170924  0.41228999  1
  O  O222  1  0.15834381  0.46764735  0.08451267  1
  O  O223  1  0.65861496  0.45797707  0.07947293  1
  O  O224  1  0.06888114  0.67225873  0.07851629  1
  O  O225  1  0.57553819  0.67938681  0.08409635  1
  O  O226  1  0.26733383  0.84644000  0.08313741  1
  O  O227  1  0.76397635  0.87349928  0.07653008  1
  O  O228  1  0.15795457  0.84802473  0.58441914  1
  O  O229  1  0.65785719  0.84785632  0.58440437  1
  O  O230  1  0.26512494  0.68216397  0.58453045  1
  O  O231  1  0.76509097  0.68199514  0.58437647  1
  O  O232  1  0.07707544  0.46771059  0.58256446  1
  O  O233  1  0.57689127  0.46733696  0.58258595  1
  O  O234  1  0.14930952  0.81901077  0.25098220  1
  O  O235  1  0.65063551  0.82092703  0.25188019  1
  O  O236  1  0.25670944  0.68609441  0.25156561  1
  O  O237  1  0.75666940  0.68693780  0.25185685  1
  O  O238  1  0.09367938  0.48452493  0.25044373  1
  O  O239  1  0.59388042  0.48586559  0.25084443  1
  O  O240  1  0.15464625  0.48407889  0.75436171  1
  O  O241  1  0.65862952  0.48925213  0.75336253  1
  O  O242  1  0.08911195  0.69902236  0.75239331  1
  O  O243  1  0.59203057  0.70375673  0.75468485  1
  O  O244  1  0.25623218  0.81221610  0.75224369  1
  O  O245  1  0.75762995  0.81295807  0.75290954  1
