# generated using pymatgen
data_Na3AlIn(PO4)3
_symmetry_space_group_name_H-M   'P 1'
_cell_length_a   15.37750226
_cell_length_b   8.85646871
_cell_length_c   8.86058934
_cell_angle_alpha   90.18948212
_cell_angle_beta   124.86701449
_cell_angle_gamma   89.86516721
_symmetry_Int_Tables_number   1
_chemical_formula_structural   Na3AlIn(PO4)3
_chemical_formula_sum   'Na12 Al4 In4 P12 O48'
_cell_volume   990.09109101
_cell_formula_units_Z   4
loop_
 _symmetry_equiv_pos_site_id
 _symmetry_equiv_pos_as_xyz
  1  'x, y, z'
loop_
 _atom_site_type_symbol
 _atom_site_label
 _atom_site_symmetry_multiplicity
 _atom_site_fract_x
 _atom_site_fract_y
 _atom_site_fract_z
 _atom_site_occupancy
  Na  Na0  1  0.24129839  0.76969911  0.99054074  1
  Na  Na1  1  0.74855175  0.72405535  0.50249890  1
  Na  Na2  1  0.75021236  0.27190969  0.00387362  1
  Na  Na3  1  0.24144627  0.22319056  0.49228207  1
  Na  Na4  1  0.50209141  0.09962425  0.75241095  1
  Na  Na5  1  0.50319323  0.90086169  0.24559988  1
  Na  Na6  1  0.00421153  0.61290614  0.74987604  1
  Na  Na7  1  0.00056597  0.38472257  0.24402521  1
  Na  Na8  1  0.81694178  0.93323220  0.22348560  1
  Na  Na9  1  0.81450782  0.07221467  0.71764945  1
  Na  Na10  1  0.30260865  0.43254602  0.19968931  1
  Na  Na11  1  0.30987897  0.56289419  0.72247304  1
  Al  Al12  1  0.89926241  0.74988921  0.94398432  1
  Al  Al13  1  0.89879709  0.25115197  0.44249954  1
  Al  Al14  1  0.10008078  0.24564559  0.04937936  1
  Al  Al15  1  0.39557585  0.25062178  0.94092792  1
  In  In16  1  0.10187827  0.76071502  0.54928933  1
  In  In17  1  0.60117177  0.25785006  0.55321897  1
  In  In18  1  0.39621262  0.74906894  0.43849761  1
  In  In19  1  0.60402097  0.74177779  0.05280018  1
  P  P20  1  0.99789543  0.96457153  0.75075246  1
  P  P21  1  -0.00008905  0.05034208  0.24098117  1
  P  P22  1  0.49330269  0.43839494  0.74891925  1
  P  P23  1  0.49607281  0.54562489  0.23896324  1
  P  P24  1  0.35415371  0.90755758  0.76357799  1
  P  P25  1  0.65894678  0.89083269  0.74788017  1
  P  P26  1  0.65318641  0.11282184  0.24575495  1
  P  P27  1  0.34799424  0.10824898  0.24300260  1
  P  P28  1  0.86322206  0.40134926  0.75539478  1
  P  P29  1  0.14598453  0.38318320  0.74742769  1
  P  P30  1  0.14297674  0.59917095  0.23456489  1
  P  P31  1  0.85855362  0.59681709  0.25597867  1
  O  O32  1  0.15581695  0.55988843  0.74643140  1
  O  O33  1  0.85824170  0.57694902  0.76497475  1
  O  O34  1  0.85644537  0.42175012  0.26520437  1
  O  O35  1  0.14927009  0.42399618  0.21825070  1
  O  O36  1  0.67060303  0.06565050  0.74572339  1
  O  O37  1  0.34908112  0.08047555  0.77648032  1
  O  O38  1  0.34403034  0.93348410  0.23577679  1
  O  O39  1  0.66545009  0.93754782  0.24148100  1
  O  O40  1  0.42261326  0.53016907  0.56949341  1
  O  O41  1  0.55876483  0.53901413  0.91721581  1
  O  O42  1  0.55693894  0.46245239  0.42331209  1
  O  O43  1  0.43747705  0.43960560  0.06985276  1
  O  O44  1  0.92815025  0.05847732  0.57016185  1
  O  O45  1  0.05833596  0.07061978  0.91649309  1
  O  O46  1  0.07720892  0.96665670  0.42087431  1
  O  O47  1  0.92975448  0.93926377  0.07907299  1
  O  O48  1  0.26217563  0.82383396  0.75083888  1
  O  O49  1  0.75585872  0.81575833  0.76749827  1
  O  O50  1  0.75066319  0.18465939  0.26252929  1
  O  O51  1  0.24774499  0.17831822  0.21808107  1
  O  O52  1  0.76993182  0.32727811  0.74896174  1
  O  O53  1  0.24518483  0.31932873  0.76438798  1
  O  O54  1  0.23434249  0.66893238  0.23354406  1
  O  O55  1  0.76422782  0.67078719  0.24472063  1
  O  O56  1  0.35698500  0.87611622  0.59459595  1
  O  O57  1  0.65747300  0.86487591  0.91838624  1
  O  O58  1  0.65800838  0.13616447  0.42377542  1
  O  O59  1  0.36439927  0.16322523  0.09573543  1
  O  O60  1  0.86366502  0.35984849  0.58525019  1
  O  O61  1  0.14392243  0.34908396  0.91646817  1
  O  O62  1  0.15690340  0.62123666  0.42135168  1
  O  O63  1  0.86585571  0.64221759  0.09492003  1
  O  O64  1  0.45499773  0.84695407  0.94030792  1
  O  O65  1  0.55636401  0.83692003  0.56756284  1
  O  O66  1  0.54686097  0.16928394  0.07527913  1
  O  O67  1  0.44416495  0.16030871  0.43546903  1
  O  O68  1  0.96572393  0.34070144  0.93017295  1
  O  O69  1  0.04297265  0.32501804  0.56836322  1
  O  O70  1  0.03769076  0.66795574  0.07413235  1
  O  O71  1  0.95562571  0.65726176  0.44088788  1
  O  O72  1  0.07611999  0.85572414  0.74871286  1
  O  O73  1  0.92107241  0.86121956  0.76826544  1
  O  O74  1  0.92049822  0.14774335  0.25932581  1
  O  O75  1  0.06863245  0.16135872  0.21528261  1
  O  O76  1  0.57328765  0.32815841  0.75270552  1
  O  O77  1  0.41289781  0.34078364  0.76094122  1
  O  O78  1  0.40689485  0.64282596  0.22607465  1
  O  O79  1  0.57596398  0.65662531  0.24647261  1
