# generated using pymatgen
data_Na3Mg3ZrPS5O24
_symmetry_space_group_name_H-M   'P 1'
_cell_length_a   8.82179000
_cell_length_b   8.80060550
_cell_length_c   22.90572006
_cell_angle_alpha   90.10135045
_cell_angle_beta   89.99335668
_cell_angle_gamma   120.25810762
_symmetry_Int_Tables_number   1
_chemical_formula_structural   Na3Mg3ZrPS5O24
_chemical_formula_sum   'Na9 Mg9 Zr3 P3 S15 O72'
_cell_volume   1536.05783628
_cell_formula_units_Z   3
loop_
 _symmetry_equiv_pos_site_id
 _symmetry_equiv_pos_as_xyz
  1  'x, y, z'
loop_
 _atom_site_type_symbol
 _atom_site_label
 _atom_site_symmetry_multiplicity
 _atom_site_fract_x
 _atom_site_fract_y
 _atom_site_fract_z
 _atom_site_occupancy
  Na  Na0  1  0.36288481  0.36325539  0.25099073  1
  Na  Na1  1  0.02568887  0.69778012  0.58546703  1
  Na  Na2  1  0.30035289  0.96647127  0.08035789  1
  Na  Na3  1  0.99073851  0.00199563  0.50067680  1
  Na  Na4  1  0.99877352  0.00792738  0.99225021  1
  Na  Na5  1  0.66594621  0.32780465  0.82725612  1
  Na  Na6  1  0.67767519  0.33111811  0.33067433  1
  Na  Na7  1  0.33270849  0.66593919  0.16768924  1
  Na  Na8  1  0.35251585  0.66400383  0.66345221  1
  Mg  Mg9  1  0.99498331  0.99679230  0.35065893  1
  Mg  Mg10  1  0.00704678  0.00752460  0.85204689  1
  Mg  Mg11  1  0.99204118  0.00057628  0.65000883  1
  Mg  Mg12  1  0.99074290  0.99791364  0.15162705  1
  Mg  Mg13  1  0.66101800  0.33645991  0.68517176  1
  Mg  Mg14  1  0.67675047  0.33577636  0.18507200  1
  Mg  Mg15  1  0.32851893  0.66034061  0.01392603  1
  Mg  Mg16  1  0.34807518  0.66675180  0.51765485  1
  Mg  Mg17  1  0.33383638  0.67505719  0.31657477  1
  Zr  Zr18  1  0.67118770  0.33079794  0.97677770  1
  Zr  Zr19  1  0.66634771  0.33926186  0.48177710  1
  Zr  Zr20  1  0.32706330  0.66835359  0.81417631  1
  P  P21  1  0.66485641  0.63097769  0.58692324  1
  P  P22  1  0.04649482  0.36835544  0.91843897  1
  P  P23  1  0.32193172  0.95399356  0.92008411  1
  S  S24  1  0.29220301  0.99853771  0.24888992  1
  S  S25  1  0.70614861  0.70641881  0.25017502  1
  S  S26  1  0.99953848  0.29232831  0.25052296  1
  S  S27  1  0.29196901  0.28653765  0.74920769  1
  S  S28  1  0.99365976  0.70804013  0.74882221  1
  S  S29  1  0.71317495  0.00597442  0.74974365  1
  S  S30  1  0.96130491  0.33288258  0.58489407  1
  S  S31  1  0.37174924  0.03787801  0.58541101  1
  S  S32  1  0.96192659  0.62905111  0.08570115  1
  S  S33  1  0.66772728  0.03788017  0.08541438  1
  S  S34  1  0.37263414  0.33605110  0.08625360  1
  S  S35  1  0.62805538  0.67361318  0.91775084  1
  S  S36  1  0.62639333  0.95515246  0.41583353  1
  S  S37  1  0.32622830  0.37226290  0.41468148  1
  S  S38  1  0.04782917  0.67303293  0.41691230  1
  O  O39  1  0.20813653  0.02911093  0.30006056  1
  O  O40  1  0.81269202  0.78769218  0.30255917  1
  O  O41  1  0.97455144  0.18535048  0.30293626  1
  O  O42  1  0.20975648  0.18531196  0.80216945  1
  O  O43  1  0.97600048  0.79343588  0.80090169  1
  O  O44  1  0.81449753  0.02497975  0.80266985  1
  O  O45  1  0.78887694  0.97605338  0.69679519  1
  O  O46  1  0.18543376  0.20906756  0.69635683  1
  O  O47  1  0.02374779  0.81085476  0.69461671  1
  O  O48  1  0.78603222  0.81124551  0.19737483  1
  O  O49  1  0.03088420  0.21275851  0.19791651  1
  O  O50  1  0.18998048  0.97434106  0.19448630  1
  O  O51  1  0.87750015  0.36129070  0.63563976  1
  O  O52  1  0.48215073  0.12002668  0.63594226  1
  O  O53  1  0.64285792  0.51456756  0.63856585  1
  O  O54  1  0.87585384  0.51977154  0.13690081  1
  O  O55  1  0.63723938  0.12267434  0.13606641  1
  O  O56  1  0.47752532  0.35794257  0.13939943  1
  O  O57  1  0.45951736  0.30660906  0.03414828  1
  O  O58  1  0.85392788  0.54500126  0.03228361  1
  O  O59  1  0.69216730  0.14747054  0.03180183  1
  O  O60  1  0.45710744  0.14629703  0.53109894  1
  O  O61  1  0.69439606  0.53792369  0.53033142  1
  O  O62  1  0.85009830  0.30505118  0.53069188  1
  O  O63  1  0.54636268  0.69478313  0.97035038  1
  O  O64  1  0.15281194  0.45419305  0.97267950  1
  O  O65  1  0.30843946  0.85605586  0.97655219  1
  O  O66  1  0.54421269  0.85333748  0.46873298  1
  O  O67  1  0.30703651  0.45701024  0.46689624  1
  O  O68  1  0.14437358  0.69086729  0.47140760  1
  O  O69  1  0.12773907  0.64381466  0.36517124  1
  O  O70  1  0.51982589  0.87812295  0.36321219  1
  O  O71  1  0.35753527  0.47661680  0.36091064  1
  O  O72  1  0.13041236  0.48589699  0.86297172  1
  O  O73  1  0.35919568  0.86938864  0.86557577  1
  O  O74  1  0.51750774  0.64018420  0.86470955  1
  O  O75  1  0.02325586  0.82614145  0.41035437  1
  O  O76  1  0.80379762  0.97828950  0.40994087  1
  O  O77  1  0.17238314  0.19372970  0.40918570  1
  O  O78  1  0.01516990  0.18442753  0.90990949  1
  O  O79  1  0.16325979  0.97393106  0.91056482  1
  O  O80  1  0.80295499  0.82552025  0.90980319  1
  O  O81  1  0.98130809  0.17780214  0.58936979  1
  O  O82  1  0.19618394  0.02144556  0.58948468  1
  O  O83  1  0.83947698  0.81035052  0.58856304  1
  O  O84  1  0.98291760  0.80756350  0.09045631  1
  O  O85  1  0.82524991  0.02254531  0.09074714  1
  O  O86  1  0.19801063  0.17143600  0.09047332  1
  O  O87  1  0.68897527  0.15983361  0.74347496  1
  O  O88  1  0.46920332  0.30874823  0.74407827  1
  O  O89  1  0.84129911  0.52823871  0.74397763  1
  O  O90  1  0.68141516  0.52475346  0.24414923  1
  O  O91  1  0.84382370  0.31257643  0.24348089  1
  O  O92  1  0.46934225  0.16271498  0.24336858  1
  O  O93  1  0.64240436  0.51028136  0.92341552  1
  O  O94  1  0.86213504  0.35942655  0.92277725  1
  O  O95  1  0.49396395  0.14210743  0.92372829  1
  O  O96  1  0.64580033  0.13642501  0.42225962  1
  O  O97  1  0.48874113  0.35356583  0.42151566  1
  O  O98  1  0.86560439  0.50783402  0.42147290  1
  O  O99  1  0.35596279  0.49258125  0.07840226  1
  O  O100  1  0.13969449  0.65054652  0.07975941  1
  O  O101  1  0.50621955  0.86343583  0.07795979  1
  O  O102  1  0.34555755  0.85862699  0.57664962  1
  O  O103  1  0.50348050  0.64845611  0.57723094  1
  O  O104  1  0.13286413  0.49690297  0.57579229  1
  O  O105  1  0.31242928  0.84277285  0.25605818  1
  O  O106  1  0.52502781  0.68138794  0.25601907  1
  O  O107  1  0.16282464  0.46968399  0.25663988  1
  O  O108  1  0.31373046  0.46924114  0.75514762  1
  O  O109  1  0.15737353  0.69050582  0.75422609  1
  O  O110  1  0.53168711  0.84216722  0.75539859  1
