# generated using pymatgen
data_BClF6
_symmetry_space_group_name_H-M   'P 1'
_cell_length_a   8.74323205
_cell_length_b   5.60710701
_cell_length_c   9.67053981
_cell_angle_alpha   63.97380991
_cell_angle_beta   90.00000000
_cell_angle_gamma   90.00000000
_symmetry_Int_Tables_number   1
_chemical_formula_structural   BClF6
_chemical_formula_sum   'B4 Cl4 F24'
_cell_volume   426.01498346
_cell_formula_units_Z   4
loop_
 _symmetry_equiv_pos_site_id
 _symmetry_equiv_pos_as_xyz
  1  'x, y, z'
loop_
 _atom_site_type_symbol
 _atom_site_label
 _atom_site_symmetry_multiplicity
 _atom_site_fract_x
 _atom_site_fract_y
 _atom_site_fract_z
 _atom_site_occupancy
  B  B0  1  0.49889178  0.43346969  0.31889683  1
  B  B1  1  -0.00110822  0.56653031  0.18110317  1
  B  B2  1  0.50110822  0.56653031  0.68110317  1
  B  B3  1  0.00110822  0.43346969  0.81889683  1
  Cl  Cl4  1  0.72144770  0.17030981  0.61432107  1
  Cl  Cl5  1  0.22144770  0.82969019  0.88567893  1
  Cl  Cl6  1  0.27855230  0.82969019  0.38567893  1
  Cl  Cl7  1  0.77855230  0.17030981  0.11432107  1
  F  F8  1  0.64736749  0.06996993  0.03795059  1
  F  F9  1  0.14736749  0.93003007  0.46204941  1
  F  F10  1  0.35263251  0.93003007  0.96204941  1
  F  F11  1  0.85263251  0.06996993  0.53795059  1
  F  F12  1  0.72896951  0.98233170  0.28681495  1
  F  F13  1  0.22896951  0.01766830  0.21318505  1
  F  F14  1  0.27103049  0.01766830  0.71318505  1
  F  F15  1  0.77103049  0.98233170  0.78681495  1
  F  F16  1  0.00836193  0.37162255  0.69671760  1
  F  F17  1  0.50836193  0.62837745  0.80328240  1
  F  F18  1  0.99163807  0.62837745  0.30328240  1
  F  F19  1  0.49163807  0.37162255  0.19671760  1
  F  F20  1  0.04461665  0.70763056  0.76896180  1
  F  F21  1  0.54461665  0.29236944  0.73103820  1
  F  F22  1  0.95538335  0.29236944  0.23103820  1
  F  F23  1  0.45538335  0.70763056  0.26896180  1
  F  F24  1  0.09195715  0.27549155  0.94172090  1
  F  F25  1  0.59195715  0.72450845  0.55827910  1
  F  F26  1  0.90804285  0.72450845  0.05827910  1
  F  F27  1  0.40804285  0.27549155  0.44172090  1
  F  F28  1  0.84424846  0.41662353  0.86892333  1
  F  F29  1  0.34424846  0.58337647  0.63107667  1
  F  F30  1  0.15575154  0.58337647  0.13107667  1
  F  F31  1  0.65575154  0.41662353  0.36892333  1
