# generated using pymatgen
data_Na4CaSn3(PO4)6
_symmetry_space_group_name_H-M   'P 1'
_cell_length_a   8.95970193
_cell_length_b   8.95561831
_cell_length_c   22.77435682
_cell_angle_alpha   90.07599263
_cell_angle_beta   89.96765504
_cell_angle_gamma   119.85670485
_symmetry_Int_Tables_number   1
_chemical_formula_structural   Na4CaSn3(PO4)6
_chemical_formula_sum   'Na12 Ca3 Sn9 P18 O72'
_cell_volume   1584.85958254
_cell_formula_units_Z   3
loop_
 _symmetry_equiv_pos_site_id
 _symmetry_equiv_pos_as_xyz
  1  'x, y, z'
loop_
 _atom_site_type_symbol
 _atom_site_label
 _atom_site_symmetry_multiplicity
 _atom_site_fract_x
 _atom_site_fract_y
 _atom_site_fract_z
 _atom_site_occupancy
  Na  Na0  1  0.64607090  0.01172807  0.24571940  1
  Na  Na1  1  0.36698214  0.35438039  0.24542777  1
  Na  Na2  1  0.98808718  0.63331863  0.24523726  1
  Na  Na3  1  0.98805794  0.36221506  0.74351938  1
  Na  Na4  1  0.37613962  0.00834279  0.74374594  1
  Na  Na5  1  0.70763184  0.67714860  0.41664024  1
  Na  Na6  1  0.01320971  0.01390338  0.49860224  1
  Na  Na7  1  0.00007434  0.00006851  0.00228130  1
  Na  Na8  1  0.66548688  0.34684744  0.83368141  1
  Na  Na9  1  0.66580019  0.32054172  0.33422237  1
  Na  Na10  1  0.33317541  0.66670667  0.15925089  1
  Na  Na11  1  0.34724566  0.66518676  0.66049500  1
  Ca  Ca12  1  0.00796990  0.00858684  0.35721285  1
  Ca  Ca13  1  0.66584746  0.34176730  0.68191608  1
  Ca  Ca14  1  0.66697557  0.33415753  0.17363874  1
  Sn  Sn15  1  0.99767094  0.99700690  0.85672770  1
  Sn  Sn16  1  0.99652131  0.99630095  0.64538143  1
  Sn  Sn17  1  0.00067459  0.00056683  0.14603626  1
  Sn  Sn18  1  0.66697962  0.33272976  0.98416039  1
  Sn  Sn19  1  0.66609893  0.32818474  0.48600222  1
  Sn  Sn20  1  0.33302232  0.66653879  0.01539756  1
  Sn  Sn21  1  0.32895003  0.66667264  0.51975280  1
  Sn  Sn22  1  0.33076762  0.66700249  0.31874948  1
  Sn  Sn23  1  0.33765562  0.66572763  0.81798218  1
  P  P24  1  0.29319004  0.99318720  0.24989985  1
  P  P25  1  0.70014680  0.70728838  0.25267357  1
  P  P26  1  0.00604409  0.29934092  0.25024513  1
  P  P27  1  0.28152776  0.28893302  0.75326185  1
  P  P28  1  0.00710899  0.71489889  0.75387273  1
  P  P29  1  0.70780263  0.98975832  0.75257097  1
  P  P30  1  0.96947190  0.33162420  0.58506162  1
  P  P31  1  0.36288494  0.03113507  0.58513087  1
  P  P32  1  0.66755949  0.63792666  0.58082283  1
  P  P33  1  0.97278367  0.63960111  0.08235027  1
  P  P34  1  0.66663566  0.02704787  0.08244844  1
  P  P35  1  0.36027389  0.33306198  0.08236193  1
  P  P36  1  0.62781333  0.66298496  0.91731731  1
  P  P37  1  0.03583090  0.37243087  0.91595821  1
  P  P38  1  0.33693137  0.96466812  0.91609388  1
  P  P39  1  0.61751940  0.96353100  0.41870738  1
  P  P40  1  0.34422481  0.37942918  0.42006957  1
  P  P41  1  0.03223862  0.65324156  0.41921119  1
  O  O42  1  0.21544508  0.02459091  0.30355180  1
  O  O43  1  0.80028543  0.77967305  0.30900232  1
  O  O44  1  0.97267848  0.18930730  0.30371164  1
  O  O45  1  0.19549490  0.17756968  0.80827796  1
  O  O46  1  0.98492561  0.80028403  0.80949009  1
  O  O47  1  0.82020473  0.01838300  0.80756173  1
  O  O48  1  0.78903557  0.96291303  0.69631373  1
  O  O49  1  0.16564941  0.20897955  0.69795687  1
  O  O50  1  0.04134312  0.83011990  0.69830124  1
  O  O51  1  0.78791019  0.82891731  0.19798663  1
  O  O52  1  0.04368913  0.21886999  0.19404651  1
  O  O53  1  0.17585906  0.95723862  0.19380490  1
  O  O54  1  0.90402842  0.35954380  0.64313177  1
  O  O55  1  0.45677649  0.09551101  0.64314522  1
  O  O56  1  0.63654211  0.53347886  0.63553007  1
  O  O57  1  0.91300127  0.55005458  0.14118724  1
  O  O58  1  0.63713756  0.08770962  0.14125828  1
  O  O59  1  0.44998290  0.36313328  0.14127568  1
  O  O60  1  0.45642445  0.30552763  0.02947686  1
  O  O61  1  0.84948447  0.54381375  0.02951794  1
  O  O62  1  0.69499349  0.15016401  0.02939762  1
  O  O63  1  0.45472676  0.15038964  0.53105900  1
  O  O64  1  0.69455517  0.55440130  0.52354164  1
  O  O65  1  0.85059727  0.30559147  0.53104324  1
  O  O66  1  0.54337860  0.69505527  0.97057984  1
  O  O67  1  0.15525109  0.46066321  0.96825437  1
  O  O68  1  0.30657695  0.84560411  0.96834468  1
  O  O69  1  0.51988695  0.84371002  0.46976815  1
  O  O70  1  0.32963360  0.47986715  0.47184721  1
  O  O71  1  0.14811949  0.67395781  0.47111934  1
  O  O72  1  0.10932356  0.63051468  0.35928057  1
  O  O73  1  0.51687966  0.88875114  0.35878944  1
  O  O74  1  0.37540786  0.48675679  0.36090453  1
  O  O75  1  0.11239521  0.47786906  0.85790795  1
  O  O76  1  0.36561943  0.88789934  0.85802376  1
  O  O77  1  0.51837967  0.63170190  0.86054519  1
  O  O78  1  0.00364819  0.80635241  0.41881816  1
  O  O79  1  0.79140931  0.97383021  0.41796600  1
  O  O80  1  0.19015541  0.20269667  0.42002418  1
  O  O81  1  0.01730828  0.19034476  0.91217268  1
  O  O82  1  0.17322524  0.98294784  0.91247223  1
  O  O83  1  0.80895507  0.82698674  0.91278278  1
  O  O84  1  0.98672833  0.16617369  0.58596038  1
  O  O85  1  0.18045732  0.01442005  0.58642899  1
  O  O86  1  0.83448737  0.81918169  0.58431022  1
  O  O87  1  0.98756930  0.82137194  0.08403664  1
  O  O88  1  0.83282723  0.01069051  0.08428253  1
  O  O89  1  0.17867352  0.16679036  0.08385151  1
  O  O90  1  0.68637494  0.14927459  0.74969356  1
  O  O91  1  0.45762815  0.30455298  0.75009154  1
  O  O92  1  0.85716785  0.53144272  0.75089036  1
  O  O93  1  0.67178965  0.52500165  0.24418814  1
  O  O94  1  0.85409959  0.33143673  0.24287872  1
  O  O95  1  0.47671839  0.14550169  0.24291364  1
  O  O96  1  0.64680621  0.50058423  0.92346122  1
  O  O97  1  0.85549774  0.35543691  0.92263777  1
  O  O98  1  0.49971332  0.14488957  0.92272890  1
  O  O99  1  0.62951733  0.14224784  0.42384388  1
  O  O100  1  0.51816800  0.37694504  0.42354101  1
  O  O101  1  0.85295389  0.48464052  0.42302365  1
  O  O102  1  0.33875765  0.49309186  0.07193163  1
  O  O103  1  0.15402317  0.66095603  0.07173135  1
  O  O104  1  0.50641555  0.84642308  0.07201443  1
  O  O105  1  0.33874355  0.84787774  0.57623416  1
  O  O106  1  0.51027351  0.66618672  0.57427027  1
  O  O107  1  0.15233553  0.49103530  0.57638232  1
  O  O108  1  0.30111155  0.82010658  0.25401292  1
  O  O109  1  0.51837595  0.69749800  0.25482630  1
  O  O110  1  0.17880667  0.47977612  0.25489308  1
  O  O111  1  0.28893390  0.46796965  0.75794934  1
  O  O112  1  0.18151853  0.70739215  0.75752742  1
  O  O113  1  0.52405066  0.82567697  0.75712160  1
