# generated using pymatgen
data_Na3Mg2Al2PS5O24
_symmetry_space_group_name_H-M   'P 1'
_cell_length_a   8.57810072
_cell_length_b   8.54898118
_cell_length_c   21.91137097
_cell_angle_alpha   89.97406867
_cell_angle_beta   90.02293316
_cell_angle_gamma   119.92850176
_symmetry_Int_Tables_number   1
_chemical_formula_structural   Na3Mg2Al2PS5O24
_chemical_formula_sum   'Na9 Mg6 Al6 P3 S15 O72'
_cell_volume   1392.57333528
_cell_formula_units_Z   3
loop_
 _symmetry_equiv_pos_site_id
 _symmetry_equiv_pos_as_xyz
  1  'x, y, z'
loop_
 _atom_site_type_symbol
 _atom_site_label
 _atom_site_symmetry_multiplicity
 _atom_site_fract_x
 _atom_site_fract_y
 _atom_site_fract_z
 _atom_site_occupancy
  Na  Na0  1  0.36208781  0.99502178  0.74833911  1
  Na  Na1  1  0.66386980  0.95958827  0.58901172  1
  Na  Na2  1  0.67125803  0.70571400  0.08193803  1
  Na  Na3  1  0.02834443  0.00277420  0.50031868  1
  Na  Na4  1  0.01788799  0.00443472  0.00026805  1
  Na  Na5  1  0.68345786  0.34104885  0.83424888  1
  Na  Na6  1  0.66673516  0.33352688  0.33404730  1
  Na  Na7  1  0.30305805  0.66286782  0.16787708  1
  Na  Na8  1  0.32757771  0.65315623  0.66724001  1
  Mg  Mg9  1  0.00481234  0.00146885  0.64568995  1
  Mg  Mg10  1  0.00687748  0.99961520  0.14588976  1
  Mg  Mg11  1  0.31693059  0.66467163  0.01821376  1
  Mg  Mg12  1  0.32747224  0.66883580  0.51719206  1
  Mg  Mg13  1  0.33122838  0.66630462  0.31772494  1
  Mg  Mg14  1  0.33988364  0.66873681  0.81826423  1
  Al  Al15  1  0.00196475  0.00058562  0.34903356  1
  Al  Al16  1  0.99040690  0.00086486  0.84866799  1
  Al  Al17  1  0.66809977  0.32704260  0.68609032  1
  Al  Al18  1  0.67497087  0.33759009  0.18713763  1
  Al  Al19  1  0.67271050  0.33871002  0.98236310  1
  Al  Al20  1  0.65868271  0.32810132  0.48151401  1
  P  P21  1  0.71134269  0.00451816  0.74689904  1
  P  P22  1  0.37972945  0.04922352  0.58376816  1
  P  P23  1  0.95266655  0.61432792  0.08449167  1
  S  S24  1  0.29839563  0.00862056  0.24984654  1
  S  S25  1  0.70907932  0.70490425  0.24892413  1
  S  S26  1  0.99344639  0.28630516  0.24959106  1
  S  S27  1  0.29218137  0.29226947  0.75008352  1
  S  S28  1  0.98988379  0.70314206  0.75075351  1
  S  S29  1  0.95295776  0.34093816  0.58230902  1
  S  S30  1  0.66553255  0.61034666  0.58319621  1
  S  S31  1  0.66515355  0.05241687  0.08367063  1
  S  S32  1  0.38454988  0.33007674  0.08326068  1
  S  S33  1  0.63831395  0.66740353  0.91851306  1
  S  S34  1  0.03028777  0.36157846  0.91649506  1
  S  S35  1  0.33230885  0.97542838  0.91532093  1
  S  S36  1  0.64127471  0.97106749  0.41715906  1
  S  S37  1  0.33170465  0.36341916  0.41604935  1
  S  S38  1  0.02605441  0.66584582  0.41590453  1
  O  O39  1  0.20951082  0.03451998  0.30480221  1
  O  O40  1  0.82896840  0.79935209  0.30209581  1
  O  O41  1  0.97142609  0.17393451  0.30485678  1
  O  O42  1  0.20688254  0.16896006  0.80385883  1
  O  O43  1  0.96643297  0.79067348  0.80628338  1
  O  O44  1  0.83182802  0.02763073  0.80260382  1
  O  O45  1  0.78807696  0.97911978  0.68746050  1
  O  O46  1  0.19037506  0.21213986  0.69454810  1
  O  O47  1  0.02949503  0.81826129  0.69687561  1
  O  O48  1  0.78499123  0.80505117  0.19191865  1
  O  O49  1  0.01660067  0.20453471  0.19465757  1
  O  O50  1  0.19291423  0.98223517  0.19487883  1
  O  O51  1  0.86777588  0.36049314  0.63879919  1
  O  O52  1  0.49346656  0.13722504  0.64313390  1
  O  O53  1  0.65257432  0.50678756  0.63907479  1
  O  O54  1  0.85744957  0.50483254  0.14263717  1
  O  O55  1  0.64145389  0.13613559  0.13954136  1
  O  O56  1  0.49378305  0.35218333  0.13886270  1
  O  O57  1  0.47043819  0.30854289  0.02756799  1
  O  O58  1  0.83307259  0.52237605  0.02783242  1
  O  O59  1  0.67881621  0.15551100  0.02788953  1
  O  O60  1  0.48069825  0.16183630  0.52730307  1
  O  O61  1  0.68555031  0.52535745  0.52737769  1
  O  O62  1  0.84288433  0.32114976  0.52758709  1
  O  O63  1  0.56285977  0.69729192  0.97503687  1
  O  O64  1  0.14081783  0.43868591  0.97113647  1
  O  O65  1  0.30069976  0.85950914  0.96845440  1
  O  O66  1  0.56889197  0.86541056  0.47387344  1
  O  O67  1  0.29971783  0.44174524  0.47082519  1
  O  O68  1  0.13763328  0.70177844  0.47058639  1
  O  O69  1  0.10406228  0.63034511  0.36196054  1
  O  O70  1  0.52306137  0.88652887  0.36486761  1
  O  O71  1  0.36255900  0.47460633  0.36176540  1
  O  O72  1  0.10894284  0.47456009  0.86241911  1
  O  O73  1  0.36421345  0.90021091  0.85907509  1
  O  O74  1  0.52327959  0.63782684  0.86567940  1
  O  O75  1  0.00461858  0.82831200  0.40582379  1
  O  O76  1  0.82336941  0.99242572  0.40655778  1
  O  O77  1  0.17162563  0.17794635  0.40712179  1
  O  O78  1  0.00831783  0.17764367  0.90743288  1
  O  O79  1  0.17091575  0.99748481  0.90698123  1
  O  O80  1  0.82180045  0.82792917  0.90909810  1
  O  O81  1  0.96408069  0.17386664  0.58505137  1
  O  O82  1  0.19578702  0.03411720  0.58655561  1
  O  O83  1  0.82451955  0.79395909  0.58570462  1
  O  O84  1  0.96761861  0.80225059  0.08671893  1
  O  O85  1  0.82982223  0.03788015  0.08690741  1
  O  O86  1  0.20468154  0.17202261  0.08704340  1
  O  O87  1  0.69413810  0.18045182  0.74397539  1
  O  O88  1  0.47594509  0.30987472  0.74563868  1
  O  O89  1  0.82191585  0.52631906  0.74351037  1
  O  O90  1  0.69482995  0.52239858  0.24581743  1
  O  O91  1  0.82341006  0.29680875  0.24589423  1
  O  O92  1  0.47951410  0.17667122  0.24466279  1
  O  O93  1  0.65995159  0.50454272  0.92459330  1
  O  O94  1  0.84466264  0.33509244  0.92503932  1
  O  O95  1  0.49336209  0.15850257  0.92469915  1
  O  O96  1  0.66683607  0.15728079  0.42434894  1
  O  O97  1  0.49315308  0.34015849  0.42366487  1
  O  O98  1  0.84137630  0.50719372  0.42513821  1
  O  O99  1  0.37478797  0.49791408  0.07849332  1
  O  O100  1  0.13645519  0.62916110  0.08028125  1
  O  O101  1  0.50762363  0.86780689  0.07949149  1
  O  O102  1  0.36792141  0.86293410  0.57985788  1
  O  O103  1  0.50115877  0.62566207  0.57993839  1
  O  O104  1  0.13216605  0.50001030  0.57813280  1
  O  O105  1  0.32381635  0.85204361  0.25815230  1
  O  O106  1  0.52926315  0.68148681  0.25766694  1
  O  O107  1  0.14809309  0.46925148  0.25696317  1
  O  O108  1  0.31220046  0.47027619  0.75924183  1
  O  O109  1  0.14495415  0.67474012  0.75927707  1
  O  O110  1  0.51855714  0.84441096  0.75575672  1
