# generated using pymatgen
data_MgFe2(OF)2
_symmetry_space_group_name_H-M   'P 1'
_cell_length_a   5.47389486
_cell_length_b   5.53303630
_cell_length_c   3.13816330
_cell_angle_alpha   90.00000000
_cell_angle_beta   90.00000000
_cell_angle_gamma   92.58349726
_symmetry_Int_Tables_number   1
_chemical_formula_structural   MgFe2(OF)2
_chemical_formula_sum   'Mg1 Fe2 O2 F2'
_cell_volume   94.94975879
_cell_formula_units_Z   1
loop_
 _symmetry_equiv_pos_site_id
 _symmetry_equiv_pos_as_xyz
  1  'x, y, z'
loop_
 _atom_site_type_symbol
 _atom_site_label
 _atom_site_symmetry_multiplicity
 _atom_site_fract_x
 _atom_site_fract_y
 _atom_site_fract_z
 _atom_site_occupancy
  Mg  Mg0  1  0.49120511  0.95443868  0.00000000  1
  Fe  Fe1  1  0.95630701  0.19945247  0.00000000  1
  Fe  Fe2  1  0.47191141  0.44198688  0.50000000  1
  O  O3  1  0.30200851  0.26226048  0.00000000  1
  O  O4  1  0.73230722  0.13373479  0.50000000  1
  F  F5  1  0.31249878  0.80144327  0.50000000  1
  F  F6  1  0.66431797  0.63723942  0.00000000  1
