# generated using pymatgen
data_NaZr2Ge2P5SO24
_symmetry_space_group_name_H-M   'P 1'
_cell_length_a   8.62057900
_cell_length_b   8.63869082
_cell_length_c   22.56013948
_cell_angle_alpha   90.02783304
_cell_angle_beta   89.84228568
_cell_angle_gamma   119.98795414
_symmetry_Int_Tables_number   1
_chemical_formula_structural   NaZr2Ge2P5SO24
_chemical_formula_sum   'Na3 Zr6 Ge6 P15 S3 O72'
_cell_volume   1455.14947607
_cell_formula_units_Z   3
loop_
 _symmetry_equiv_pos_site_id
 _symmetry_equiv_pos_as_xyz
  1  'x, y, z'
loop_
 _atom_site_type_symbol
 _atom_site_label
 _atom_site_symmetry_multiplicity
 _atom_site_fract_x
 _atom_site_fract_y
 _atom_site_fract_z
 _atom_site_occupancy
  Na  Na0  1  0.67168032  0.33950678  0.83896407  1
  Na  Na1  1  0.66742391  0.33460578  0.32526021  1
  Na  Na2  1  0.33385134  0.66776323  0.16784991  1
  Zr  Zr3  1  0.99296238  0.99940567  0.86397954  1
  Zr  Zr4  1  0.00440961  0.99910224  0.64566534  1
  Zr  Zr5  1  0.66257136  0.32744018  0.69007942  1
  Zr  Zr6  1  0.65946941  0.32784541  0.46925266  1
  Zr  Zr7  1  0.33405637  0.67236941  0.51322825  1
  Zr  Zr8  1  0.33028511  0.65887588  0.81486620  1
  Ge  Ge9  1  0.00103555  0.00026761  0.34743114  1
  Ge  Ge10  1  0.99967553  0.00023282  0.14605908  1
  Ge  Ge11  1  0.66731676  0.33240247  0.18488083  1
  Ge  Ge12  1  0.67503481  0.34302027  0.99036160  1
  Ge  Ge13  1  0.33521327  0.65858569  0.02660410  1
  Ge  Ge14  1  0.33290325  0.66636096  0.30888210  1
  P  P15  1  0.28670774  0.00088722  0.24772981  1
  P  P16  1  0.71474763  0.71360387  0.24779349  1
  P  P17  1  0.99936984  0.28532582  0.24769545  1
  P  P18  1  0.28667988  0.28666614  0.75292406  1
  P  P19  1  -0.00001623  0.71136423  0.75307120  1
  P  P20  1  0.71064311  0.99867661  0.75212515  1
  P  P21  1  0.37636823  0.03967071  0.58104492  1
  P  P22  1  0.95724000  0.62539395  0.08651803  1
  P  P23  1  0.66806588  0.04645389  0.08514515  1
  P  P24  1  0.37892029  0.32861111  0.08619741  1
  P  P25  1  0.61041755  0.64805183  0.92578546  1
  P  P26  1  0.03781783  0.38845476  0.92589057  1
  P  P27  1  0.63064801  0.94696182  0.40683353  1
  P  P28  1  0.31614409  0.37132302  0.40755998  1
  P  P29  1  0.05136496  0.68189472  0.40716674  1
  S  S30  1  0.95958349  0.33599319  0.58094760  1
  S  S31  1  0.66348245  0.62266726  0.58107790  1
  S  S32  1  0.34769337  0.96163277  0.92417674  1
  O  O33  1  0.20728187  0.03825198  0.30392711  1
  O  O34  1  0.83167923  0.79353343  0.30371456  1
  O  O35  1  0.96197157  0.16851628  0.30372778  1
  O  O36  1  0.20132730  0.17320305  0.80779968  1
  O  O37  1  0.97109050  0.79784216  0.80772436  1
  O  O38  1  0.82552963  0.02730311  0.80709043  1
  O  O39  1  0.79335198  0.97842918  0.69487069  1
  O  O40  1  0.18383414  0.20386524  0.69557454  1
  O  O41  1  0.02049744  0.81554760  0.69558623  1
  O  O42  1  0.79609843  0.83321352  0.19259077  1
  O  O43  1  0.03703888  0.20378688  0.19242162  1
  O  O44  1  0.16704935  0.96347706  0.19283900  1
  O  O45  1  0.87814054  0.36099173  0.63523081  1
  O  O46  1  0.48723142  0.12857153  0.63702328  1
  O  O47  1  0.64504178  0.51932871  0.63539838  1
  O  O48  1  0.87375954  0.49720954  0.14020797  1
  O  O49  1  0.62410986  0.12758813  0.13985235  1
  O  O50  1  0.50451203  0.37346338  0.14047387  1
  O  O51  1  0.46258173  0.29541052  0.02976238  1
  O  O52  1  0.84014052  0.54619223  0.03006412  1
  O  O53  1  0.70315497  0.16545858  0.02907839  1
  O  O54  1  0.47037335  0.15603660  0.52657147  1
  O  O55  1  0.69044786  0.53786099  0.52844766  1
  O  O56  1  0.85081584  0.31636020  0.52832346  1
  O  O57  1  0.52503267  0.68936706  0.97894300  1
  O  O58  1  0.16229110  0.47755749  0.97898421  1
  O  O59  1  0.31353182  0.84605789  0.97586439  1
  O  O60  1  0.55204616  0.84284928  0.46517737  1
  O  O61  1  0.29201341  0.45040562  0.46571538  1
  O  O62  1  0.15783275  0.70862337  0.46511294  1
  O  O63  1  0.13654342  0.63673000  0.35476905  1
  O  O64  1  0.49972609  0.86226336  0.35490471  1
  O  O65  1  0.36146164  0.50073122  0.35496212  1
  O  O66  1  0.11173464  0.49777113  0.86854193  1
  O  O67  1  0.37671169  0.88700788  0.86888581  1
  O  O68  1  0.50197408  0.61670133  0.86854262  1
  O  O69  1  0.03444032  0.84736724  0.39937774  1
  O  O70  1  0.81369397  0.96507598  0.39923416  1
  O  O71  1  0.15261578  0.18748181  0.39952014  1
  O  O72  1  0.02130829  0.20483103  0.91696657  1
  O  O73  1  0.18793002  0.98067868  0.91682315  1
  O  O74  1  0.79627068  0.81287744  0.91719149  1
  O  O75  1  0.97084810  0.17294470  0.58597454  1
  O  O76  1  0.19313217  0.02356618  0.58604620  1
  O  O77  1  0.82112719  0.80124195  0.58575067  1
  O  O78  1  0.97469111  0.80940869  0.09617804  1
  O  O79  1  0.83458529  0.02760097  0.09493722  1
  O  O80  1  0.19344006  0.16302359  0.09536802  1
  O  O81  1  0.69407512  0.16776000  0.74846321  1
  O  O82  1  0.47532237  0.31083369  0.74828896  1
  O  O83  1  0.83440035  0.52507865  0.74714227  1
  O  O84  1  0.69439702  0.52367209  0.23998554  1
  O  O85  1  0.82904421  0.30529525  0.24000761  1
  O  O86  1  0.47696900  0.17066012  0.24012061  1
  O  O87  1  0.62856258  0.47891124  0.93305692  1
  O  O88  1  0.84764597  0.36511124  0.93303748  1
  O  O89  1  0.50924255  0.14148833  0.92981711  1
  O  O90  1  0.65009464  0.13494330  0.41487626  1
  O  O91  1  0.48687440  0.35386517  0.41477188  1
  O  O92  1  0.86479007  0.51362582  0.41625745  1
  O  O93  1  0.35851359  0.49893406  0.07852627  1
  O  O94  1  0.14757712  0.64593775  0.07725790  1
  O  O95  1  0.49727755  0.85676653  0.07619711  1
  O  O96  1  0.35994330  0.85723930  0.57523820  1
  O  O97  1  0.50171046  0.63432061  0.57592513  1
  O  O98  1  0.13720107  0.49202250  0.57590354  1
  O  O99  1  0.30823694  0.83179019  0.25579532  1
  O  O100  1  0.52360632  0.69190930  0.25589597  1
  O  O101  1  0.16815818  0.47598932  0.25562126  1
  O  O102  1  0.30332113  0.46921522  0.75742623  1
  O  O103  1  0.16656266  0.69646380  0.75895557  1
  O  O104  1  0.52733108  0.83647667  0.75964521  1
