# generated using pymatgen
data_Na8Zn3Si3Ge(SO8)3
_symmetry_space_group_name_H-M   'P 1'
_cell_length_a   9.06187228
_cell_length_b   9.09829340
_cell_length_c   22.07590522
_cell_angle_alpha   89.79111080
_cell_angle_beta   88.82024640
_cell_angle_gamma   119.86500712
_symmetry_Int_Tables_number   1
_chemical_formula_structural   Na8Zn3Si3Ge(SO8)3
_chemical_formula_sum   'Na24 Zn9 Si9 Ge3 S9 O72'
_cell_volume   1577.85941613
_cell_formula_units_Z   3
loop_
 _symmetry_equiv_pos_site_id
 _symmetry_equiv_pos_as_xyz
  1  'x, y, z'
loop_
 _atom_site_type_symbol
 _atom_site_label
 _atom_site_symmetry_multiplicity
 _atom_site_fract_x
 _atom_site_fract_y
 _atom_site_fract_z
 _atom_site_occupancy
  Na  Na0  1  0.62930764  0.99587677  0.25722937  1
  Na  Na1  1  0.36905648  0.37331059  0.24561286  1
  Na  Na2  1  0.00035022  0.61515147  0.24988849  1
  Na  Na3  1  0.64305416  0.64580130  0.73270423  1
  Na  Na4  1  0.98223008  0.34459577  0.74944324  1
  Na  Na5  1  0.37459813  0.01291928  0.74030350  1
  Na  Na6  1  0.29966618  0.33133963  0.58199830  1
  Na  Na7  1  0.04179892  0.71374735  0.57114545  1
  Na  Na8  1  0.65241546  0.93996609  0.58280588  1
  Na  Na9  1  0.28380346  0.95463774  0.07289751  1
  Na  Na10  1  0.66086733  0.69550389  0.08357101  1
  Na  Na11  1  0.05540386  0.34625031  0.08139495  1
  Na  Na12  1  0.98339957  0.68430602  0.92240739  1
  Na  Na13  1  0.70591532  0.03896251  0.90732680  1
  Na  Na14  1  0.31339288  0.29319474  0.92460276  1
  Na  Na15  1  0.98286102  0.31619267  0.41106578  1
  Na  Na16  1  0.32381063  0.01084351  0.42544676  1
  Na  Na17  1  0.69946593  0.68527614  0.43291359  1
  Na  Na18  1  0.99473502  0.99229753  0.49822812  1
  Na  Na19  1  0.01323974  0.01127445  0.99907743  1
  Na  Na20  1  0.66337911  0.32146992  0.83016238  1
  Na  Na21  1  0.67655773  0.33425910  0.33528285  1
  Na  Na22  1  0.31835798  0.65226558  0.16130015  1
  Na  Na23  1  0.34763912  0.68070376  0.65992185  1
  Zn  Zn24  1  0.98915320  0.98497086  0.35417767  1
  Zn  Zn25  1  0.00271595  0.01803046  0.85123365  1
  Zn  Zn26  1  0.97022119  0.96793538  0.64265927  1
  Zn  Zn27  1  0.01399139  0.99571688  0.14037342  1
  Zn  Zn28  1  0.65002222  0.31613741  0.67598796  1
  Zn  Zn29  1  0.65911559  0.34591231  0.17023198  1
  Zn  Zn30  1  0.30870188  0.65519787  0.01642127  1
  Zn  Zn31  1  0.34863954  0.69252469  0.51528621  1
  Zn  Zn32  1  0.33231599  0.69626696  0.34263123  1
  Si  Si33  1  0.69650708  0.98935048  0.75258799  1
  Si  Si34  1  0.36587997  0.03809911  0.58527878  1
  Si  Si35  1  0.66056313  0.61485470  0.58375826  1
  Si  Si36  1  0.95490495  0.62208328  0.08442437  1
  Si  Si37  1  0.37484431  0.33586400  0.08283280  1
  Si  Si38  1  0.03919621  0.38102625  0.91928741  1
  Si  Si39  1  0.34239137  0.97462102  0.92144291  1
  Si  Si40  1  0.64213521  0.98030784  0.41956098  1
  Si  Si41  1  0.02370912  0.65535517  0.41865219  1
  Ge  Ge42  1  0.67041660  0.33312693  0.98324851  1
  Ge  Ge43  1  0.66494592  0.33074503  0.48468685  1
  Ge  Ge44  1  0.33672569  0.69594946  0.82236374  1
  S  S45  1  0.29846639  -0.00050227  0.24888364  1
  S  S46  1  0.70123356  0.70403980  0.25023118  1
  S  S47  1  0.00024765  0.28766709  0.24713461  1
  S  S48  1  0.30019669  0.30842429  0.75299836  1
  S  S49  1  0.01316541  0.70582626  0.75496926  1
  S  S50  1  0.95680343  0.32986635  0.58328476  1
  S  S51  1  0.67209281  0.04600762  0.08297239  1
  S  S52  1  0.62004284  0.65960134  0.91641226  1
  S  S53  1  0.33997449  0.37141183  0.41454021  1
  O  O54  1  0.20942623  0.01313112  0.30387816  1
  O  O55  1  0.79658297  0.79272773  0.30466917  1
  O  O56  1  0.00653652  0.19739270  0.30225445  1
  O  O57  1  0.21826841  0.20690908  0.80893333  1
  O  O58  1  0.00023711  0.79029347  0.80990999  1
  O  O59  1  0.80708851  0.00794810  0.81137933  1
  O  O60  1  0.77054729  0.94309387  0.69188566  1
  O  O61  1  0.20501597  0.22321302  0.69869020  1
  O  O62  1  0.03136236  0.80293192  0.69911598  1
  O  O63  1  0.78881611  0.80114998  0.19382634  1
  O  O64  1  -0.00054879  0.19617556  0.19117151  1
  O  O65  1  0.20615681  0.99195600  0.19308465  1
  O  O66  1  0.88092769  0.35124382  0.64014140  1
  O  O67  1  0.47422931  0.11013065  0.64583834  1
  O  O68  1  0.65583483  0.51879312  0.64645888  1
  O  O69  1  0.87849911  0.51307833  0.14685557  1
  O  O70  1  0.65001275  0.12494535  0.13805273  1
  O  O71  1  0.46473601  0.35070498  0.14703661  1
  O  O72  1  0.48114290  0.30477319  0.02426179  1
  O  O73  1  0.83052434  0.51882296  0.02434918  1
  O  O74  1  0.69311778  0.15154586  0.02632753  1
  O  O75  1  0.47118962  0.16826203  0.52530632  1
  O  O76  1  0.68190763  0.51272499  0.52370003  1
  O  O77  1  0.84969675  0.31217772  0.52916799  1
  O  O78  1  0.54605089  0.68313406  0.97248734  1
  O  O79  1  0.15074225  0.44671044  0.97833071  1
  O  O80  1  0.31678444  0.85818545  0.97935438  1
  O  O81  1  0.56447660  0.84596714  0.47513200  1
  O  O82  1  0.31555167  0.44712421  0.46979460  1
  O  O83  1  0.14986624  0.68420109  0.47357324  1
  O  O84  1  0.09651424  0.61088839  0.35616901  1
  O  O85  1  0.52429824  0.90734135  0.35922125  1
  O  O86  1  0.35318428  0.47379068  0.35945317  1
  O  O87  1  0.14627609  0.52252192  0.85995207  1
  O  O88  1  0.37744231  0.88529948  0.86009384  1
  O  O89  1  0.51381075  0.64569816  0.86230618  1
  O  O90  1  0.00213480  0.82336431  0.41313997  1
  O  O91  1  0.83790317  0.02197786  0.41004876  1
  O  O92  1  0.19499293  0.19490239  0.41056162  1
  O  O93  1  0.00431271  0.18976615  0.91007706  1
  O  O94  1  0.17622859  0.99702116  0.91309434  1
  O  O95  1  0.79706434  0.80234540  0.91021549  1
  O  O96  1  0.96771236  0.17229044  0.58417007  1
  O  O97  1  0.18096900  0.03138984  0.58749257  1
  O  O98  1  0.83052617  0.80380902  0.57820232  1
  O  O99  1  0.95890481  0.80479324  0.08223893  1
  O  O100  1  0.83021169  0.03531161  0.08344084  1
  O  O101  1  0.18556911  0.16600778  0.08034280  1
  O  O102  1  0.67558620  0.15817723  0.74811550  1
  O  O103  1  0.47765522  0.33704064  0.75216174  1
  O  O104  1  0.86698519  0.53063226  0.75363841  1
  O  O105  1  0.68555356  0.53154311  0.25157185  1
  O  O106  1  0.84148092  0.30060261  0.25219594  1
  O  O107  1  0.47479908  0.15145178  0.24803348  1
  O  O108  1  0.62280309  0.49525872  0.91577453  1
  O  O109  1  0.84886718  0.37396735  0.92234402  1
  O  O110  1  0.52431646  0.16448111  0.92378533  1
  O  O111  1  0.64601183  0.16577168  0.42899555  1
  O  O112  1  0.50300776  0.36488709  0.41553450  1
  O  O113  1  0.83037223  0.48148867  0.42665124  1
  O  O114  1  0.36605859  0.50969351  0.07732394  1
  O  O115  1  0.14727280  0.65261115  0.08112957  1
  O  O116  1  0.52321254  0.87470053  0.07890073  1
  O  O117  1  0.33982886  0.84805191  0.57897852  1
  O  O118  1  0.48728400  0.62737163  0.58012796  1
  O  O119  1  0.12886188  0.47862789  0.57658200  1
  O  O120  1  0.31212623  0.84187142  0.25076246  1
  O  O121  1  0.52741930  0.68498152  0.25172282  1
  O  O122  1  0.15278051  0.46111008  0.24340937  1
  O  O123  1  0.30620359  0.47750297  0.75528939  1
  O  O124  1  0.17876151  0.69633382  0.75581375  1
  O  O125  1  0.49528984  0.80730966  0.76068499  1
