# generated using pymatgen
data_K4ZnO3
_symmetry_space_group_name_H-M   'P 1'
_cell_length_a   6.93044396
_cell_length_b   8.79577319
_cell_length_c   10.98435012
_cell_angle_alpha   102.39760974
_cell_angle_beta   89.18697644
_cell_angle_gamma   109.67065205
_symmetry_Int_Tables_number   1
_chemical_formula_structural   K4ZnO3
_chemical_formula_sum   'K16 Zn4 O12'
_cell_volume   614.58346689
_cell_formula_units_Z   4
loop_
 _symmetry_equiv_pos_site_id
 _symmetry_equiv_pos_as_xyz
  1  'x, y, z'
loop_
 _atom_site_type_symbol
 _atom_site_label
 _atom_site_symmetry_multiplicity
 _atom_site_fract_x
 _atom_site_fract_y
 _atom_site_fract_z
 _atom_site_occupancy
  K  K0  1  0.36476510  0.08507686  0.11623442  1
  K  K1  1  0.77723814  0.34512291  0.98549847  1
  K  K2  1  0.16105348  0.12446159  0.62184025  1
  K  K3  1  0.83894652  0.87553841  0.37815975  1
  K  K4  1  0.69044417  0.64543088  0.58248033  1
  K  K5  1  0.88833814  0.13430539  0.20614333  1
  K  K6  1  0.11166186  0.86569461  0.79385667  1
  K  K7  1  0.61855671  0.08945065  0.66885008  1
  K  K8  1  0.38144329  0.91054935  0.33114992  1
  K  K9  1  0.97852301  0.44398195  0.70386121  1
  K  K10  1  0.02147699  0.55601805  0.29613879  1
  K  K11  1  0.50719959  0.53056075  0.19841650  1
  K  K12  1  0.49280041  0.46943925  0.80158350  1
  K  K13  1  0.30955583  0.35456912  0.41751967  1
  K  K14  1  0.22276186  0.65487709  0.01450153  1
  K  K15  1  0.63523490  0.91492314  0.88376558  1
  Zn  Zn16  1  0.16409060  0.23166999  0.93889941  1
  Zn  Zn17  1  0.83590940  0.76833001  0.06110059  1
  Zn  Zn18  1  0.28814089  0.72012104  0.55869193  1
  Zn  Zn19  1  0.71185911  0.27987896  0.44130807  1
  O  O20  1  0.36354494  0.69091841  0.71585045  1
  O  O21  1  0.07606296  0.80222177  0.53327605  1
  O  O22  1  0.92393704  0.19777823  0.46672395  1
  O  O23  1  0.44073507  0.67801746  0.41757899  1
  O  O24  1  0.55926493  0.32198254  0.58242101  1
  O  O25  1  0.14217790  0.36080185  0.09772832  1
  O  O26  1  0.85782210  0.63919815  0.90227168  1
  O  O27  1  0.39375634  0.16208734  0.89229420  1
  O  O28  1  0.60624366  0.83791266  0.10770580  1
  O  O29  1  0.63645506  0.30908159  0.28414955  1
  O  O30  1  0.05720208  0.82977653  0.18327668  1
  O  O31  1  0.94279792  0.17022347  0.81672332  1
