# generated using pymatgen
data_NaNb2SiSn2P5O24
_symmetry_space_group_name_H-M   'P 1'
_cell_length_a   8.79549584
_cell_length_b   8.79250552
_cell_length_c   22.77877628
_cell_angle_alpha   90.06074567
_cell_angle_beta   89.91441883
_cell_angle_gamma   119.95348385
_symmetry_Int_Tables_number   1
_chemical_formula_structural   NaNb2SiSn2P5O24
_chemical_formula_sum   'Na3 Nb6 Si3 Sn6 P15 O72'
_cell_volume   1526.28930312
_cell_formula_units_Z   3
loop_
 _symmetry_equiv_pos_site_id
 _symmetry_equiv_pos_as_xyz
  1  'x, y, z'
loop_
 _atom_site_type_symbol
 _atom_site_label
 _atom_site_symmetry_multiplicity
 _atom_site_fract_x
 _atom_site_fract_y
 _atom_site_fract_z
 _atom_site_occupancy
  Na  Na0  1  0.00002969  0.99857509  0.99756918  1
  Na  Na1  1  0.66738148  0.33416878  0.83077994  1
  Na  Na2  1  0.66764449  0.33461602  0.33703098  1
  Nb  Nb3  1  0.99855081  0.00373913  0.35724811  1
  Nb  Nb4  1  0.00079777  0.99938920  0.64230882  1
  Nb  Nb5  1  0.66862850  0.33317272  0.19147028  1
  Nb  Nb6  1  0.66425890  0.33357397  0.97582947  1
  Nb  Nb7  1  0.33632956  0.67148165  0.02413373  1
  Nb  Nb8  1  0.33841719  0.67012978  0.80785281  1
  Si  Si9  1  0.00619973  0.28923666  0.24917256  1
  Si  Si10  1  0.62027643  0.67178100  0.91596754  1
  Si  Si11  1  0.32948581  0.94997690  0.91627805  1
  Sn  Sn12  1  0.99986237  0.99934833  0.85498951  1
  Sn  Sn13  1  0.00165368  0.00070668  0.14671843  1
  Sn  Sn14  1  0.66592557  0.33357765  0.68469832  1
  Sn  Sn15  1  0.66785953  0.33370868  0.48157936  1
  Sn  Sn16  1  0.33147582  0.66569560  0.52023280  1
  Sn  Sn17  1  0.33233097  0.66558112  0.31218413  1
  P  P18  1  0.28468168  0.99770879  0.25014996  1
  P  P19  1  0.71347886  0.71593573  0.25036555  1
  P  P20  1  0.28837996  0.28388139  0.75010252  1
  P  P21  1  0.99446256  0.70917094  0.74997480  1
  P  P22  1  0.71721741  0.00654801  0.74995868  1
  P  P23  1  0.95724237  0.33649024  0.58331969  1
  P  P24  1  0.38039170  0.04260634  0.58306733  1
  P  P25  1  0.66225115  0.62039917  0.58312703  1
  P  P26  1  0.95034539  0.62074466  0.08360012  1
  P  P27  1  0.67157140  0.04950638  0.08333692  1
  P  P28  1  0.37704604  0.32782997  0.08333083  1
  P  P29  1  0.05204994  0.38462412  0.91662067  1
  P  P30  1  0.61765268  0.95577728  0.41663733  1
  P  P31  1  0.33941177  0.38092912  0.41680876  1
  P  P32  1  0.04248421  0.66321375  0.41676826  1
  O  O33  1  0.19789810  0.03096832  0.30387501  1
  O  O34  1  0.83449364  0.79803332  0.30417143  1
  O  O35  1  0.96784623  0.16031005  0.30643732  1
  O  O36  1  0.21224300  0.17210180  0.80573442  1
  O  O37  1  0.95778289  0.78590646  0.80539829  1
  O  O38  1  0.82792089  0.04157215  0.80565542  1
  O  O39  1  0.80648066  0.98133194  0.69560291  1
  O  O40  1  0.17479362  0.19304143  0.69560308  1
  O  O41  1  0.02026161  0.82395260  0.69544431  1
  O  O42  1  0.78995594  0.81895901  0.19336366  1
  O  O43  1  0.03513651  0.20856094  0.18971205  1
  O  O44  1  0.17732071  0.96164785  0.19356129  1
  O  O45  1  0.87822939  0.37206159  0.63831535  1
  O  O46  1  0.49370875  0.12115270  0.63827733  1
  O  O47  1  0.62666482  0.50642215  0.63824334  1
  O  O48  1  0.86040886  0.50913563  0.13909108  1
  O  O49  1  0.64772114  0.13813217  0.13872881  1
  O  O50  1  0.48881887  0.35269332  0.13834544  1
  O  O51  1  0.47156523  0.30654712  0.02843074  1
  O  O52  1  0.83564825  0.53127021  0.02909056  1
  O  O53  1  0.69550430  0.16414764  0.02901680  1
  O  O54  1  0.45344696  0.16124982  0.52885471  1
  O  O55  1  0.70874124  0.54771427  0.52891181  1
  O  O56  1  0.83907688  0.29061112  0.52894739  1
  O  O57  1  0.52147316  0.68903651  0.97461236  1
  O  O58  1  0.16107317  0.47017488  0.97230238  1
  O  O59  1  0.30511548  0.83137470  0.97486482  1
  O  O60  1  0.54156870  0.84521223  0.47202832  1
  O  O61  1  0.30155223  0.45433308  0.47237629  1
  O  O62  1  0.15249761  0.69911690  0.47259420  1
  O  O63  1  0.12288458  0.62729153  0.36251385  1
  O  O64  1  0.50493910  0.87779307  0.36160539  1
  O  O65  1  0.37646823  0.49667268  0.36244250  1
  O  O66  1  0.13213047  0.49512108  0.86071232  1
  O  O67  1  0.35834550  0.85784819  0.85805164  1
  O  O68  1  0.49822132  0.63534574  0.85755647  1
  O  O69  1  0.02384024  0.82766464  0.40598248  1
  O  O70  1  0.80101098  0.97086274  0.40726999  1
  O  O71  1  0.17386029  0.19625622  0.40663138  1
  O  O72  1  0.03092504  0.20112926  0.91166665  1
  O  O73  1  0.16299653  0.97886874  0.91287826  1
  O  O74  1  0.80962508  0.84674000  0.91278984  1
  O  O75  1  0.97504376  0.17033885  0.59493696  1
  O  O76  1  0.19649227  0.02535414  0.59456020  1
  O  O77  1  0.82887220  0.80394503  0.59491145  1
  O  O78  1  0.97010987  0.80481766  0.08794267  1
  O  O79  1  0.83281653  0.02528048  0.08652924  1
  O  O80  1  0.19593753  0.15933515  0.08520917  1
  O  O81  1  0.68885349  0.16559673  0.74359106  1
  O  O82  1  0.47547063  0.31069107  0.74366674  1
  O  O83  1  0.83306850  0.52299635  0.74344983  1
  O  O84  1  0.69384138  0.52842716  0.24300786  1
  O  O85  1  0.82280796  0.30208792  0.24240274  1
  O  O86  1  0.46717040  0.17123022  0.24244100  1
  O  O87  1  0.64014016  0.49608184  0.92465382  1
  O  O88  1  0.86789898  0.36747138  0.92485520  1
  O  O89  1  0.51126331  0.14053018  0.92485501  1
  O  O90  1  0.64511450  0.14363489  0.42223576  1
  O  O91  1  0.50047385  0.35479683  0.42249762  1
  O  O92  1  0.85584191  0.50030787  0.42235962  1
  O  O93  1  0.35857145  0.49139282  0.07442565  1
  O  O94  1  0.12993368  0.63294978  0.07579101  1
  O  O95  1  0.50253936  0.86837886  0.07631720  1
  O  O96  1  0.35440299  0.85929249  0.57508911  1
  O  O97  1  0.50508066  0.64646438  0.57483258  1
  O  O98  1  0.14025430  0.49405365  0.57521304  1
  O  O99  1  0.31915436  0.84748022  0.25986179  1
  O  O100  1  0.53379004  0.69496848  0.25977806  1
  O  O101  1  0.16694499  0.48195423  0.25901177  1
  O  O102  1  0.29914208  0.46428812  0.75713759  1
  O  O103  1  0.16123553  0.69375178  0.75752337  1
  O  O104  1  0.53509574  0.83657678  0.75667466  1
