# generated using pymatgen
data_Na10Nb2Ga6Si7S5O48
_symmetry_space_group_name_H-M   'P 1'
_cell_length_a   17.82268662
_cell_length_b   8.85727090
_cell_length_c   22.07275555
_cell_angle_alpha   90.08526403
_cell_angle_beta   90.39750733
_cell_angle_gamma   119.84154196
_symmetry_Int_Tables_number   1
_chemical_formula_structural   Na10Nb2Ga6Si7S5O48
_chemical_formula_sum   'Na30 Nb6 Ga18 Si21 S15 O144'
_cell_volume   3022.27532450
_cell_formula_units_Z   3
loop_
 _symmetry_equiv_pos_site_id
 _symmetry_equiv_pos_as_xyz
  1  'x, y, z'
loop_
 _atom_site_type_symbol
 _atom_site_label
 _atom_site_symmetry_multiplicity
 _atom_site_fract_x
 _atom_site_fract_y
 _atom_site_fract_z
 _atom_site_occupancy
  Na  Na0  1  0.31968290  0.00458413  0.24361458  1
  Na  Na1  1  0.81513984  0.00154801  0.24851341  1
  Na  Na2  1  0.18709149  0.36817697  0.24583233  1
  Na  Na3  1  0.31505590  0.62828325  0.74913821  1
  Na  Na4  1  0.81880065  0.63318105  0.74306957  1
  Na  Na5  1  0.68543669  0.00418580  0.74686542  1
  Na  Na6  1  0.15719954  0.33661677  0.58211350  1
  Na  Na7  1  0.65254794  0.33199024  0.57619422  1
  Na  Na8  1  0.01734193  0.69749449  0.57152016  1
  Na  Na9  1  0.15544290  0.97629242  0.07981428  1
  Na  Na10  1  0.65627116  0.97556208  0.08115429  1
  Na  Na11  1  0.51687955  0.33582565  0.07048573  1
  Na  Na12  1  0.85195592  0.03104447  0.92202150  1
  Na  Na13  1  0.66504077  0.30634035  0.91977846  1
  Na  Na14  1  0.48587838  0.30053728  0.42224819  1
  Na  Na15  1  0.16642043  0.02429467  0.42068469  1
  Na  Na16  1  0.66744428  0.05409595  0.41562205  1
  Na  Na17  1  0.84929907  0.66284177  0.41402862  1
  Na  Na18  1  0.99436102  0.99896309  0.49539801  1
  Na  Na19  1  0.48030382  0.96641597  0.49299074  1
  Na  Na20  1  0.99917292  0.99637979  0.99271609  1
  Na  Na21  1  0.48211690  0.98838833  0.99252549  1
  Na  Na22  1  0.33368857  0.32353345  0.83282753  1
  Na  Na23  1  0.84687574  0.34811713  0.83230948  1
  Na  Na24  1  0.33958031  0.36051442  0.33345420  1
  Na  Na25  1  0.83698893  0.34543840  0.33036995  1
  Na  Na26  1  0.16441282  0.64572235  0.15864939  1
  Na  Na27  1  0.67613193  0.66714000  0.16475843  1
  Na  Na28  1  0.17768183  0.68622798  0.66591894  1
  Na  Na29  1  0.66465818  0.68347325  0.65926557  1
  Nb  Nb30  1  0.00031582  0.00776607  0.64908114  1
  Nb  Nb31  1  0.50283824  0.98563585  0.64069284  1
  Nb  Nb32  1  0.00358257  0.01958340  0.14010233  1
  Nb  Nb33  1  0.49923723  0.99060152  0.14846804  1
  Nb  Nb34  1  0.16369614  0.67639066  0.31071470  1
  Nb  Nb35  1  0.66207301  0.64700401  0.81140331  1
  Ga  Ga36  1  0.00340501  0.99961066  0.34791658  1
  Ga  Ga37  1  0.50086387  0.99711943  0.35389745  1
  Ga  Ga38  1  0.99732915  0.00601532  0.84954913  1
  Ga  Ga39  1  0.49768030  0.00770563  0.84844416  1
  Ga  Ga40  1  0.32106753  0.34150210  0.68862011  1
  Ga  Ga41  1  0.81894808  0.30721151  0.68296959  1
  Ga  Ga42  1  0.32029473  0.32850675  0.18375500  1
  Ga  Ga43  1  0.82085510  0.30034218  0.18804365  1
  Ga  Ga44  1  0.33344719  0.31113087  0.98024542  1
  Ga  Ga45  1  0.82994717  0.34116060  0.98810238  1
  Ga  Ga46  1  0.32587999  0.32112581  0.48748429  1
  Ga  Ga47  1  0.83033269  0.35329975  0.47916487  1
  Ga  Ga48  1  0.17711251  0.67141177  0.01993361  1
  Ga  Ga49  1  0.68526527  0.65129876  0.01792877  1
  Ga  Ga50  1  0.18437191  0.71593663  0.51996390  1
  Ga  Ga51  1  0.67363619  0.66651820  0.52113364  1
  Ga  Ga52  1  0.66238728  0.66647653  0.31568317  1
  Ga  Ga53  1  0.16349376  0.65225133  0.81687609  1
  Si  Si54  1  0.14546382  0.00408399  0.24929008  1
  Si  Si55  1  0.64556012  0.99144407  0.25847758  1
  Si  Si56  1  0.35913034  0.70099891  0.25500099  1
  Si  Si57  1  0.99289330  0.28599257  0.25365790  1
  Si  Si58  1  0.14562840  0.29530709  0.75849491  1
  Si  Si59  1  0.64398648  0.28326872  0.74982769  1
  Si  Si60  1  0.49242506  0.69994360  0.75478492  1
  Si  Si61  1  0.85614448  0.01639963  0.75530125  1
  Si  Si62  1  0.19258496  0.04464280  0.58659138  1
  Si  Si63  1  0.69135210  0.03367797  0.57720700  1
  Si  Si64  1  0.32747954  0.61710143  0.57989174  1
  Si  Si65  1  0.83275660  0.62022440  0.58592432  1
  Si  Si66  1  0.33277147  0.04511475  0.08505765  1
  Si  Si67  1  0.82823568  0.03713174  0.07798537  1
  Si  Si68  1  0.19374520  0.34508084  0.07764549  1
  Si  Si69  1  0.69331210  0.34007469  0.08659298  1
  Si  Si70  1  0.82466449  0.66936707  0.91562673  1
  Si  Si71  1  0.51447568  0.36711219  0.92116970  1
  Si  Si72  1  0.31938624  0.97368946  0.41675591  1
  Si  Si73  1  0.66516761  0.38312988  0.41567757  1
  Si  Si74  1  0.01851080  0.66446952  0.42099550  1
  S  S75  1  0.85583614  0.70696556  0.25073762  1
  S  S76  1  0.50394105  0.30170644  0.25027442  1
  S  S77  1  0.00516210  0.71081859  0.75182629  1
  S  S78  1  0.35362791  0.00282004  0.75139491  1
  S  S79  1  0.47653208  0.33498121  0.58434964  1
  S  S80  1  0.97270136  0.32908050  0.58282837  1
  S  S81  1  0.47331557  0.61641395  0.08288032  1
  S  S82  1  0.97858624  0.61990624  0.08361742  1
  S  S83  1  0.31317730  0.66811634  0.91558234  1
  S  S84  1  0.02413068  0.38468758  0.91870783  1
  S  S85  1  0.16576466  0.94503668  0.91594708  1
  S  S86  1  0.66354027  0.95457117  0.91805356  1
  S  S87  1  0.81482453  0.96104387  0.41600569  1
  S  S88  1  0.16473911  0.37309991  0.41779266  1
  S  S89  1  0.52146293  0.66409709  0.41827777  1
  O  O90  1  0.10340717  0.03403447  0.30947536  1
  O  O91  1  0.60180270  0.01610637  0.31834656  1
  O  O92  1  0.41633134  0.80075353  0.31259188  1
  O  O93  1  0.90175963  0.78279549  0.30973544  1
  O  O94  1  0.49173536  0.19639684  0.30494041  1
  O  O95  1  0.97290231  0.15097962  0.30886250  1
  O  O96  1  0.09651244  0.16817577  0.81398837  1
  O  O97  1  0.60139457  0.16795130  0.80942425  1
  O  O98  1  0.47281556  0.79658283  0.80949237  1
  O  O99  1  0.98760885  0.79356154  0.80376966  1
  O  O100  1  0.40305455  0.02545138  0.80835217  1
  O  O101  1  0.90731108  0.03698212  0.81777813  1
  O  O102  1  0.39658728  0.97047873  0.69871384  1
  O  O103  1  0.90441113  0.97074737  0.69941814  1
  O  O104  1  0.08570743  0.20226885  0.69517772  1
  O  O105  1  0.58667040  0.19234144  0.68830185  1
  O  O106  1  0.01627252  0.81629122  0.69494764  1
  O  O107  1  0.51059895  0.82736401  0.69282736  1
  O  O108  1  0.40134416  0.83247442  0.19553282  1
  O  O109  1  0.90380608  0.82535803  0.19952344  1
  O  O110  1  0.01009677  0.19331198  0.19197731  1
  O  O111  1  0.51292849  0.21064065  0.19503089  1
  O  O112  1  0.08821900  0.98307469  0.18810042  1
  O  O113  1  0.58335626  0.96701523  0.19717355  1
  O  O114  1  0.43226950  0.34976148  0.63679750  1
  O  O115  1  0.93229591  0.34949948  0.63777503  1
  O  O116  1  0.25404403  0.14348765  0.64277144  1
  O  O117  1  0.73782677  0.10439043  0.64282491  1
  O  O118  1  0.31082153  0.51363907  0.64387738  1
  O  O119  1  0.82234114  0.50332321  0.64574691  1
  O  O120  1  0.43167399  0.51333323  0.13729652  1
  O  O121  1  0.93957450  0.51910615  0.13765654  1
  O  O122  1  0.31731145  0.12942844  0.14660406  1
  O  O123  1  0.81204675  0.11357814  0.14053431  1
  O  O124  1  0.23759875  0.36633409  0.14433446  1
  O  O125  1  0.75517208  0.36890787  0.14330553  1
  O  O126  1  0.23845129  0.29336544  0.02397650  1
  O  O127  1  0.72471920  0.29415518  0.02285736  1
  O  O128  1  0.42365133  0.54703093  0.02690609  1
  O  O129  1  0.92790185  0.54622068  0.02696476  1
  O  O130  1  0.36426066  0.17710695  0.02819782  1
  O  O131  1  0.84809907  0.16169219  0.01831842  1
  O  O132  1  0.22224119  0.14990553  0.52220011  1
  O  O133  1  0.73441269  0.16747027  0.52102664  1
  O  O134  1  0.34944615  0.52908588  0.52312537  1
  O  O135  1  0.85873989  0.55465351  0.52469057  1
  O  O136  1  0.43021059  0.31206254  0.52543736  1
  O  O137  1  0.92238638  0.30202191  0.52731761  1
  O  O138  1  0.27043628  0.69550857  0.96864068  1
  O  O139  1  0.78245757  0.72067923  0.97132929  1
  O  O140  1  0.07569011  0.48134501  0.97220437  1
  O  O141  1  0.58168805  0.46114707  0.97863813  1
  O  O142  1  0.15868404  0.84884403  0.97347196  1
  O  O143  1  0.65661613  0.85580815  0.97299334  1
  O  O144  1  0.27860641  0.85677128  0.47532585  1
  O  O145  1  0.77118686  0.84460484  0.46794019  1
  O  O146  1  0.15683932  0.45670027  0.47275574  1
  O  O147  1  0.64767398  0.46349120  0.47814715  1
  O  O148  1  0.08331574  0.70605184  0.47913122  1
  O  O149  1  0.57703875  0.68651986  0.47113852  1
  O  O150  1  0.07246429  0.65086511  0.36125196  1
  O  O151  1  0.56042302  0.64254402  0.36129074  1
  O  O152  1  0.25320946  0.87573538  0.35703324  1
  O  O153  1  0.76410508  0.88802224  0.35854001  1
  O  O154  1  0.17089656  0.47362753  0.36193959  1
  O  O155  1  0.68358117  0.51693490  0.35925138  1
  O  O156  1  0.06356222  0.48014122  0.86150187  1
  O  O157  1  0.57155137  0.49223141  0.86179628  1
  O  O158  1  0.17325404  0.85130928  0.86190104  1
  O  O159  1  0.67180628  0.86476327  0.86288212  1
  O  O160  1  0.26355836  0.65262773  0.85821200  1
  O  O161  1  0.75736026  0.63646156  0.85588088  1
  O  O162  1  0.00776273  0.84026375  0.41087334  1
  O  O163  1  0.51337736  0.82282667  0.41687422  1
  O  O164  1  0.41530057  0.00246627  0.40674379  1
  O  O165  1  0.90035150  0.96971197  0.41314146  1
  O  O166  1  0.08638442  0.19414087  0.41454926  1
  O  O167  1  0.58030286  0.18787016  0.41125992  1
  O  O168  1  0.01750324  0.21007023  0.91884337  1
  O  O169  1  0.50994298  0.17762291  0.91066363  1
  O  O170  1  0.08734152  0.95946636  0.91242199  1
  O  O171  1  0.58724700  0.97927830  0.91448468  1
  O  O172  1  0.39954045  0.82610618  0.91320827  1
  O  O173  1  0.91898194  0.84450679  0.90717725  1
  O  O174  1  0.48689408  0.17428330  0.58755696  1
  O  O175  1  0.98304913  0.16658211  0.58757644  1
  O  O176  1  0.09333816  0.02786798  0.59400571  1
  O  O177  1  0.59223194  0.02183379  0.58364157  1
  O  O178  1  0.41220081  0.81837951  0.58766791  1
  O  O179  1  0.92013719  0.81570139  0.59426164  1
  O  O180  1  0.48492209  0.80029302  0.08804501  1
  O  O181  1  0.98760063  0.80021343  0.08720628  1
  O  O182  1  0.41914928  0.02113387  0.09362361  1
  O  O183  1  0.91328499  0.00713001  0.08674160  1
  O  O184  1  0.09342995  0.15975550  0.08312826  1
  O  O185  1  0.59435116  0.16000721  0.09460057  1
  O  O186  1  0.34548882  0.15748149  0.74473113  1
  O  O187  1  0.84495481  0.18381829  0.74361643  1
  O  O188  1  0.24143013  0.31875949  0.75184578  1
  O  O189  1  0.74243442  0.31669174  0.74645526  1
  O  O190  1  0.41187639  0.50861596  0.74300860  1
  O  O191  1  0.92896322  0.53734279  0.74491210  1
  O  O192  1  0.34588385  0.50875167  0.24425602  1
  O  O193  1  0.84765542  0.53555650  0.24528872  1
  O  O194  1  0.42611650  0.31741803  0.24359068  1
  O  O195  1  0.91164539  0.31441370  0.24247544  1
  O  O196  1  0.24346212  0.16886747  0.24722354  1
  O  O197  1  0.74135200  0.16081629  0.25057967  1
  O  O198  1  0.31826949  0.50854654  0.92041909  1
  O  O199  1  0.82306270  0.48320905  0.92309582  1
  O  O200  1  0.42139681  0.35980034  0.92174739  1
  O  O201  1  0.93560996  0.36028692  0.91959762  1
  O  O202  1  0.24557666  0.11798781  0.91690608  1
  O  O203  1  0.74422822  0.12896034  0.91652310  1
  O  O204  1  0.32480960  0.16695855  0.42233348  1
  O  O205  1  0.82355459  0.13411697  0.42283604  1
  O  O206  1  0.24277673  0.35274086  0.41697865  1
  O  O207  1  0.75278830  0.36434452  0.41845459  1
  O  O208  1  0.43594104  0.50454160  0.42131242  1
  O  O209  1  0.92366731  0.49095105  0.42186753  1
  O  O210  1  0.17336276  0.50267109  0.07119229  1
  O  O211  1  0.67166623  0.49800335  0.08249217  1
  O  O212  1  0.06863405  0.65391335  0.07746146  1
  O  O213  1  0.56166546  0.64481632  0.08062014  1
  O  O214  1  0.24417774  0.85726805  0.07613904  1
  O  O215  1  0.73959260  0.84726900  0.07195454  1
  O  O216  1  0.16956006  0.84235517  0.58450866  1
  O  O217  1  0.67237778  0.83679578  0.56976654  1
  O  O218  1  0.23886177  0.62952961  0.57304005  1
  O  O219  1  0.74467292  0.63187755  0.58079213  1
  O  O220  1  0.06130330  0.47672519  0.57993018  1
  O  O221  1  0.56562193  0.48552620  0.58237401  1
  O  O222  1  0.15440137  0.82561887  0.25026160  1
  O  O223  1  0.65916195  0.81866679  0.25847240  1
  O  O224  1  0.26062963  0.68107786  0.25912455  1
  O  O225  1  0.77045364  0.70010380  0.25107903  1
  O  O226  1  0.08659522  0.46663186  0.25862533  1
  O  O227  1  0.58337453  0.47306754  0.25206568  1
  O  O228  1  0.15749859  0.49355286  0.75873422  1
  O  O229  1  0.65357708  0.48019815  0.75130030  1
  O  O230  1  0.08558791  0.70285161  0.75720600  1
  O  O231  1  0.58599696  0.70520270  0.75994490  1
  O  O232  1  0.26680351  0.84012840  0.75534835  1
  O  O233  1  0.75878709  0.83851091  0.75770178  1
