# generated using pymatgen
data_Na5Y2Nb2Si3(PO8)3
_symmetry_space_group_name_H-M   'P 1'
_cell_length_a   9.19031108
_cell_length_b   9.21632375
_cell_length_c   22.75994113
_cell_angle_alpha   90.54923197
_cell_angle_beta   89.63960846
_cell_angle_gamma   119.58373911
_symmetry_Int_Tables_number   1
_chemical_formula_structural   Na5Y2Nb2Si3(PO8)3
_chemical_formula_sum   'Na15 Y6 Nb6 Si9 P9 O72'
_cell_volume   1676.39156743
_cell_formula_units_Z   3
loop_
 _symmetry_equiv_pos_site_id
 _symmetry_equiv_pos_as_xyz
  1  'x, y, z'
loop_
 _atom_site_type_symbol
 _atom_site_label
 _atom_site_symmetry_multiplicity
 _atom_site_fract_x
 _atom_site_fract_y
 _atom_site_fract_z
 _atom_site_occupancy
  Na  Na0  1  0.99148235  0.63302333  0.24412238  1
  Na  Na1  1  0.36215758  0.01004556  0.74459636  1
  Na  Na2  1  0.03768504  0.69390015  0.57914102  1
  Na  Na3  1  0.64921539  0.96919077  0.58118578  1
  Na  Na4  1  0.30270081  0.95991517  0.07892881  1
  Na  Na5  1  0.02835152  0.35219881  0.08356921  1
  Na  Na6  1  0.98401179  0.68006343  0.91581614  1
  Na  Na7  1  0.97387270  0.30340020  0.41101403  1
  Na  Na8  1  0.32248209  0.01886761  0.41587578  1
  Na  Na9  1  0.98722191  0.98806309  0.49561309  1
  Na  Na10  1  0.99527528  0.00278812  0.99537776  1
  Na  Na11  1  0.67440807  0.32404125  0.83147830  1
  Na  Na12  1  0.66469745  0.32919465  0.32951195  1
  Na  Na13  1  0.35381364  0.65752052  0.16517318  1
  Na  Na14  1  0.33885646  0.64199086  0.66399043  1
  Y  Y15  1  0.98846490  0.99539493  0.35069153  1
  Y  Y16  1  0.99812903  0.01002120  0.85294834  1
  Y  Y17  1  0.67023964  0.33849998  0.68747196  1
  Y  Y18  1  0.66269125  0.32928154  0.18648812  1
  Y  Y19  1  0.33993631  0.66500294  0.01738716  1
  Y  Y20  1  0.34025408  0.66467218  0.51787394  1
  Nb  Nb21  1  0.99763527  0.00048034  0.64758440  1
  Nb  Nb22  1  0.99923759  0.00176417  0.14793824  1
  Nb  Nb23  1  0.65627224  0.33155061  0.98081813  1
  Nb  Nb24  1  0.66303933  0.33797322  0.48083542  1
  Nb  Nb25  1  0.33393644  0.66502265  0.31508964  1
  Nb  Nb26  1  0.34372504  0.67204408  0.81454342  1
  Si  Si27  1  0.01181328  0.30630633  0.25319601  1
  Si  Si28  1  0.69679273  0.99103272  0.75070107  1
  Si  Si29  1  0.36670794  0.04414604  0.58512252  1
  Si  Si30  1  0.67468920  0.63508814  0.58579904  1
  Si  Si31  1  0.95466118  0.63168904  0.08418271  1
  Si  Si32  1  0.36309500  0.32510499  0.08564762  1
  Si  Si33  1  0.34316974  0.96826730  0.91957936  1
  Si  Si34  1  0.62724402  0.97022157  0.41936177  1
  Si  Si35  1  0.03205217  0.65930075  0.41936800  1
  P  P36  1  0.28931739  0.98713427  0.25142476  1
  P  P37  1  0.69952971  0.71269913  0.24850184  1
  P  P38  1  0.28399238  0.29773507  0.75003609  1
  P  P39  1  0.01386055  0.71264705  0.75191378  1
  P  P40  1  0.95380894  0.32146696  0.58142111  1
  P  P41  1  0.67823656  0.04721616  0.08167355  1
  P  P42  1  0.62486288  0.65209162  0.91537824  1
  P  P43  1  0.03293862  0.38052622  0.91771709  1
  P  P44  1  0.34525601  0.37765132  0.41427414  1
  O  O45  1  0.20974935  0.00348243  0.30777910  1
  O  O46  1  0.80543604  0.78509049  0.30311161  1
  O  O47  1  0.99438055  0.20963632  0.31261047  1
  O  O48  1  0.21093497  0.18970960  0.80370703  1
  O  O49  1  0.99913447  0.79451569  0.80797830  1
  O  O50  1  0.80396306  0.01043311  0.80676210  1
  O  O51  1  0.80168486  0.97571326  0.69084190  1
  O  O52  1  0.16644875  0.19824902  0.69569457  1
  O  O53  1  0.03348639  0.83167015  0.69741169  1
  O  O54  1  0.80070901  0.83010496  0.19503304  1
  O  O55  1  0.02123490  0.19122761  0.19477290  1
  O  O56  1  0.16905502  0.96787033  0.19733909  1
  O  O57  1  0.87371220  0.34944077  0.63523182  1
  O  O58  1  0.48208024  0.11789576  0.64179965  1
  O  O59  1  0.65979260  0.52961443  0.64155358  1
  O  O60  1  0.88362055  0.51721482  0.14119371  1
  O  O61  1  0.64750458  0.12051832  0.13690866  1
  O  O62  1  0.47082659  0.34444740  0.14147681  1
  O  O63  1  0.46921717  0.30233282  0.02680324  1
  O  O64  1  0.83091681  0.52540728  0.02590962  1
  O  O65  1  0.70191136  0.16697462  0.02841679  1
  O  O66  1  0.47446515  0.16861591  0.52679983  1
  O  O67  1  0.69578719  0.52941203  0.52674563  1
  O  O68  1  0.83844475  0.29826312  0.52595993  1
  O  O69  1  0.55099541  0.67807029  0.97100428  1
  O  O70  1  0.12325508  0.45449381  0.97566264  1
  O  O71  1  0.31730117  0.86439641  0.97815404  1
  O  O72  1  0.55123662  0.87359285  0.47934009  1
  O  O73  1  0.30509665  0.44650939  0.46862648  1
  O  O74  1  0.13420234  0.67887857  0.47805486  1
  O  O75  1  0.14202993  0.63541396  0.36135192  1
  O  O76  1  0.49714561  0.85381785  0.36320390  1
  O  O77  1  0.36435938  0.49314916  0.36050171  1
  O  O78  1  0.14087460  0.49993679  0.86577771  1
  O  O79  1  0.36191117  0.85486375  0.86157247  1
  O  O80  1  0.50926757  0.63644465  0.86133721  1
  O  O81  1  0.02165234  0.82704077  0.41222571  1
  O  O82  1  0.82036515  0.01559119  0.41499527  1
  O  O83  1  0.20260181  0.19811377  0.40640184  1
  O  O84  1  0.00312989  0.20333818  0.91289159  1
  O  O85  1  0.17682757  0.98233788  0.91193983  1
  O  O86  1  0.80525550  0.79346276  0.90898793  1
  O  O87  1  0.95646624  0.15255844  0.58626134  1
  O  O88  1  0.18177918  0.03546282  0.59196025  1
  O  O89  1  0.85746327  0.81751448  0.58969870  1
  O  O90  1  0.96524618  0.81726597  0.09236959  1
  O  O91  1  0.84810870  0.04509715  0.08642374  1
  O  O92  1  0.18134853  0.14233203  0.09047318  1
  O  O93  1  0.64844724  0.13642723  0.74823848  1
  O  O94  1  0.45835204  0.31930182  0.74216988  1
  O  O95  1  0.86898888  0.53663484  0.74584528  1
  O  O96  1  0.67963562  0.53922747  0.24146304  1
  O  O97  1  0.86049609  0.34729197  0.24893318  1
  O  O98  1  0.46540906  0.13180278  0.24516121  1
  O  O99  1  0.63105379  0.48455696  0.91915555  1
  O  O100  1  0.86286127  0.38280895  0.91794227  1
  O  O101  1  0.51927600  0.15123308  0.92398938  1
  O  O102  1  0.62305506  0.15016882  0.42045979  1
  O  O103  1  0.51159673  0.37164253  0.42033035  1
  O  O104  1  0.85136314  0.48067944  0.42240610  1
  O  O105  1  0.31613509  0.47007923  0.07960403  1
  O  O106  1  0.14621243  0.66916720  0.07741289  1
  O  O107  1  0.52935608  0.87252263  0.07421409  1
  O  O108  1  0.32874612  0.85330409  0.57830502  1
  O  O109  1  0.52699139  0.67926305  0.58196167  1
  O  O110  1  0.12872788  0.47079693  0.57522888  1
  O  O111  1  0.28980565  0.81590040  0.25327664  1
  O  O112  1  0.52831061  0.70711312  0.25338598  1
  O  O113  1  0.19096931  0.49094958  0.25579660  1
  O  O114  1  0.29046502  0.46947712  0.75560001  1
  O  O115  1  0.18492718  0.71003301  0.75388109  1
  O  O116  1  0.51124735  0.80859152  0.75715102  1
