# generated using pymatgen
data_Na4MgTiSi(PO6)2
_symmetry_space_group_name_H-M   'P 1'
_cell_length_a   8.97175457
_cell_length_b   8.98000831
_cell_length_c   21.92786831
_cell_angle_alpha   90.00210931
_cell_angle_beta   90.00000000
_cell_angle_gamma   119.96960023
_symmetry_Int_Tables_number   1
_chemical_formula_structural   Na4MgTiSi(PO6)2
_chemical_formula_sum   'Na24 Mg6 Ti6 Si6 P12 O72'
_cell_volume   1530.43230389
_cell_formula_units_Z   6
loop_
 _symmetry_equiv_pos_site_id
 _symmetry_equiv_pos_as_xyz
  1  'x, y, z'
loop_
 _atom_site_type_symbol
 _atom_site_label
 _atom_site_symmetry_multiplicity
 _atom_site_fract_x
 _atom_site_fract_y
 _atom_site_fract_z
 _atom_site_occupancy
  Na  Na0  1  0.64143097  0.01141607  0.24598140  1
  Na  Na1  1  0.36926953  0.35716254  0.25008027  1
  Na  Na2  1  0.99086084  0.62559070  0.24362622  1
  Na  Na3  1  0.63472985  0.62559070  0.74362622  1
  Na  Na4  1  0.98789301  0.35716254  0.75008027  1
  Na  Na5  1  0.36998509  0.01141607  0.74598140  1
  Na  Na6  1  0.30744312  0.34545513  0.58316638  1
  Na  Na7  1  0.03439298  0.69420472  0.57985471  1
  Na  Na8  1  0.65364216  0.95881627  0.57669953  1
  Na  Na9  1  0.30517511  0.95881627  0.07669953  1
  Na  Na10  1  0.65981274  0.69420472  0.07985471  1
  Na  Na11  1  0.03801301  0.34545513  0.08316638  1
  Na  Na12  1  0.97938960  0.68203979  0.91597767  1
  Na  Na13  1  0.70461650  0.03129526  0.91070199  1
  Na  Na14  1  0.32379333  0.29491026  0.91260819  1
  Na  Na15  1  0.97111594  0.29491026  0.41260819  1
  Na  Na16  1  0.32667777  0.03129526  0.41070199  1
  Na  Na17  1  0.70264919  0.68203979  0.41597767  1
  Na  Na18  1  0.99794458  0.00189081  0.49617128  1
  Na  Na19  1  0.00394623  0.00189081  0.99617128  1
  Na  Na20  1  0.66545450  0.32885020  0.82989434  1
  Na  Na21  1  0.66339670  0.32885020  0.32989434  1
  Na  Na22  1  0.32761844  0.66410162  0.16335340  1
  Na  Na23  1  0.33648218  0.66410162  0.66335340  1
  Mg  Mg24  1  0.00112552  0.00128343  0.35163061  1
  Mg  Mg25  1  0.00015791  0.00128343  0.85163061  1
  Mg  Mg26  1  0.66534771  0.33064538  0.68491207  1
  Mg  Mg27  1  0.66529867  0.33064538  0.18491207  1
  Mg  Mg28  1  0.33025712  0.66903655  0.01832593  1
  Mg  Mg29  1  0.33877843  0.66903655  0.51832593  1
  Ti  Ti30  1  0.98728001  0.99282279  0.64782469  1
  Ti  Ti31  1  0.00554278  0.99282279  0.14782469  1
  Ti  Ti32  1  0.66853194  0.33544549  0.98123674  1
  Ti  Ti33  1  0.66691455  0.33544549  0.48123674  1
  Ti  Ti34  1  0.33905459  0.67931660  0.31472477  1
  Ti  Ti35  1  0.34026101  0.67931660  0.81472477  1
  Si  Si36  1  0.29543778  -0.00094386  0.25354444  1
  Si  Si37  1  0.70361836  -0.00094386  0.75354444  1
  Si  Si38  1  0.66636221  0.62644328  0.58657922  1
  Si  Si39  1  0.96008207  0.62644328  0.08657922  1
  Si  Si40  1  0.33551050  0.96610930  0.91990595  1
  Si  Si41  1  0.63059780  0.96610930  0.41990595  1
  P  P42  1  0.70591763  0.70910612  0.25187230  1
  P  P43  1  0.00463384  0.29296130  0.25103224  1
  P  P44  1  0.28832746  0.29296130  0.75103224  1
  P  P45  1  0.00318849  0.70910612  0.75187230  1
  P  P46  1  0.95674204  0.32977979  0.58500843  1
  P  P47  1  0.37071612  0.04235665  0.58462452  1
  P  P48  1  0.67164153  0.04235665  0.08462452  1
  P  P49  1  0.37303875  0.32977979  0.08500843  1
  P  P50  1  0.62321874  0.66296829  0.91860038  1
  P  P51  1  0.04159939  0.37850883  0.91830498  1
  P  P52  1  0.33690844  0.37850883  0.41830498  1
  P  P53  1  0.03974855  0.66296829  0.41860038  1
  O  O54  1  0.20792273  0.02340315  0.31276117  1
  O  O55  1  0.80945742  0.79292969  0.30894402  1
  O  O56  1  0.98192980  0.18830987  0.30829062  1
  O  O57  1  0.20638008  0.18830987  0.80829062  1
  O  O58  1  0.98347227  0.79292969  0.80894402  1
  O  O59  1  0.81548042  0.02340315  0.81276117  1
  O  O60  1  0.80594154  0.97076767  0.69226980  1
  O  O61  1  0.17412342  0.19775118  0.69321282  1
  O  O62  1  0.02737402  0.82391548  0.69368449  1
  O  O63  1  0.79654146  0.82391548  0.19368449  1
  O  O64  1  0.02362776  0.19775118  0.19321282  1
  O  O65  1  0.16482613  0.97076767  0.19226980  1
  O  O66  1  0.87435198  0.34999068  0.64238986  1
  O  O67  1  0.47672251  0.12126188  0.64178302  1
  O  O68  1  0.64715966  0.51632504  0.64587253  1
  O  O69  1  0.86916638  0.51632504  0.14587253  1
  O  O70  1  0.64454037  0.12126188  0.14178302  1
  O  O71  1  0.47563970  0.34999068  0.14238986  1
  O  O72  1  0.46415876  0.30424297  0.02717100  1
  O  O73  1  0.83143423  0.52624325  0.02516750  1
  O  O74  1  0.68958858  0.15862494  0.02695750  1
  O  O75  1  0.46903736  0.15862494  0.52695750  1
  O  O76  1  0.69481002  0.52624325  0.52516750  1
  O  O77  1  0.84008521  0.30424297  0.52717100  1
  O  O78  1  0.53857633  0.68120202  0.97575793  1
  O  O79  1  0.14562722  0.45928060  0.97566907  1
  O  O80  1  0.30915373  0.85156431  0.97851313  1
  O  O81  1  0.54240958  0.85156431  0.47851313  1
  O  O82  1  0.31365238  0.45928060  0.47566907  1
  O  O83  1  0.14262469  0.68120202  0.47575793  1
  O  O84  1  0.13221602  0.64001713  0.36062030  1
  O  O85  1  0.49880561  0.86095517  0.35855145  1
  O  O86  1  0.35923758  0.49199234  0.36041613  1
  O  O87  1  0.13275376  0.49199234  0.86041613  1
  O  O88  1  0.36214855  0.86095517  0.85855145  1
  O  O89  1  0.50780011  0.64001713  0.86062030  1
  O  O90  1  0.01239091  0.81825507  0.41290821  1
  O  O91  1  0.82128293  0.99248320  0.41182052  1
  O  O92  1  0.18223713  0.19566666  0.41267328  1
  O  O93  1  0.01342953  0.19566666  0.91267328  1
  O  O94  1  0.17120026  0.99248320  0.91182052  1
  O  O95  1  0.80586416  0.81825507  0.91290821  1
  O  O96  1  0.97109140  0.16201820  0.58701809  1
  O  O97  1  0.19383214  0.03692701  0.58597402  1
  O  O98  1  0.84996949  0.81985880  0.58829809  1
  O  O99  1  0.96988932  0.81985880  0.08829809  1
  O  O100  1  0.84309487  0.03692701  0.08597402  1
  O  O101  1  0.19092680  0.16201820  0.08701809  1
  O  O102  1  0.67371669  0.16075678  0.74544841  1
  O  O103  1  0.47101749  0.31887272  0.74555900  1
  O  O104  1  0.84830515  0.52647418  0.74616588  1
  O  O105  1  0.67817004  0.52647418  0.24616588  1
  O  O106  1  0.84785623  0.31887272  0.24555900  1
  O  O107  1  0.48704109  0.16075678  0.24544841  1
  O  O108  1  0.63466940  0.49337981  0.91982799  1
  O  O109  1  0.86010189  0.36748975  0.92074058  1
  O  O110  1  0.51680753  0.15480193  0.92128781  1
  O  O111  1  0.63799539  0.15480193  0.42128781  1
  O  O112  1  0.50738886  0.36748975  0.42074058  1
  O  O113  1  0.85871141  0.49337981  0.41982799  1
  O  O114  1  0.34899154  0.48667962  0.07797819  1
  O  O115  1  0.15161272  0.65375126  0.08064991  1
  O  O116  1  0.51927618  0.85834757  0.07786162  1
  O  O117  1  0.33907039  0.85834757  0.57786162  1
  O  O118  1  0.50213755  0.65375126  0.58064991  1
  O  O119  1  0.13768708  0.48667962  0.57797819  1
  O  O120  1  0.30203525  0.81539329  0.25486361  1
  O  O121  1  0.52398485  0.69632839  0.25373064  1
  O  O122  1  0.17424972  0.47216513  0.25291915  1
  O  O123  1  0.29791441  0.47216513  0.75291915  1
  O  O124  1  0.17234253  0.69632839  0.75373064  1
  O  O125  1  0.51335704  0.81539329  0.75486361  1
