# generated using pymatgen
data_Na4Mg2P2SO12
_symmetry_space_group_name_H-M   'P 1'
_cell_length_a   9.03554838
_cell_length_b   9.00061279
_cell_length_c   21.95029272
_cell_angle_alpha   89.95137775
_cell_angle_beta   90.00000000
_cell_angle_gamma   120.12848120
_symmetry_Int_Tables_number   1
_chemical_formula_structural   Na4Mg2P2SO12
_chemical_formula_sum   'Na24 Mg12 P12 S6 O72'
_cell_volume   1543.95134944
_cell_formula_units_Z   6
loop_
 _symmetry_equiv_pos_site_id
 _symmetry_equiv_pos_as_xyz
  1  'x, y, z'
loop_
 _atom_site_type_symbol
 _atom_site_label
 _atom_site_symmetry_multiplicity
 _atom_site_fract_x
 _atom_site_fract_y
 _atom_site_fract_z
 _atom_site_occupancy
  Na  Na0  1  0.63400482  0.00688949  0.25476695  1
  Na  Na1  1  0.35511611  0.35384009  0.24642889  1
  Na  Na2  1  0.00753054  0.63282708  0.24858007  1
  Na  Na3  1  0.62529655  0.63282708  0.74858007  1
  Na  Na4  1  0.99872398  0.35384009  0.74642889  1
  Na  Na5  1  0.37288468  0.00688949  0.75476695  1
  Na  Na6  1  0.30067182  0.34022249  0.58809995  1
  Na  Na7  1  0.02178311  0.68717309  0.57976189  1
  Na  Na8  1  0.67419754  0.96616008  0.58191307  1
  Na  Na9  1  0.29196355  0.96616008  0.08191307  1
  Na  Na10  1  0.66539098  0.68717309  0.07976189  1
  Na  Na11  1  0.03955168  0.34022249  0.08809995  1
  Na  Na12  1  0.96733782  0.67355649  0.92143395  1
  Na  Na13  1  0.68844911  0.02050709  0.91309589  1
  Na  Na14  1  0.34086354  0.29949408  0.91524707  1
  Na  Na15  1  0.95862955  0.29949408  0.41524707  1
  Na  Na16  1  0.33205698  0.02050709  0.41309589  1
  Na  Na17  1  0.70621768  0.67355649  0.42143395  1
  Na  Na18  1  0.98639857  0.99216505  0.49997856  1
  Na  Na19  1  0.00576649  0.99216505  0.99997856  1
  Na  Na20  1  0.65306557  0.32549805  0.83331156  1
  Na  Na21  1  0.67243349  0.32549805  0.33331156  1
  Na  Na22  1  0.31973157  0.65883205  0.16664556  1
  Na  Na23  1  0.33909949  0.65883205  0.66664556  1
  Mg  Mg24  1  0.00098480  0.00163313  0.34894212  1
  Mg  Mg25  1  0.00064832  0.00163313  0.84894212  1
  Mg  Mg26  1  0.99254239  0.00516311  0.65098187  1
  Mg  Mg27  1  0.01262072  0.00516311  0.15098187  1
  Mg  Mg28  1  0.66765180  0.33496613  0.68227512  1
  Mg  Mg29  1  0.66731532  0.33496613  0.18227512  1
  Mg  Mg30  1  0.65920939  0.33849611  0.98431487  1
  Mg  Mg31  1  0.67928772  0.33849611  0.48431487  1
  Mg  Mg32  1  0.33431780  0.66830013  0.01560912  1
  Mg  Mg33  1  0.33398132  0.66830013  0.51560912  1
  Mg  Mg34  1  0.32587539  0.67183011  0.31764887  1
  Mg  Mg35  1  0.34595372  0.67183011  0.81764887  1
  P  P36  1  0.29869498  0.00091882  0.25023092  1
  P  P37  1  0.99976522  0.29560390  0.25002296  1
  P  P38  1  0.29583868  0.29560390  0.75002296  1
  P  P39  1  0.70222384  0.00091882  0.75023092  1
  P  P40  1  0.96536198  0.33425182  0.58356392  1
  P  P41  1  0.66643222  0.62893690  0.58335596  1
  P  P42  1  0.96250568  0.62893690  0.08335596  1
  P  P43  1  0.36889084  0.33425182  0.08356392  1
  P  P44  1  0.63202798  0.66758582  0.91689792  1
  P  P45  1  0.33309822  0.96227090  0.91668996  1
  P  P46  1  0.62917168  0.96227090  0.41668996  1
  P  P47  1  0.03555684  0.66758582  0.41689792  1
  S  S48  1  0.70470003  0.70527296  0.24991428  1
  S  S49  1  0.00057293  0.70527296  0.74991428  1
  S  S50  1  0.37136703  0.03860596  0.58324728  1
  S  S51  1  0.66723993  0.03860596  0.08324728  1
  S  S52  1  0.03803303  0.37193996  0.91658128  1
  S  S53  1  0.33390593  0.37193996  0.41658128  1
  O  O54  1  0.21570118  0.02959583  0.30733353  1
  O  O55  1  0.81099934  0.78579766  0.30455389  1
  O  O56  1  0.97026623  0.18321412  0.30703801  1
  O  O57  1  0.21294789  0.18321412  0.80703801  1
  O  O58  1  0.97479832  0.78579766  0.80455389  1
  O  O59  1  0.81389465  0.02959583  0.80733353  1
  O  O60  1  0.78358940  0.96875039  0.69361371  1
  O  O61  1  0.18662345  0.21048196  0.69265340  1
  O  O62  1  0.02846931  0.81265005  0.69493820  1
  O  O63  1  0.78418074  0.81265005  0.19493820  1
  O  O64  1  0.02385851  0.21048196  0.19265340  1
  O  O65  1  0.18516099  0.96875039  0.19361371  1
  O  O66  1  0.88236818  0.36292883  0.64066653  1
  O  O67  1  0.47766634  0.11913066  0.63788689  1
  O  O68  1  0.63693323  0.51654712  0.64037101  1
  O  O69  1  0.87961489  0.51654712  0.14037101  1
  O  O70  1  0.64146532  0.11913066  0.13788689  1
  O  O71  1  0.48056165  0.36292883  0.14066653  1
  O  O72  1  0.45025640  0.30208339  0.02694671  1
  O  O73  1  0.85329045  0.54381496  0.02598640  1
  O  O74  1  0.69513631  0.14598305  0.02827120  1
  O  O75  1  0.45084774  0.14598305  0.52827120  1
  O  O76  1  0.69052551  0.54381496  0.52598640  1
  O  O77  1  0.85182799  0.30208339  0.52694671  1
  O  O78  1  0.54903418  0.69626283  0.97400053  1
  O  O79  1  0.14433234  0.45246466  0.97122089  1
  O  O80  1  0.30359923  0.84988112  0.97370501  1
  O  O81  1  0.54628089  0.84988112  0.47370501  1
  O  O82  1  0.30813132  0.45246466  0.47122089  1
  O  O83  1  0.14722765  0.69626283  0.47400053  1
  O  O84  1  0.11692240  0.63541739  0.36028071  1
  O  O85  1  0.51995645  0.87714896  0.35932040  1
  O  O86  1  0.36180231  0.47931705  0.36160520  1
  O  O87  1  0.11751374  0.47931705  0.86160520  1
  O  O88  1  0.35719151  0.87714896  0.85932040  1
  O  O89  1  0.51849399  0.63541739  0.86028071  1
  O  O90  1  0.01833572  0.83135295  0.41098073  1
  O  O91  1  0.81187816  0.98490153  0.41184085  1
  O  O92  1  0.17821374  0.19873673  0.41148451  1
  O  O93  1  0.02052299  0.19873673  0.91148451  1
  O  O94  1  0.17302338  0.98490153  0.91184085  1
  O  O95  1  0.81301723  0.83135295  0.91098073  1
  O  O96  1  0.98747336  0.17340038  0.58821818  1
  O  O97  1  0.19766484  0.01766950  0.58909116  1
  O  O98  1  0.83237230  0.80913528  0.58840722  1
  O  O99  1  0.97676298  0.80913528  0.08840722  1
  O  O100  1  0.82000465  0.01766950  0.08909116  1
  O  O101  1  0.18592702  0.17340038  0.08821818  1
  O  O102  1  0.68500272  0.16468595  0.74431373  1
  O  O103  1  0.47854516  0.31823453  0.74517385  1
  O  O104  1  0.84488074  0.53206973  0.74481751  1
  O  O105  1  0.68718999  0.53206973  0.24481751  1
  O  O106  1  0.83969038  0.31823453  0.24517385  1
  O  O107  1  0.47968423  0.16468595  0.24431373  1
  O  O108  1  0.65414036  0.50673338  0.92155118  1
  O  O109  1  0.86433184  0.35100250  0.92242416  1
  O  O110  1  0.49903930  0.14246828  0.92174022  1
  O  O111  1  0.64342998  0.14246828  0.42174022  1
  O  O112  1  0.48667165  0.35100250  0.42242416  1
  O  O113  1  0.85259402  0.50673338  0.42155118  1
  O  O114  1  0.35166872  0.49801995  0.07764773  1
  O  O115  1  0.14521116  0.65156853  0.07850785  1
  O  O116  1  0.51154674  0.86540373  0.07815151  1
  O  O117  1  0.35385599  0.86540373  0.57815151  1
  O  O118  1  0.50635638  0.65156853  0.57850785  1
  O  O119  1  0.14635023  0.49801995  0.57764773  1
  O  O120  1  0.32080636  0.84006738  0.25488518  1
  O  O121  1  0.53099784  0.68433650  0.25575816  1
  O  O122  1  0.16570530  0.47580228  0.25507422  1
  O  O123  1  0.31009598  0.47580228  0.75507422  1
  O  O124  1  0.15333765  0.68433650  0.75575816  1
  O  O125  1  0.51926002  0.84006738  0.75488518  1
