# generated using pymatgen
data_MgFe4(PO3)12
_symmetry_space_group_name_H-M   'P 1'
_cell_length_a   8.56529606
_cell_length_b   8.64361400
_cell_length_c   8.75858962
_cell_angle_alpha   91.13512842
_cell_angle_beta   90.60824851
_cell_angle_gamma   91.38867080
_symmetry_Int_Tables_number   1
_chemical_formula_structural   MgFe4(PO3)12
_chemical_formula_sum   'Mg1 Fe4 P12 O36'
_cell_volume   648.08557002
_cell_formula_units_Z   1
loop_
 _symmetry_equiv_pos_site_id
 _symmetry_equiv_pos_as_xyz
  1  'x, y, z'
loop_
 _atom_site_type_symbol
 _atom_site_label
 _atom_site_symmetry_multiplicity
 _atom_site_fract_x
 _atom_site_fract_y
 _atom_site_fract_z
 _atom_site_occupancy
  Mg  Mg0  1  0.65196900  0.62809000  0.61104700  1
  Fe  Fe1  1  0.88236100  0.65153200  0.33746400  1
  Fe  Fe2  1  0.62787100  0.34894300  0.85266200  1
  Fe  Fe3  1  0.36118700  0.86653700  0.65742500  1
  Fe  Fe4  1  0.12872200  0.14007800  0.14807300  1
  P  P5  1  0.68582900  0.97407800  0.80660900  1
  P  P6  1  0.70263400  0.32048000  0.43271400  1
  P  P7  1  0.80266400  0.69584400  0.94396400  1
  P  P8  1  0.81790500  0.02060400  0.32595100  1
  P  P9  1  0.03257700  0.68108200  0.69291300  1
  P  P10  1  0.18853800  0.51156300  0.19390000  1
  P  P11  1  0.20485100  0.18822500  0.55113000  1
  P  P12  1  0.29822600  0.80302100  0.05528700  1
  P  P13  1  0.31261300  0.48351900  0.69111100  1
  P  P14  1  0.46437600  0.32018500  0.18482300  1
  P  P15  1  0.52991400  0.82609500  0.32188500  1
  P  P16  1  0.96425900  0.17294800  0.80541400  1
  O  O17  1  0.62639700  0.69487200  0.38228100  1
  O  O18  1  0.96805000  0.72488100  0.85768500  1
  O  O19  1  0.89561000  0.88889700  0.40067800  1
  O  O20  1  0.89613400  0.63562300  0.59052400  1
  O  O21  1  0.04858900  0.20980900  0.64695600  1
  O  O22  1  0.10280300  0.37130300  0.12688100  1
  O  O23  1  0.08096400  0.11825000  0.92049100  1
  O  O24  1  0.11932200  0.59827900  0.32479800  1
  O  O25  1  0.13813900  0.81056600  0.63970800  1
  O  O26  1  0.13807300  0.53509200  0.73052900  1
  O  O27  1  0.16190100  0.15146300  0.38891200  1
  O  O28  1  0.18964600  0.91313700  0.13215600  1
  O  O29  1  0.22440500  0.62981200  0.05556100  1
  O  O30  1  0.27886600  0.36235400  0.55283100  1
  O  O31  1  0.31377500  0.08668600  0.63972800  1
  O  O32  1  0.34941400  0.83148800  0.89376600  1
  O  O33  1  0.36194900  0.46395600  0.24385500  1
  O  O34  1  0.35735900  0.18686400  0.13503000  1
  O  O35  1  0.38590700  0.40590800  0.82275200  1
  O  O36  1  0.40662000  0.88093600  0.43034100  1
  O  O37  1  0.40351700  0.62271500  0.62766700  1
  O  O38  1  0.45458700  0.78107700  0.15903100  1
  O  O39  1  0.54221800  0.27358100  0.34434700  1
  O  O40  1  0.86420300  0.30629100  0.84452200  1
  O  O41  1  0.58799900  0.37538400  0.08024800  1
  O  O42  1  0.60812700  0.86796900  0.68252800  1
  O  O43  1  0.89931200  0.09714500  0.19432200  1
  O  O44  1  0.64406500  0.96500400  0.26799200  1
  O  O45  1  0.65498900  0.38463600  0.58789800  1
  O  O46  1  0.69710900  0.59514800  0.84130300  1
  O  O47  1  0.73175600  0.86724900  0.94713900  1
  O  O48  1  0.77325100  0.15033100  0.45424400  1
  O  O49  1  0.81067100  0.41953200  0.34282400  1
  O  O50  1  0.83716900  0.65474000  0.10278100  1
  O  O51  1  0.85491100  0.02531000  0.74578100  1
  O  O52  1  0.59194500  0.10588200  0.85890600  1
