# generated using pymatgen
data_Na10Ti4Nb4Si11SO48
_symmetry_space_group_name_H-M   'P 1'
_cell_length_a   17.95010047
_cell_length_b   8.98570238
_cell_length_c   22.43280159
_cell_angle_alpha   90.03317324
_cell_angle_beta   90.00773751
_cell_angle_gamma   119.99975294
_symmetry_Int_Tables_number   1
_chemical_formula_structural   Na10Ti4Nb4Si11SO48
_chemical_formula_sum   'Na30 Ti12 Nb12 Si33 S3 O144'
_cell_volume   3133.53115384
_cell_formula_units_Z   3
loop_
 _symmetry_equiv_pos_site_id
 _symmetry_equiv_pos_as_xyz
  1  'x, y, z'
loop_
 _atom_site_type_symbol
 _atom_site_label
 _atom_site_symmetry_multiplicity
 _atom_site_fract_x
 _atom_site_fract_y
 _atom_site_fract_z
 _atom_site_occupancy
  Na  Na0  1  0.31649455  0.00012535  0.24974347  1
  Na  Na1  1  0.81633658  0.99983313  0.25022127  1
  Na  Na2  1  0.82022967  0.63828052  0.74940351  1
  Na  Na3  1  0.49555652  0.35991201  0.74845504  1
  Na  Na4  1  0.01665156  0.70256098  0.58452442  1
  Na  Na5  1  0.33228870  0.96847375  0.58522248  1
  Na  Na6  1  0.83502783  0.96563628  0.58417963  1
  Na  Na7  1  0.33357905  0.69940684  0.08599419  1
  Na  Na8  1  0.83422669  0.70006127  0.08684794  1
  Na  Na9  1  0.01666357  0.33041166  0.08551200  1
  Na  Na10  1  0.51433773  0.32783463  0.08563486  1
  Na  Na11  1  0.98581287  0.66674342  0.91331917  1
  Na  Na12  1  0.34857253  0.03224117  0.91603310  1
  Na  Na13  1  0.85363834  0.03505623  0.91538591  1
  Na  Na14  1  0.48383220  0.30053805  0.41369858  1
  Na  Na15  1  0.98424727  0.30078531  0.41311385  1
  Na  Na16  1  0.35155996  0.67051272  0.41433474  1
  Na  Na17  1  0.85108435  0.67104709  0.41428152  1
  Na  Na18  1  0.00932721  0.01005808  0.49912091  1
  Na  Na19  1  0.50881876  0.00154934  0.49838773  1
  Na  Na20  1  0.01034127  0.00954946  0.00075696  1
  Na  Na21  1  0.50712049  0.99770195  0.00167440  1
  Na  Na22  1  0.32848695  0.33943470  0.83040591  1
  Na  Na23  1  0.83174983  0.32666149  0.83223857  1
  Na  Na24  1  0.33196949  0.33748916  0.32840568  1
  Na  Na25  1  0.83167315  0.33723193  0.32807867  1
  Na  Na26  1  0.16333514  0.66330469  0.17106156  1
  Na  Na27  1  0.66287399  0.66281138  0.17224432  1
  Na  Na28  1  0.16716296  0.66072009  0.67332562  1
  Na  Na29  1  0.66292851  0.66781937  0.66446543  1
  Ti  Ti30  1  0.99318344  0.99365439  0.35315100  1
  Ti  Ti31  1  0.49349685  0.99436084  0.35288577  1
  Ti  Ti32  1  0.99796107  0.99786013  0.85443816  1
  Ti  Ti33  1  0.99921460  0.99060486  0.64621962  1
  Ti  Ti34  1  0.99683078  0.00592764  0.14698009  1
  Ti  Ti35  1  0.49529709  0.00503016  0.14691566  1
  Ti  Ti36  1  0.33512582  0.33233886  0.68504243  1
  Ti  Ti37  1  0.34042795  0.34941045  0.18588224  1
  Ti  Ti38  1  0.84056915  0.35030831  0.18620531  1
  Ti  Ti39  1  0.16538054  0.65019824  0.31387147  1
  Ti  Ti40  1  0.66537367  0.65000491  0.31400304  1
  Ti  Ti41  1  0.16808344  0.67881927  0.81442518  1
  Nb  Nb42  1  0.49926206  0.99704262  0.85403310  1
  Nb  Nb43  1  0.49922156  0.99709763  0.64566525  1
  Nb  Nb44  1  0.83641294  0.33261603  0.68938844  1
  Nb  Nb45  1  0.33241099  0.34022861  0.97883789  1
  Nb  Nb46  1  0.83176565  0.33359409  0.98020581  1
  Nb  Nb47  1  0.33073323  0.32938270  0.47893146  1
  Nb  Nb48  1  0.83198551  0.32864604  0.47820683  1
  Nb  Nb49  1  0.16631952  0.66887745  0.02061265  1
  Nb  Nb50  1  0.66626188  0.66933417  0.02206073  1
  Nb  Nb51  1  0.16693865  0.66263076  0.52056051  1
  Nb  Nb52  1  0.66234698  0.66183030  0.52025359  1
  Nb  Nb53  1  0.66616590  0.67247388  0.81105836  1
  Si  Si54  1  0.35394393  0.70620432  0.24969046  1
  Si  Si55  1  0.85411382  0.70707604  0.24945830  1
  Si  Si56  1  0.00075000  0.29287616  0.25043850  1
  Si  Si57  1  0.50072553  0.29311593  0.25040816  1
  Si  Si58  1  0.64537698  0.28770598  0.75006279  1
  Si  Si59  1  0.00544830  0.71641685  0.75106159  1
  Si  Si60  1  0.49518679  0.70399829  0.74932433  1
  Si  Si61  1  0.34897320  0.99467994  0.74989816  1
  Si  Si62  1  0.85953087  0.00362163  0.75001462  1
  Si  Si63  1  0.47838293  0.33595201  0.58453250  1
  Si  Si64  1  0.98061761  0.32981335  0.58387204  1
  Si  Si65  1  0.18766910  0.04808253  0.58608646  1
  Si  Si66  1  0.68716183  0.04470304  0.58399217  1
  Si  Si67  1  0.33293116  0.61690977  0.58491409  1
  Si  Si68  1  0.83197882  0.62152695  0.58431116  1
  Si  Si69  1  0.47934039  0.62999020  0.08523047  1
  Si  Si70  1  0.98002038  0.63062512  0.08473896  1
  Si  Si71  1  0.33112599  0.04764577  0.08592774  1
  Si  Si72  1  0.83186237  0.04677456  0.08711862  1
  Si  Si73  1  0.18780624  0.32551980  0.08645505  1
  Si  Si74  1  0.68725953  0.32485573  0.08683555  1
  Si  Si75  1  0.30809318  0.66252354  0.91402830  1
  Si  Si76  1  0.81148275  0.66485346  0.91546222  1
  Si  Si77  1  0.02542516  0.37681426  0.91421513  1
  Si  Si78  1  0.52185840  0.37700924  0.91665468  1
  Si  Si79  1  0.16568167  0.95929880  0.91484202  1
  Si  Si80  1  0.66481230  0.95769921  0.91719119  1
  Si  Si81  1  0.30838245  0.95397709  0.41291240  1
  Si  Si82  1  0.80766151  0.95151991  0.41366666  1
  Si  Si83  1  0.16458499  0.36953499  0.41448664  1
  Si  Si84  1  0.66454968  0.37016036  0.41497044  1
  Si  Si85  1  0.02565636  0.67532243  0.41453868  1
  Si  Si86  1  0.52443816  0.67448547  0.41324349  1
  S  S87  1  0.14215319  0.99992342  0.25009222  1
  S  S88  1  0.64225730  0.00013520  0.24990887  1
  S  S89  1  0.14251802  0.28468366  0.74982480  1
  O  O90  1  0.10078052  0.02201080  0.30406812  1
  O  O91  1  0.60116552  0.02228296  0.30400735  1
  O  O92  1  0.41426491  0.80202831  0.30906885  1
  O  O93  1  0.91422728  0.80180737  0.30902791  1
  O  O94  1  0.48605477  0.16541671  0.30797940  1
  O  O95  1  0.98583996  0.16525815  0.30805622  1
  O  O96  1  0.10072044  0.17714121  0.80388467  1
  O  O97  1  0.59787651  0.16782042  0.80808706  1
  O  O98  1  0.48522297  0.80323896  0.80756214  1
  O  O99  1  0.98576676  0.80750114  0.80816217  1
  O  O100  1  0.41487481  0.03285277  0.80774157  1
  O  O101  1  0.91526673  0.02630628  0.81020653  1
  O  O102  1  0.39931083  0.97282198  0.69106840  1
  O  O103  1  0.90281543  0.96909330  0.69140782  1
  O  O104  1  0.08867736  0.19953595  0.69587628  1
  O  O105  1  0.58145179  0.19850631  0.69300448  1
  O  O106  1  0.01373789  0.83126131  0.69116808  1
  O  O107  1  0.51352464  0.83157584  0.69218223  1
  O  O108  1  0.40295623  0.83438808  0.19216924  1
  O  O109  1  0.90316922  0.83460302  0.19189856  1
  O  O110  1  0.01311740  0.19754835  0.19100197  1
  O  O111  1  0.51333726  0.19802225  0.19098421  1
  O  O112  1  0.08976658  0.97778450  0.19606221  1
  O  O113  1  0.59006549  0.97813837  0.19596049  1
  O  O114  1  0.43362044  0.36267365  0.64370404  1
  O  O115  1  0.93278776  0.36854925  0.63966443  1
  O  O116  1  0.25393416  0.13820571  0.64114441  1
  O  O117  1  0.75224895  0.13884733  0.64059189  1
  O  O118  1  0.31968592  0.49469367  0.64151859  1
  O  O119  1  0.81906105  0.50444360  0.64320902  1
  O  O120  1  0.43471491  0.49675529  0.14121803  1
  O  O121  1  0.93327249  0.49572643  0.14004598  1
  O  O122  1  0.31868688  0.13675985  0.14488148  1
  O  O123  1  0.81830412  0.13662868  0.14504774  1
  O  O124  1  0.25554811  0.36907215  0.14095893  1
  O  O125  1  0.75548102  0.36940889  0.14084183  1
  O  O126  1  0.23468162  0.30174630  0.02643025  1
  O  O127  1  0.73562173  0.30328863  0.02643957  1
  O  O128  1  0.41612711  0.53433158  0.02725322  1
  O  O129  1  0.91861290  0.53832597  0.02494156  1
  O  O130  1  0.35076579  0.16715626  0.02578338  1
  O  O131  1  0.84980486  0.16580928  0.02627591  1
  O  O132  1  0.23505037  0.16723137  0.52631864  1
  O  O133  1  0.73636066  0.16714438  0.52561368  1
  O  O134  1  0.34682243  0.53198284  0.52370311  1
  O  O135  1  0.85089845  0.53455534  0.52559247  1
  O  O136  1  0.41778750  0.30275827  0.52503314  1
  O  O137  1  0.91896735  0.29863966  0.52476088  1
  O  O138  1  0.26659060  0.69845954  0.97500854  1
  O  O139  1  0.76775735  0.69944184  0.97440462  1
  O  O140  1  0.08110513  0.46477716  0.97609322  1
  O  O141  1  0.58176950  0.46925376  0.97569958  1
  O  O142  1  0.14825918  0.82966667  0.97291914  1
  O  O143  1  0.65366499  0.83513311  0.97480031  1
  O  O144  1  0.26679530  0.83466982  0.47364579  1
  O  O145  1  0.76730440  0.83341365  0.47414901  1
  O  O146  1  0.14938459  0.46710534  0.47267649  1
  O  O147  1  0.64911929  0.46694692  0.47291112  1
  O  O148  1  0.08149013  0.69692197  0.47620428  1
  O  O149  1  0.58348116  0.69821039  0.47351225  1
  O  O150  1  0.07149549  0.63103679  0.36022483  1
  O  O151  1  0.57108057  0.63089800  0.35923824  1
  O  O152  1  0.25012613  0.86362659  0.35486062  1
  O  O153  1  0.75024885  0.86381422  0.35495273  1
  O  O154  1  0.18572904  0.50329196  0.35891043  1
  O  O155  1  0.68619633  0.50333386  0.35897976  1
  O  O156  1  0.06950494  0.51007472  0.85965156  1
  O  O157  1  0.56871013  0.49711267  0.85777041  1
  O  O158  1  0.18529841  0.86730252  0.85908172  1
  O  O159  1  0.68330281  0.86548516  0.85981094  1
  O  O160  1  0.24716147  0.63726618  0.85781474  1
  O  O161  1  0.75242155  0.63839899  0.85655330  1
  O  O162  1  0.00954821  0.83730205  0.40916350  1
  O  O163  1  0.50969896  0.83790673  0.40862505  1
  O  O164  1  0.40506249  0.97351673  0.40954444  1
  O  O165  1  0.90507028  0.97391254  0.40942917  1
  O  O166  1  0.07782600  0.18630760  0.40865212  1
  O  O167  1  0.57812498  0.18658662  0.40848076  1
  O  O168  1  0.01028108  0.18258472  0.90887894  1
  O  O169  1  0.50884772  0.18406195  0.91172418  1
  O  O170  1  0.07859124  0.96984620  0.90823018  1
  O  O171  1  0.58000550  0.97507895  0.91247099  1
  O  O172  1  0.40222015  0.84005704  0.91000360  1
  O  O173  1  0.90678752  0.83804919  0.91044713  1
  O  O174  1  0.48259457  0.15841769  0.58857060  1
  O  O175  1  0.98533603  0.15649196  0.59168698  1
  O  O176  1  0.09123676  0.01977715  0.59096169  1
  O  O177  1  0.59307672  0.02645286  0.58855859  1
  O  O178  1  0.41553085  0.81324133  0.58899314  1
  O  O179  1  0.91963965  0.81199121  0.58983546  1
  O  O180  1  0.48491317  0.81375845  0.09180705  1
  O  O181  1  0.98456824  0.81349351  0.09135787  1
  O  O182  1  0.41762420  0.02540771  0.09082863  1
  O  O183  1  0.91853070  0.02685984  0.09025879  1
  O  O184  1  0.09088838  0.16240248  0.09149862  1
  O  O185  1  0.59064051  0.16263358  0.09089651  1
  O  O186  1  0.34608757  0.17370183  0.74411484  1
  O  O187  1  0.84765721  0.17207067  0.74483437  1
  O  O188  1  0.22865479  0.30012300  0.74478777  1
  O  O189  1  0.74229441  0.31674298  0.74562266  1
  O  O190  1  0.41301654  0.51183256  0.74500788  1
  O  O191  1  0.91449232  0.52894929  0.74436229  1
  O  O192  1  0.34503713  0.51681940  0.24366404  1
  O  O193  1  0.84520629  0.51733454  0.24351065  1
  O  O194  1  0.41014380  0.29669294  0.24520568  1
  O  O195  1  0.91024790  0.29714361  0.24492002  1
  O  O196  1  0.23023278  0.15428821  0.24612803  1
  O  O197  1  0.73058681  0.15474221  0.24605394  1
  O  O198  1  0.32039961  0.49552035  0.92171161  1
  O  O199  1  0.82563857  0.49899454  0.92066917  1
  O  O200  1  0.42565545  0.35269962  0.92209915  1
  O  O201  1  0.92837381  0.35707089  0.92285059  1
  O  O202  1  0.25395887  0.14293120  0.92280626  1
  O  O203  1  0.75493967  0.14162522  0.92238536  1
  O  O204  1  0.32494800  0.15002965  0.42098088  1
  O  O205  1  0.82488193  0.14924726  0.42126221  1
  O  O206  1  0.25421056  0.36527805  0.42135751  1
  O  O207  1  0.75467640  0.36647102  0.42257799  1
  O  O208  1  0.42897036  0.49898571  0.42212320  1
  O  O209  1  0.92928679  0.49899415  0.42259040  1
  O  O210  1  0.17956800  0.50088872  0.07783151  1
  O  O211  1  0.68014500  0.50121073  0.07756019  1
  O  O212  1  0.07169678  0.63425163  0.07844791  1
  O  O213  1  0.57178922  0.63486449  0.07832341  1
  O  O214  1  0.24957340  0.85044483  0.07818125  1
  O  O215  1  0.75028080  0.85028133  0.07898521  1
  O  O216  1  0.17984986  0.85751592  0.57751056  1
  O  O217  1  0.68407235  0.86052557  0.57744906  1
  O  O218  1  0.24937660  0.64621549  0.57771870  1
  O  O219  1  0.75011697  0.65164421  0.57830188  1
  O  O220  1  0.07219168  0.50919873  0.57831340  1
  O  O221  1  0.57358180  0.50620914  0.57858536  1
  O  O222  1  0.15275679  0.84522773  0.25400310  1
  O  O223  1  0.65317291  0.84563731  0.25392358  1
  O  O224  1  0.26159741  0.70304856  0.25515855  1
  O  O225  1  0.76168882  0.70327202  0.25488701  1
  O  O226  1  0.08632390  0.48304635  0.25645560  1
  O  O227  1  0.58657780  0.48308879  0.25643568  1
  O  O228  1  0.15015775  0.45559400  0.75470752  1
  O  O229  1  0.65380852  0.47884209  0.75477910  1
  O  O230  1  0.08738921  0.68952737  0.75605692  1
  O  O231  1  0.58219001  0.68430722  0.75512593  1
  O  O232  1  0.25721330  0.81976761  0.75566162  1
  O  O233  1  0.76399653  0.82684318  0.75526918  1
