# generated using pymatgen
data_Na8TaAl3Si5SO24
_symmetry_space_group_name_H-M   'P 1'
_cell_length_a   8.90196314
_cell_length_b   8.89797729
_cell_length_c   21.76083382
_cell_angle_alpha   89.68358251
_cell_angle_beta   89.96942510
_cell_angle_gamma   120.09362331
_symmetry_Int_Tables_number   1
_chemical_formula_structural   Na8TaAl3Si5SO24
_chemical_formula_sum   'Na24 Ta3 Al9 Si15 S3 O72'
_cell_volume   1491.29296989
_cell_formula_units_Z   3
loop_
 _symmetry_equiv_pos_site_id
 _symmetry_equiv_pos_as_xyz
  1  'x, y, z'
loop_
 _atom_site_type_symbol
 _atom_site_label
 _atom_site_symmetry_multiplicity
 _atom_site_fract_x
 _atom_site_fract_y
 _atom_site_fract_z
 _atom_site_occupancy
  Na  Na0  1  0.62195443  0.99885885  0.25136579  1
  Na  Na1  1  0.36667017  0.36108082  0.25318766  1
  Na  Na2  1  0.00758740  0.63937041  0.24991914  1
  Na  Na3  1  0.63615730  0.62203839  0.74645503  1
  Na  Na4  1  0.99650817  0.36567176  0.74175099  1
  Na  Na5  1  0.35967762  0.00578874  0.74450286  1
  Na  Na6  1  0.29865380  0.33734826  0.58248206  1
  Na  Na7  1  0.03767278  0.70205352  0.58281322  1
  Na  Na8  1  0.66504077  0.96326307  0.58008786  1
  Na  Na9  1  0.29941706  0.96076920  0.08382834  1
  Na  Na10  1  0.66270761  0.70037576  0.08165541  1
  Na  Na11  1  0.03708506  0.33584837  0.08200113  1
  Na  Na12  1  0.96940098  0.67317041  0.91516825  1
  Na  Na13  1  0.70150626  0.02772678  0.91769918  1
  Na  Na14  1  0.32637393  0.29657620  0.91455456  1
  Na  Na15  1  0.97333305  0.30202982  0.41881198  1
  Na  Na16  1  0.33053402  0.02835725  0.41683376  1
  Na  Na17  1  0.69912123  0.67281928  0.41868929  1
  Na  Na18  1  0.00020961  0.00091540  0.50178590  1
  Na  Na19  1  0.99938495  0.99888670  -0.00001290  1
  Na  Na20  1  0.66494169  0.33940701  0.82954140  1
  Na  Na21  1  0.66004071  0.32766452  0.33408025  1
  Na  Na22  1  0.33228283  0.67237357  0.16361905  1
  Na  Na23  1  0.32837448  0.66217446  0.65822067  1
  Ta  Ta24  1  0.66629826  0.33268399  0.98190431  1
  Ta  Ta25  1  0.66758528  0.33486866  0.48090971  1
  Ta  Ta26  1  0.32368925  0.65837600  0.81350900  1
  Al  Al27  1  0.01894143  0.00628762  0.35995222  1
  Al  Al28  1  0.01320082  0.99495934  0.85527107  1
  Al  Al29  1  0.01821016  0.00536483  0.64193691  1
  Al  Al30  1  0.01108387  0.99365228  0.14169174  1
  Al  Al31  1  0.66426429  0.34504448  0.68066729  1
  Al  Al32  1  0.64857741  0.31811002  0.17773761  1
  Al  Al33  1  0.33399261  0.66657385  0.02115320  1
  Al  Al34  1  0.33436560  0.66712914  0.51932778  1
  Al  Al35  1  0.33082909  0.68231932  0.32374104  1
  Si  Si36  1  0.28981357  0.99962742  0.24979758  1
  Si  Si37  1  0.28728358  0.27936723  0.74871157  1
  Si  Si38  1  0.99265892  0.71302578  0.74873746  1
  Si  Si39  1  0.96015857  0.33240058  0.58779117  1
  Si  Si40  1  0.37689406  0.03892032  0.58726974  1
  Si  Si41  1  0.66632963  0.63282252  0.58594447  1
  Si  Si42  1  0.95855892  0.62287829  0.08848860  1
  Si  Si43  1  0.66848354  0.03474409  0.08717931  1
  Si  Si44  1  0.37080236  0.33679077  0.08636072  1
  Si  Si45  1  0.62790415  0.67488194  0.91851471  1
  Si  Si46  1  0.04256033  0.36818656  0.92029333  1
  Si  Si47  1  0.33016688  0.95254300  0.91912910  1
  Si  Si48  1  0.62702090  0.95231713  0.41533465  1
  Si  Si49  1  0.33039255  0.38620466  0.41472576  1
  Si  Si50  1  0.04949191  0.66989194  0.41647574  1
  S  S51  1  0.71278147  0.71208723  0.24935687  1
  S  S52  1  0.99977907  0.28735999  0.24926414  1
  S  S53  1  0.71494423  0.00183335  0.75086085  1
  O  O54  1  0.19704003  0.03484644  0.30885693  1
  O  O55  1  0.81951193  0.79410628  0.30472279  1
  O  O56  1  0.96953931  0.17768538  0.30496419  1
  O  O57  1  0.19749099  0.16694411  0.81095511  1
  O  O58  1  0.96396454  0.79816635  0.81068677  1
  O  O59  1  0.81815754  0.02527893  0.80641374  1
  O  O60  1  0.78996669  0.96924445  0.69530582  1
  O  O61  1  0.15906367  0.19981357  0.69031173  1
  O  O62  1  0.03502098  0.84038864  0.69008836  1
  O  O63  1  0.79380001  0.82275901  0.19393050  1
  O  O64  1  0.02391487  0.20417092  0.19415435  1
  O  O65  1  0.16333764  0.96499871  0.19032252  1
  O  O66  1  0.86346725  0.36575948  0.64545133  1
  O  O67  1  0.50523919  0.13358953  0.64532166  1
  O  O68  1  0.62691334  0.50377877  0.64430153  1
  O  O69  1  0.85883562  0.49149387  0.14603881  1
  O  O70  1  0.63014418  0.12760864  0.14414175  1
  O  O71  1  0.50086518  0.37529969  0.14386815  1
  O  O72  1  0.46131622  0.29470610  0.02580409  1
  O  O73  1  0.83210299  0.53412493  0.02632678  1
  O  O74  1  0.70785402  0.16573796  0.02566371  1
  O  O75  1  0.46666878  0.16718147  0.52550033  1
  O  O76  1  0.70523855  0.54017188  0.52533091  1
  O  O77  1  0.83333578  0.29751360  0.52584680  1
  O  O78  1  0.53483449  0.70408787  0.97686834  1
  O  O79  1  0.16896244  0.46278768  0.97719729  1
  O  O80  1  0.29778878  0.82794606  0.97728455  1
  O  O81  1  0.54037499  0.83189322  0.47551618  1
  O  O82  1  0.29718679  0.46945067  0.47541943  1
  O  O83  1  0.17150464  0.70600701  0.47582710  1
  O  O84  1  0.12396596  0.62418661  0.35499337  1
  O  O85  1  0.50445407  0.87536245  0.35461990  1
  O  O86  1  0.36785177  0.50843792  0.35307804  1
  O  O87  1  0.12781420  0.49794906  0.85843794  1
  O  O88  1  0.37175045  0.86944545  0.85719886  1
  O  O89  1  0.50066363  0.63336116  0.85718558  1
  O  O90  1  0.01970739  0.83649246  0.40847652  1
  O  O91  1  0.82188595  0.97944156  0.40413751  1
  O  O92  1  0.16130381  0.18953865  0.40905764  1
  O  O93  1  0.01729374  0.17830201  0.90814615  1
  O  O94  1  0.16187970  0.97595008  0.91209810  1
  O  O95  1  0.81837676  0.84393104  0.90891623  1
  O  O96  1  0.97133695  0.15513227  0.59194095  1
  O  O97  1  0.18861527  0.02804391  0.58839406  1
  O  O98  1  0.84123920  0.82181860  0.59249991  1
  O  O99  1  0.97043495  0.81183072  0.09064153  1
  O  O100  1  0.84362625  0.02149846  0.09499330  1
  O  O101  1  0.18162242  0.16130949  0.09125865  1
  O  O102  1  0.69110747  0.15396287  0.74685418  1
  O  O103  1  0.48329712  0.30479496  0.74416283  1
  O  O104  1  0.82826992  0.51302732  0.74439686  1
  O  O105  1  0.69733040  0.53677408  0.24532392  1
  O  O106  1  0.84391015  0.30957984  0.24551214  1
  O  O107  1  0.48786553  0.17771845  0.24296349  1
  O  O108  1  0.64296489  0.49647939  0.92197111  1
  O  O109  1  0.85221226  0.35774112  0.92168379  1
  O  O110  1  0.50631797  0.14704066  0.92175933  1
  O  O111  1  0.64602097  0.14838672  0.42143041  1
  O  O112  1  0.50417798  0.36070209  0.42014429  1
  O  O113  1  0.85232413  0.49547332  0.42105750  1
  O  O114  1  0.35603073  0.50913880  0.07731314  1
  O  O115  1  0.14719106  0.64031603  0.07884584  1
  O  O116  1  0.49420705  0.84883574  0.07745522  1
  O  O117  1  0.35936680  0.85027032  0.57803324  1
  O  O118  1  0.49206111  0.64469713  0.57674037  1
  O  O119  1  0.14811686  0.50588930  0.57797531  1
  O  O120  1  0.31098707  0.82312081  0.25635729  1
  O  O121  1  0.53520825  0.68936356  0.25275345  1
  O  O122  1  0.15905422  0.46237976  0.25288673  1
  O  O123  1  0.31382121  0.48236242  0.75502053  1
  O  O124  1  0.17438274  0.69572322  0.75487293  1
  O  O125  1  0.53481155  0.84082813  0.75491176  1
