# generated using pymatgen
data_Na9Mg4Nb8Si3(P5O24)3
_symmetry_space_group_name_H-M   'P 1'
_cell_length_a   8.83117177
_cell_length_b   8.83674123
_cell_length_c   22.70305040
_cell_angle_alpha   89.91013796
_cell_angle_beta   90.13618681
_cell_angle_gamma   120.01720958
_symmetry_Int_Tables_number   1
_chemical_formula_structural   Na9Mg4Nb8Si3(P5O24)3
_chemical_formula_sum   'Na9 Mg4 Nb8 Si3 P15 O72'
_cell_volume   1534.08246847
_cell_formula_units_Z   1
loop_
 _symmetry_equiv_pos_site_id
 _symmetry_equiv_pos_as_xyz
  1  'x, y, z'
loop_
 _atom_site_type_symbol
 _atom_site_label
 _atom_site_symmetry_multiplicity
 _atom_site_fract_x
 _atom_site_fract_y
 _atom_site_fract_z
 _atom_site_occupancy
  Na  Na0  1  0.98655763  0.62746633  0.24406020  1
  Na  Na1  1  0.37318039  0.01542003  0.74418981  1
  Na  Na2  1  0.32064806  0.03032313  0.41076283  1
  Na  Na3  1  0.99162067  0.00336511  0.49386291  1
  Na  Na4  1  0.00034855  0.99976933  0.99260351  1
  Na  Na5  1  0.67899475  0.34525936  0.82551217  1
  Na  Na6  1  0.66542455  0.33053928  0.32448605  1
  Na  Na7  1  0.34197987  0.66794445  0.16504874  1
  Na  Na8  1  0.33288334  0.65965761  0.66471200  1
  Mg  Mg9  1  0.99597747  0.00231044  0.35390849  1
  Mg  Mg10  1  0.99866534  0.99839890  0.85439144  1
  Mg  Mg11  1  0.67160115  0.33575079  0.68577574  1
  Mg  Mg12  1  0.66309915  0.32823601  0.18522351  1
  Nb  Nb13  1  0.00269064  0.00155221  0.64634687  1
  Nb  Nb14  1  0.00042513  -0.00005090  0.14577830  1
  Nb  Nb15  1  0.66905926  0.33790231  0.97915674  1
  Nb  Nb16  1  0.66379463  0.33532405  0.48045039  1
  Nb  Nb17  1  0.33084704  0.66770992  0.02119608  1
  Nb  Nb18  1  0.33230556  0.66426824  0.52177810  1
  Nb  Nb19  1  0.33837603  0.66169063  0.31057884  1
  Nb  Nb20  1  0.33377520  0.66365008  0.81088710  1
  Si  Si21  1  0.37862695  0.04506773  0.58746755  1
  Si  Si22  1  0.95311858  0.62117804  0.08773486  1
  Si  Si23  1  0.32846754  0.37071924  0.41719413  1
  P  P24  1  0.29454677  0.00669204  0.25332523  1
  P  P25  1  0.71455027  0.71167180  0.25180521  1
  P  P26  1  0.99364369  0.28454636  0.25224220  1
  P  P27  1  0.28974034  0.28689586  0.75264781  1
  P  P28  1  0.99200153  0.70709784  0.75294021  1
  P  P29  1  0.71672213  0.00584769  0.75303091  1
  P  P30  1  0.95246482  0.33265502  0.58517705  1
  P  P31  1  0.66741701  0.62136820  0.58587441  1
  P  P32  1  0.66733375  0.04785194  0.08437286  1
  P  P33  1  0.38100074  0.33414685  0.08445353  1
  P  P34  1  0.62394164  0.66885715  0.91712523  1
  P  P35  1  0.04469985  0.37510309  0.91665221  1
  P  P36  1  0.33205073  0.95660291  0.91581394  1
  P  P37  1  0.62417992  0.95366540  0.41701113  1
  P  P38  1  0.04280008  0.66272956  0.41549577  1
  O  O39  1  0.21088674  0.02028073  0.30953463  1
  O  O40  1  0.82624691  0.79668023  0.30500120  1
  O  O41  1  0.97910079  0.18195548  0.30637470  1
  O  O42  1  0.20370861  0.17401528  0.80542542  1
  O  O43  1  0.97866828  0.79649158  0.80692210  1
  O  O44  1  0.82070521  0.02171467  0.80698453  1
  O  O45  1  0.79929994  0.97359215  0.69608262  1
  O  O46  1  0.17116064  0.20015429  0.69554687  1
  O  O47  1  0.03072061  0.83094717  0.69635685  1
  O  O48  1  0.80241420  0.82953265  0.19495618  1
  O  O49  1  0.02477226  0.20100843  0.19547927  1
  O  O50  1  0.16799536  0.97377007  0.19788944  1
  O  O51  1  0.88075460  0.36831584  0.63919637  1
  O  O52  1  0.48348119  0.11579512  0.64663707  1
  O  O53  1  0.63423955  0.51231297  0.63936003  1
  O  O54  1  0.88681507  0.51701370  0.14714596  1
  O  O55  1  0.62880243  0.11693654  0.13860265  1
  O  O56  1  0.48845702  0.36789379  0.13864585  1
  O  O57  1  0.46552516  0.30450311  0.02809722  1
  O  O58  1  0.83033876  0.52409893  0.02822616  1
  O  O59  1  0.69113713  0.16075043  0.02816770  1
  O  O60  1  0.47114074  0.16530270  0.52655203  1
  O  O61  1  0.69531754  0.53503620  0.52900568  1
  O  O62  1  0.84135915  0.30931212  0.52859004  1
  O  O63  1  0.52537056  0.68097962  0.97116785  1
  O  O64  1  0.15772144  0.47563186  0.97104409  1
  O  O65  1  0.31942413  0.84056309  0.96976241  1
  O  O66  1  0.52558355  0.84309725  0.47161334  1
  O  O67  1  0.31630405  0.47950395  0.47286790  1
  O  O68  1  0.16217832  0.68773949  0.46950093  1
  O  O69  1  0.13105593  0.63838327  0.35922833  1
  O  O70  1  0.50091667  0.86892870  0.36216990  1
  O  O71  1  0.36153651  0.50130527  0.35950642  1
  O  O72  1  0.13513757  0.49490847  0.86188073  1
  O  O73  1  0.35938012  0.86813783  0.85998101  1
  O  O74  1  0.50416653  0.64053323  0.86183532  1
  O  O75  1  0.02748772  0.82500939  0.41203937  1
  O  O76  1  0.79965587  0.96844872  0.41288098  1
  O  O77  1  0.17007395  0.17674512  0.41520915  1
  O  O78  1  0.02766119  0.19819774  0.91342153  1
  O  O79  1  0.17094122  0.97234920  0.91349862  1
  O  O80  1  0.80256243  0.82623567  0.91314609  1
  O  O81  1  0.97135572  0.16636745  0.58937573  1
  O  O82  1  0.18044904  0.02354997  0.59063153  1
  O  O83  1  0.83054326  0.80764737  0.58964821  1
  O  O84  1  0.97799280  0.81998434  0.09034182  1
  O  O85  1  0.83407135  0.02999852  0.08894302  1
  O  O86  1  0.19351509  0.17140857  0.08948600  1
  O  O87  1  0.67738727  0.15347195  0.74634034  1
  O  O88  1  0.47119056  0.31365240  0.74386406  1
  O  O89  1  0.84317937  0.52598879  0.74347780  1
  O  O90  1  0.68704650  0.52977219  0.24362055  1
  O  O91  1  0.84445028  0.32197093  0.24594041  1
  O  O92  1  0.47440740  0.15924971  0.24368111  1
  O  O93  1  0.62983387  0.49423466  0.92275920  1
  O  O94  1  0.86370394  0.36611714  0.92337879  1
  O  O95  1  0.50322798  0.13539604  0.92361914  1
  O  O96  1  0.63134929  0.13384602  0.42342611  1
  O  O97  1  0.51292776  0.36313167  0.42282793  1
  O  O98  1  0.86536788  0.49354037  0.42328701  1
  O  O99  1  0.35482095  0.49401028  0.07234698  1
  O  O100  1  0.15054204  0.65250270  0.07223653  1
  O  O101  1  0.51128036  0.85910544  0.07213627  1
  O  O102  1  0.34681747  0.84849001  0.57286030  1
  O  O103  1  0.50770718  0.64768571  0.57436694  1
  O  O104  1  0.14074412  0.49101382  0.57406229  1
  O  O105  1  0.29714749  0.82694593  0.25489581  1
  O  O106  1  0.53083323  0.70347349  0.25528336  1
  O  O107  1  0.16856751  0.47629708  0.25590706  1
  O  O108  1  0.30037349  0.47136943  0.75688581  1
  O  O109  1  0.17320563  0.70265768  0.75672089  1
  O  O110  1  0.52482775  0.83049123  0.75770743  1
