# generated using pymatgen
data_Na2Y2Al2SiS5O24
_symmetry_space_group_name_H-M   'P 1'
_cell_length_a   8.77391544
_cell_length_b   8.74064159
_cell_length_c   23.25874769
_cell_angle_alpha   89.56888443
_cell_angle_beta   90.49052538
_cell_angle_gamma   119.71889235
_symmetry_Int_Tables_number   1
_chemical_formula_structural   Na2Y2Al2SiS5O24
_chemical_formula_sum   'Na6 Y6 Al6 Si3 S15 O72'
_cell_volume   1549.02326199
_cell_formula_units_Z   3
loop_
 _symmetry_equiv_pos_site_id
 _symmetry_equiv_pos_as_xyz
  1  'x, y, z'
loop_
 _atom_site_type_symbol
 _atom_site_label
 _atom_site_symmetry_multiplicity
 _atom_site_fract_x
 _atom_site_fract_y
 _atom_site_fract_z
 _atom_site_occupancy
  Na  Na0  1  0.98881535  0.98556571  0.50189584  1
  Na  Na1  1  0.99931972  -0.00003791  0.00071788  1
  Na  Na2  1  0.67136583  0.32305527  0.83693501  1
  Na  Na3  1  0.63513471  0.30821910  0.32193790  1
  Na  Na4  1  0.32895509  0.68001604  0.17180752  1
  Na  Na5  1  0.38772343  0.69301933  0.67085516  1
  Y  Y6  1  0.01302948  0.00159150  0.34005636  1
  Y  Y7  1  0.97627925  0.98480845  0.64763951  1
  Y  Y8  1  0.66784374  0.32980200  0.69092271  1
  Y  Y9  1  0.66279359  0.34209783  0.47594030  1
  Y  Y10  1  0.34968698  0.66938775  0.52138316  1
  Y  Y11  1  0.34807423  0.67530667  0.82268284  1
  Al  Al12  1  0.99718820  0.00022357  0.84234508  1
  Al  Al13  1  0.00512261  0.99018602  0.15822820  1
  Al  Al14  1  0.65874059  0.32416739  0.17986082  1
  Al  Al15  1  0.66801493  0.33209176  0.98929363  1
  Al  Al16  1  0.33384809  0.66466186  0.01828436  1
  Al  Al17  1  0.33129739  0.68761125  0.31252045  1
  Si  Si18  1  0.31093060  0.00305221  0.24369285  1
  Si  Si19  1  0.70744744  0.00582935  0.75921304  1
  Si  Si20  1  0.67050054  0.63361255  0.58400111  1
  S  S21  1  0.70317445  0.69422960  0.23997850  1
  S  S22  1  0.99445082  0.29492820  0.23942819  1
  S  S23  1  0.28582252  0.28280859  0.75845891  1
  S  S24  1  0.99715364  0.70998722  0.76088332  1
  S  S25  1  0.96531796  0.33605500  0.58132877  1
  S  S26  1  0.36602129  0.03808518  0.58208141  1
  S  S27  1  0.95322179  0.61751245  0.08289771  1
  S  S28  1  0.66402803  0.04222000  0.08209378  1
  S  S29  1  0.38223961  0.33969820  0.08191966  1
  S  S30  1  0.62990380  0.65512453  0.92908329  1
  S  S31  1  0.03066542  0.37307818  0.92797912  1
  S  S32  1  0.34059558  0.97090981  0.92789871  1
  S  S33  1  0.62216689  0.95719417  0.40607153  1
  S  S34  1  0.33335483  0.39020916  0.40340450  1
  S  S35  1  0.04373274  0.65996794  0.40839053  1
  O  O36  1  0.24680433  0.05498584  0.30228091  1
  O  O37  1  0.80717337  0.75967828  0.29347060  1
  O  O38  1  0.94555932  0.18869289  0.29293516  1
  O  O39  1  0.19275035  0.17601046  0.81175468  1
  O  O40  1  0.00400333  0.81418543  0.81362711  1
  O  O41  1  0.81580856  -0.00102176  0.81737732  1
  O  O42  1  0.79260593  0.99393632  0.69955254  1
  O  O43  1  0.19775796  0.19610461  0.70559663  1
  O  O44  1  0.02457119  0.81106516  0.70833451  1
  O  O45  1  0.79312730  0.82464863  0.19174417  1
  O  O46  1  0.01994430  0.19447604  0.19150941  1
  O  O47  1  0.16646959  0.96248536  0.19161817  1
  O  O48  1  0.87037512  0.32813036  0.63390472  1
  O  O49  1  0.46861526  0.12247134  0.63432145  1
  O  O50  1  0.67677783  0.53762686  0.64294138  1
  O  O51  1  0.87018511  0.50178146  0.13338192  1
  O  O52  1  0.63194742  0.12489917  0.13248168  1
  O  O53  1  0.49711848  0.37455835  0.13310454  1
  O  O54  1  0.46625423  0.30781989  0.03142949  1
  O  O55  1  0.84190814  0.53358524  0.03110686  1
  O  O56  1  0.69384959  0.15636736  0.03048276  1
  O  O57  1  0.46147920  0.12407658  0.52836272  1
  O  O58  1  0.65762946  0.52944425  0.52421809  1
  O  O59  1  0.86261288  0.31950482  0.52824965  1
  O  O60  1  0.52876610  0.68342301  0.97583675  1
  O  O61  1  0.15443551  0.47292343  0.97689739  1
  O  O62  1  0.31279420  0.84442746  0.97637680  1
  O  O63  1  0.54086392  0.87038891  0.46039595  1
  O  O64  1  0.33109686  0.47289285  0.45748977  1
  O  O65  1  0.13387970  0.66707115  0.46204141  1
  O  O66  1  0.14640550  0.66396685  0.35682049  1
  O  O67  1  0.51756064  0.85090959  0.35571352  1
  O  O68  1  0.33476799  0.49548834  0.35209229  1
  O  O69  1  0.09336158  0.47568517  0.87452725  1
  O  O70  1  0.38008871  0.90749415  0.87458882  1
  O  O71  1  0.52986633  0.61661075  0.87475735  1
  O  O72  1  0.01724592  0.81494249  0.40684204  1
  O  O73  1  0.79850089  0.97628106  0.40404712  1
  O  O74  1  0.17244329  0.21547771  0.40324764  1
  O  O75  1  0.01914927  0.19933540  0.92349335  1
  O  O76  1  0.18154672  0.98721379  0.92090841  1
  O  O77  1  0.80500796  0.81135897  0.92462231  1
  O  O78  1  0.00505184  0.19126842  0.58021200  1
  O  O79  1  0.20209782  0.04337167  0.58156271  1
  O  O80  1  0.84376229  0.82465022  0.57604033  1
  O  O81  1  0.96878889  0.79466012  0.09042414  1
  O  O82  1  0.82115280  0.02192005  0.09045474  1
  O  O83  1  0.20493551  0.18435854  0.08990516  1
  O  O84  1  0.69663278  0.18437717  0.76329985  1
  O  O85  1  0.46357207  0.30674586  0.76167794  1
  O  O86  1  0.82664448  0.54764383  0.76213835  1
  O  O87  1  0.69336873  0.52367210  0.22648031  1
  O  O88  1  0.84721485  0.32630968  0.22504320  1
  O  O89  1  0.50256811  0.17197068  0.22828836  1
  O  O90  1  0.64554567  0.49502147  0.94092440  1
  O  O91  1  0.85252693  0.35118571  0.93949416  1
  O  O92  1  0.49682160  0.14715912  0.93994384  1
  O  O93  1  0.63165555  0.13042168  0.40267296  1
  O  O94  1  0.49109916  0.37019258  0.40080875  1
  O  O95  1  0.87180342  0.49617428  0.40450013  1
  O  O96  1  0.36464643  0.50161709  0.07196793  1
  O  O97  1  0.13277252  0.63841367  0.07467827  1
  O  O98  1  0.50342859  0.86401567  0.07304786  1
  O  O99  1  0.32944491  0.85446820  0.58292002  1
  O  O100  1  0.49663448  0.65495052  0.58834373  1
  O  O101  1  0.12979482  0.50547132  0.58123702  1
  O  O102  1  0.32452400  0.82236611  0.25593938  1
  O  O103  1  0.52698402  0.67171812  0.24715663  1
  O  O104  1  0.15728852  0.46439576  0.24737508  1
  O  O105  1  0.29066357  0.45302691  0.76224441  1
  O  O106  1  0.14036930  0.67018893  0.76582269  1
  O  O107  1  0.51113586  0.83058455  0.75879889  1
