# generated using pymatgen
data_La2ReO5
_symmetry_space_group_name_H-M   'P 1'
_cell_length_a   6.03208050
_cell_length_b   7.00703586
_cell_length_c   7.00703617
_cell_angle_alpha   79.32311336
_cell_angle_beta   64.50513143
_cell_angle_gamma   64.50512852
_symmetry_Int_Tables_number   1
_chemical_formula_structural   La2ReO5
_chemical_formula_sum   'La4 Re2 O10'
_cell_volume   241.29560643
_cell_formula_units_Z   2
loop_
 _symmetry_equiv_pos_site_id
 _symmetry_equiv_pos_as_xyz
  1  'x, y, z'
loop_
 _atom_site_type_symbol
 _atom_site_label
 _atom_site_symmetry_multiplicity
 _atom_site_fract_x
 _atom_site_fract_y
 _atom_site_fract_z
 _atom_site_occupancy
  La  La0  1  0.81833289  0.78713563  0.57619859  1
  La  La1  1  0.39453148  0.42380141  0.78713563  1
  La  La2  1  0.60546852  0.57619859  0.21286437  1
  La  La3  1  0.18166711  0.21286437  0.42380141  1
  Re  Re4  1  0.81311585  0.00000000  0.00000000  1
  Re  Re5  1  0.18688415  -0.00000000  -0.00000000  1
  O  O6  1  0.83637586  0.09247813  0.71717364  1
  O  O7  1  0.55354950  0.28282636  0.09247813  1
  O  O8  1  0.92885299  0.71717364  0.90752187  1
  O  O9  1  0.64602763  0.90752187  0.28282636  1
  O  O10  1  0.16362414  0.90752187  0.28282636  1
  O  O11  1  0.44645050  0.71717364  0.90752187  1
  O  O12  1  0.75000000  0.50000000  0.50000000  1
  O  O13  1  0.25000000  0.50000000  0.50000000  1
  O  O14  1  0.35397237  0.09247813  0.71717364  1
  O  O15  1  0.07114701  0.28282636  0.09247813  1
