# generated using pymatgen
data_Na3La3NbP5SO24
_symmetry_space_group_name_H-M   'P 1'
_cell_length_a   9.36189621
_cell_length_b   9.37853738
_cell_length_c   24.38849160
_cell_angle_alpha   89.85642820
_cell_angle_beta   90.19525710
_cell_angle_gamma   120.32242644
_symmetry_Int_Tables_number   1
_chemical_formula_structural   Na3La3NbP5SO24
_chemical_formula_sum   'Na9 La9 Nb3 P15 S3 O72'
_cell_volume   1848.38145472
_cell_formula_units_Z   3
loop_
 _symmetry_equiv_pos_site_id
 _symmetry_equiv_pos_as_xyz
  1  'x, y, z'
loop_
 _atom_site_type_symbol
 _atom_site_label
 _atom_site_symmetry_multiplicity
 _atom_site_fract_x
 _atom_site_fract_y
 _atom_site_fract_z
 _atom_site_occupancy
  Na  Na0  1  0.64469210  0.64500771  0.75198639  1
  Na  Na1  1  0.30226667  0.96089100  0.08152259  1
  Na  Na2  1  0.33736391  0.02628457  0.41699481  1
  Na  Na3  1  0.98238875  0.99926821  0.50139525  1
  Na  Na4  1  0.98797681  0.99844412  0.99910867  1
  Na  Na5  1  0.66536043  0.32169208  0.83520119  1
  Na  Na6  1  0.66376638  0.33227692  0.33070586  1
  Na  Na7  1  0.33100072  0.66270271  0.16859592  1
  Na  Na8  1  0.32018517  0.65887253  0.66558165  1
  La  La9  1  0.99903105  0.00290892  0.35177240  1
  La  La10  1  0.00589057  0.00468281  0.85257992  1
  La  La11  1  0.99646688  0.00247804  0.65012886  1
  La  La12  1  0.99756827  0.99949624  0.14386591  1
  La  La13  1  0.66950091  0.32724804  0.68665211  1
  La  La14  1  0.66376900  0.33039643  0.18458901  1
  La  La15  1  0.33567208  0.65803960  0.01594360  1
  La  La16  1  0.33625898  0.65794521  0.51703006  1
  La  La17  1  0.33390699  0.67216400  0.32219020  1
  Nb  Nb18  1  0.67006523  0.33819780  0.97911259  1
  Nb  Nb19  1  0.68074621  0.34799640  0.48368544  1
  Nb  Nb20  1  0.32601242  0.66562231  0.82067579  1
  P  P21  1  0.29941406  0.99532670  0.25027890  1
  P  P22  1  0.30124526  0.31800674  0.75366022  1
  P  P23  1  0.01295621  0.70314392  0.75357886  1
  P  P24  1  0.68288607  0.98176612  0.75510899  1
  P  P25  1  0.95354827  0.32782673  0.58013316  1
  P  P26  1  0.67399506  0.62425722  0.58244214  1
  P  P27  1  0.95281539  0.62302907  0.07820487  1
  P  P28  1  0.66960109  0.05296712  0.07700941  1
  P  P29  1  0.38159056  0.32779729  0.07786938  1
  P  P30  1  0.62039896  0.65015899  0.91564487  1
  P  P31  1  0.02862417  0.38064662  0.91670153  1
  P  P32  1  0.35145524  0.96826849  0.91864925  1
  P  P33  1  0.63646652  0.98612436  0.42180140  1
  P  P34  1  0.34888149  0.36281645  0.41973097  1
  P  P35  1  0.02570171  0.66062111  0.42002576  1
  S  S36  1  0.69560021  0.69948734  0.25028103  1
  S  S37  1  0.00420768  0.30490871  0.24983542  1
  S  S38  1  0.37474170  0.04593368  0.57816566  1
  O  O39  1  0.21007322  0.00425847  0.30255458  1
  O  O40  1  0.78956989  0.78480469  0.30000308  1
  O  O41  1  0.99108989  0.20933313  0.29951248  1
  O  O42  1  0.22271087  0.20526669  0.80273843  1
  O  O43  1  0.97871985  0.78483031  0.80177332  1
  O  O44  1  0.79594859  0.00890989  0.80366393  1
  O  O45  1  0.74915889  0.93923385  0.70277222  1
  O  O46  1  0.19953981  0.24665970  0.70065302  1
  O  O47  1  0.04947919  0.80538111  0.70055529  1
  O  O48  1  0.78089864  0.79622526  0.20031694  1
  O  O49  1  0.01072597  0.21745315  0.19995192  1
  O  O50  1  0.19996393  0.98682126  0.19718583  1
  O  O51  1  0.87077294  0.33753983  0.63260676  1
  O  O52  1  0.46578087  0.12366913  0.62920403  1
  O  O53  1  0.66054046  0.53395286  0.63623036  1
  O  O54  1  0.87318392  0.52974086  0.13083745  1
  O  O55  1  0.65319569  0.12918496  0.13019457  1
  O  O56  1  0.47222128  0.34098845  0.13123668  1
  O  O57  1  0.49080565  0.32529307  0.02710208  1
  O  O58  1  0.84041043  0.51495692  0.02674150  1
  O  O59  1  0.67734750  0.16769846  0.02635073  1
  O  O60  1  0.47000806  0.14745220  0.52892877  1
  O  O61  1  0.67426775  0.50939254  0.53238433  1
  O  O62  1  0.83950104  0.32635191  0.52957112  1
  O  O63  1  0.54883232  0.67797357  0.96692035  1
  O  O64  1  0.12717366  0.45230361  0.96806627  1
  O  O65  1  0.32516335  0.87399709  0.97151048  1
  O  O66  1  0.55057235  0.87410736  0.47049533  1
  O  O67  1  0.31596970  0.44087507  0.46883220  1
  O  O68  1  0.14071464  0.69227106  0.46838067  1
  O  O69  1  0.08715972  0.61939605  0.36737590  1
  O  O70  1  0.52501369  0.91899321  0.36983157  1
  O  O71  1  0.38018954  0.46477457  0.36712512  1
  O  O72  1  0.13303694  0.50010777  0.86641558  1
  O  O73  1  0.36485550  0.86113603  0.86871113  1
  O  O74  1  0.50380803  0.62985332  0.86458853  1
  O  O75  1  0.00454918  0.81206319  0.41386983  1
  O  O76  1  0.81055473  0.01347565  0.41460983  1
  O  O77  1  0.20653419  0.18105041  0.41443294  1
  O  O78  1  0.99917259  0.20732566  0.90718088  1
  O  O79  1  0.20656604  0.99591396  0.90817226  1
  O  O80  1  0.79611183  0.79376088  0.90703674  1
  O  O81  1  0.96018338  0.16735508  0.57714247  1
  O  O82  1  0.21153333  0.03589053  0.57857763  1
  O  O83  1  0.83587622  0.79155930  0.57848053  1
  O  O84  1  0.96495006  0.79456791  0.07594461  1
  O  O85  1  0.82613789  0.03893639  0.07561223  1
  O  O86  1  0.21747684  0.15804591  0.07535463  1
  O  O87  1  0.65193912  0.12601640  0.74877444  1
  O  O88  1  0.48362887  0.36066424  0.74793343  1
  O  O89  1  0.85976206  0.52838199  0.74803262  1
  O  O90  1  0.68224544  0.53544847  0.24952727  1
  O  O91  1  0.85658660  0.32385241  0.24920724  1
  O  O92  1  0.47319052  0.15278281  0.25039925  1
  O  O93  1  0.63092635  0.48603761  0.92466154  1
  O  O94  1  0.85581473  0.37222529  0.92275494  1
  O  O95  1  0.51597710  0.14344080  0.92360004  1
  O  O96  1  0.64709979  0.15916650  0.43322792  1
  O  O97  1  0.50738293  0.34499687  0.43189045  1
  O  O98  1  0.84759331  0.50418282  0.43290151  1
  O  O99  1  0.35350637  0.47329662  0.07546946  1
  O  O100  1  0.12970762  0.65287506  0.07513474  1
  O  O101  1  0.50827448  0.88558377  0.07324204  1
  O  O102  1  0.35543827  0.88015611  0.57538633  1
  O  O103  1  0.52030335  0.64047799  0.57683790  1
  O  O104  1  0.12313289  0.48390099  0.57611644  1
  O  O105  1  0.31522369  0.83781198  0.25197259  1
  O  O106  1  0.52841599  0.68106580  0.25159667  1
  O  O107  1  0.15709862  0.46964355  0.25135615  1
  O  O108  1  0.31518700  0.49314042  0.76700953  1
  O  O109  1  0.16992122  0.68453822  0.76875590  1
  O  O110  1  0.50897444  0.81817872  0.76803444  1
