# generated using pymatgen
data_NaY2In2PS5O24
_symmetry_space_group_name_H-M   'P 1'
_cell_length_a   9.04482483
_cell_length_b   9.04693016
_cell_length_c   23.83613785
_cell_angle_alpha   89.93421820
_cell_angle_beta   90.14166752
_cell_angle_gamma   119.81854407
_symmetry_Int_Tables_number   1
_chemical_formula_structural   NaY2In2PS5O24
_chemical_formula_sum   'Na3 Y6 In6 P3 S15 O72'
_cell_volume   1692.22373722
_cell_formula_units_Z   3
loop_
 _symmetry_equiv_pos_site_id
 _symmetry_equiv_pos_as_xyz
  1  'x, y, z'
loop_
 _atom_site_type_symbol
 _atom_site_label
 _atom_site_symmetry_multiplicity
 _atom_site_fract_x
 _atom_site_fract_y
 _atom_site_fract_z
 _atom_site_occupancy
  Na  Na0  1  0.99883717  0.99190743  0.99670422  1
  Na  Na1  1  0.65850232  0.33194595  0.84081190  1
  Na  Na2  1  0.67359986  0.33180188  0.32762596  1
  Y  Y3  1  0.99791005  0.00552669  0.35100405  1
  Y  Y4  1  0.00088867  0.00008978  0.64899722  1
  Y  Y5  1  0.66562185  0.33286266  0.68836645  1
  Y  Y6  1  0.66727519  0.33315795  0.48139856  1
  Y  Y7  1  0.33284813  0.66679859  0.52062537  1
  Y  Y8  1  0.32713822  0.66022301  0.30709686  1
  In  In9  1  0.99905774  0.99180717  0.85576176  1
  In  In10  1  0.00061106  0.00640533  0.14887266  1
  In  In11  1  0.67361350  0.33373568  0.18125828  1
  In  In12  1  0.65852581  0.33315632  0.98008177  1
  In  In13  1  0.34010358  0.67469749  0.01565085  1
  In  In14  1  0.34143672  0.67313787  0.82034934  1
  P  P15  1  0.98871029  0.28715722  0.24737506  1
  P  P16  1  0.62639121  0.66596773  0.91709592  1
  P  P17  1  0.33416410  0.96038721  0.91709743  1
  S  S18  1  0.29672514  0.00898700  0.24767107  1
  S  S19  1  0.71168217  0.70300800  0.24766086  1
  S  S20  1  0.28871080  0.29601249  0.75369403  1
  S  S21  1  0.00647649  0.70781767  0.75286949  1
  S  S22  1  0.70629594  0.99534008  0.75316065  1
  S  S23  1  0.95917672  0.33251839  0.58399504  1
  S  S24  1  0.37358531  0.04143187  0.58373613  1
  S  S25  1  0.66809655  0.62681276  0.58382053  1
  S  S26  1  0.96085000  0.62816547  0.08217314  1
  S  S27  1  0.66741186  0.04132607  0.08205723  1
  S  S28  1  0.37318691  0.33350688  0.08329466  1
  S  S29  1  0.04005011  0.37398995  0.91694372  1
  S  S30  1  0.62349804  0.95829866  0.41572537  1
  S  S31  1  0.33533866  0.37515955  0.41596728  1
  S  S32  1  0.03982873  0.66614066  0.41570805  1
  O  O33  1  0.21751182  0.03363598  0.29867858  1
  O  O34  1  0.81725256  0.77970970  0.29861791  1
  O  O35  1  0.96099017  0.17802208  0.30048958  1
  O  O36  1  0.20845084  0.18436252  0.80286201  1
  O  O37  1  0.97326302  0.78648407  0.80205571  1
  O  O38  1  0.81714402  0.02627865  0.80267599  1
  O  O39  1  0.78622834  0.97528240  0.70152300  1
  O  O40  1  0.18953660  0.21672133  0.70170380  1
  O  O41  1  0.02788692  0.80903012  0.70136147  1
  O  O42  1  0.79067450  0.80704363  0.19706748  1
  O  O43  1  0.01879146  0.20654923  0.19499033  1
  O  O44  1  0.18997479  0.97895402  0.19720934  1
  O  O45  1  0.87724542  0.35864149  0.63373266  1
  O  O46  1  0.48118428  0.12262409  0.63371087  1
  O  O47  1  0.64214801  0.51911892  0.63371713  1
  O  O48  1  0.88445576  0.52579902  0.13393411  1
  O  O49  1  0.64091416  0.11735004  0.13374489  1
  O  O50  1  0.47787537  0.35924965  0.13472806  1
  O  O51  1  0.45067892  0.30109190  0.03335902  1
  O  O52  1  0.84964278  0.54869138  0.03246579  1
  O  O53  1  0.69847324  0.15197908  0.03236138  1
  O  O54  1  0.45337542  0.14697372  0.53319266  1
  O  O55  1  0.69347193  0.54664033  0.53324368  1
  O  O56  1  0.85371335  0.30685348  0.53325396  1
  O  O57  1  0.54561501  0.69206754  0.97038312  1
  O  O58  1  0.14438699  0.45086954  0.96793112  1
  O  O59  1  0.30227006  0.85033468  0.97008809  1
  O  O60  1  0.54261710  0.85867358  0.46704232  1
  O  O61  1  0.31492474  0.45563098  0.46705729  1
  O  O62  1  0.14026687  0.68562961  0.46703656  1
  O  O63  1  0.12176675  0.64049020  0.36598811  1
  O  O64  1  0.51765186  0.87723512  0.36571544  1
  O  O65  1  0.36057677  0.48176564  0.36604286  1
  O  O66  1  0.11545395  0.47660288  0.86549410  1
  O  O67  1  0.36026238  0.88211571  0.86300740  1
  O  O68  1  0.51871056  0.63360052  0.86325276  1
  O  O69  1  0.02165612  0.81759380  0.40910780  1
  O  O70  1  0.79313988  0.97469318  0.41039854  1
  O  O71  1  0.18413129  0.20533068  0.40986114  1
  O  O72  1  0.02213986  0.20125813  0.91086339  1
  O  O73  1  0.17435771  0.98343562  0.91174916  1
  O  O74  1  0.80503916  0.82980699  0.91151529  1
  O  O75  1  0.97675149  0.18074338  0.59128590  1
  O  O76  1  0.20455882  0.02440672  0.59101664  1
  O  O77  1  0.81962338  0.79552679  0.59123923  1
  O  O78  1  0.97802422  0.80212800  0.08927934  1
  O  O79  1  0.82302850  0.02239854  0.08814733  1
  O  O80  1  0.20063469  0.17640421  0.08945247  1
  O  O81  1  0.68778769  0.15034772  0.74666466  1
  O  O82  1  0.46218399  0.31384658  0.74706945  1
  O  O83  1  0.85121297  0.53566368  0.74596666  1
  O  O84  1  0.69042911  0.52882518  0.24202606  1
  O  O85  1  0.82684111  0.30689512  0.24232026  1
  O  O86  1  0.46779967  0.16470994  0.24175606  1
  O  O87  1  0.64967636  0.50632136  0.92252663  1
  O  O88  1  0.86723635  0.35583230  0.92300959  1
  O  O89  1  0.49789960  0.13932611  0.92284525  1
  O  O90  1  0.64321224  0.13207905  0.42105292  1
  O  O91  1  0.48981939  0.35657489  0.42131611  1
  O  O92  1  0.86728611  0.51131746  0.42107023  1
  O  O93  1  0.35407260  0.48514358  0.07532332  1
  O  O94  1  0.13047480  0.64434218  0.07438910  1
  O  O95  1  0.51487083  0.87151210  0.07533203  1
  O  O96  1  0.35703795  0.87232554  0.57641025  1
  O  O97  1  0.51554463  0.64367266  0.57640143  1
  O  O98  1  0.12794559  0.48467210  0.57651389  1
  O  O99  1  0.31724122  0.85870394  0.25548415  1
  O  O100  1  0.54360962  0.68856454  0.25547618  1
  O  O101  1  0.14662257  0.46304081  0.25609976  1
  O  O102  1  0.30515170  0.46554767  0.76031041  1
  O  O103  1  0.15813503  0.68919922  0.76010610  1
  O  O104  1  0.53662214  0.84309193  0.75890973  1
