# generated using pymatgen
data_Na5La2Mg2P3(SO8)3
_symmetry_space_group_name_H-M   'P 1'
_cell_length_a   9.40063879
_cell_length_b   9.30183346
_cell_length_c   23.48357046
_cell_angle_alpha   89.67880500
_cell_angle_beta   90.51338243
_cell_angle_gamma   119.99788468
_symmetry_Int_Tables_number   1
_chemical_formula_structural   Na5La2Mg2P3(SO8)3
_chemical_formula_sum   'Na15 La6 Mg6 P9 S9 O72'
_cell_volume   1778.32912218
_cell_formula_units_Z   3
loop_
 _symmetry_equiv_pos_site_id
 _symmetry_equiv_pos_as_xyz
  1  'x, y, z'
loop_
 _atom_site_type_symbol
 _atom_site_label
 _atom_site_symmetry_multiplicity
 _atom_site_fract_x
 _atom_site_fract_y
 _atom_site_fract_z
 _atom_site_occupancy
  Na  Na0  1  0.63559539  0.01859432  0.25318284  1
  Na  Na1  1  0.00030441  0.63338032  0.24075673  1
  Na  Na2  1  0.62572408  0.62637884  0.74229596  1
  Na  Na3  1  0.99346380  0.34729384  0.74432780  1
  Na  Na4  1  0.30125946  0.35015862  0.58632946  1
  Na  Na5  1  0.66834389  0.96700314  0.57684590  1
  Na  Na6  1  0.29719747  0.95391520  0.07958267  1
  Na  Na7  1  0.69129753  0.02736699  0.90979798  1
  Na  Na8  1  0.96071818  0.28280977  0.41272717  1
  Na  Na9  1  0.97446457  0.96467318  0.48983298  1
  Na  Na10  1  0.01016356  0.98226595  0.98955497  1
  Na  Na11  1  0.62447853  0.30192100  0.82281614  1
  Na  Na12  1  0.63448330  0.31078146  0.32488958  1
  Na  Na13  1  0.30943475  0.63175236  0.15704813  1
  Na  Na14  1  0.32612854  0.66650831  0.65711069  1
  La  La15  1  0.00055127  0.99816398  0.65200083  1
  La  La16  1  0.00351785  0.00913191  0.15017272  1
  La  La17  1  0.67617138  0.35216059  0.98373066  1
  La  La18  1  0.67182944  0.34045225  0.48355502  1
  La  La19  1  0.34041396  0.67219144  0.31873295  1
  La  La20  1  0.33317498  0.67640456  0.81815551  1
  Mg  Mg21  1  0.00870786  0.00883654  0.34533303  1
  Mg  Mg22  1  0.03468214  0.01674058  0.84905391  1
  Mg  Mg23  1  0.66381115  0.32870264  0.68178288  1
  Mg  Mg24  1  0.67338502  0.33854792  0.18278049  1
  Mg  Mg25  1  0.30267504  0.66019018  0.01562121  1
  Mg  Mg26  1  0.34185735  0.67180060  0.51547810  1
  P  P27  1  0.30690373  0.01459812  0.24966777  1
  P  P28  1  0.98157320  0.29758473  0.25382869  1
  P  P29  1  0.31222906  0.29994962  0.74875585  1
  P  P30  1  0.70886610  0.01478863  0.75259015  1
  P  P31  1  0.97854858  0.34907264  0.58517000  1
  P  P32  1  0.64799796  0.62865906  0.58683977  1
  P  P33  1  0.98197128  0.63186954  0.08866707  1
  P  P34  1  0.32246007  0.96592641  0.92237407  1
  P  P35  1  0.65116238  0.96537330  0.41862957  1
  S  S36  1  0.71138083  0.69639293  0.25203200  1
  S  S37  1  0.98004577  0.68609930  0.75271409  1
  S  S38  1  0.37680947  0.02887910  0.58504193  1
  S  S39  1  0.64819018  0.02337100  0.08387114  1
  S  S40  1  0.37850407  0.35007898  0.08502654  1
  S  S41  1  0.64171763  0.68750747  0.91672221  1
  S  S42  1  0.03765744  0.35231254  0.91712729  1
  S  S43  1  0.31433731  0.35340590  0.42014630  1
  S  S44  1  0.04477855  0.68249088  0.41701812  1
  O  O45  1  0.20638582  0.02309519  0.29961251  1
  O  O46  1  0.81752479  0.78578032  0.30132457  1
  O  O47  1  0.96779251  0.19359877  0.30771988  1
  O  O48  1  0.21337542  0.18634713  0.79833307  1
  O  O49  1  0.97617260  0.78298831  0.80152081  1
  O  O50  1  0.81857122  0.03047562  0.80467450  1
  O  O51  1  0.78449410  0.98773327  0.69766638  1
  O  O52  1  0.21983596  0.23500735  0.69088544  1
  O  O53  1  0.00940011  0.77894503  0.69891885  1
  O  O54  1  0.78008629  0.79370453  0.19938542  1
  O  O55  1  0.00138954  0.21431238  0.20053671  1
  O  O56  1  0.21011533  0.98208659  0.19277860  1
  O  O57  1  0.88657640  0.35726077  0.63838352  1
  O  O58  1  0.48318900  0.11801790  0.63459005  1
  O  O59  1  0.63554277  0.52657957  0.64097095  1
  O  O60  1  0.89227896  0.53653731  0.14346822  1
  O  O61  1  0.63716313  0.11681934  0.13389432  1
  O  O62  1  0.47982195  0.36206977  0.13539739  1
  O  O63  1  0.45050433  0.32416615  0.03290542  1
  O  O64  1  0.87961062  0.54677534  0.03514823  1
  O  O65  1  0.66770022  0.11901082  0.03077288  1
  O  O66  1  0.44596800  0.12629322  0.53253426  1
  O  O67  1  0.66378258  0.54276412  0.53357693  1
  O  O68  1  0.87288804  0.31799338  0.53053003  1
  O  O69  1  0.54079129  0.69247010  0.96383548  1
  O  O70  1  0.14172299  0.45073519  0.96517491  1
  O  O71  1  0.30557304  0.86140262  0.97635631  1
  O  O72  1  0.55252351  0.86298423  0.47132053  1
  O  O73  1  0.30353028  0.44376734  0.47093117  1
  O  O74  1  0.15020934  0.69125864  0.46560555  1
  O  O75  1  0.11101754  0.65872282  0.36275813  1
  O  O76  1  0.55691426  0.89046302  0.36196091  1
  O  O77  1  0.33350614  0.45149778  0.36817730  1
  O  O78  1  0.10218469  0.43966899  0.86209488  1
  O  O79  1  0.35182856  0.88381737  0.86961811  1
  O  O80  1  0.55478548  0.66669782  0.86115008  1
  O  O81  1  0.02824000  0.83241677  0.41413069  1
  O  O82  1  0.82414879  0.98215279  0.41607946  1
  O  O83  1  0.15684511  0.19167704  0.41599610  1
  O  O84  1  0.02346402  0.18554504  0.91588290  1
  O  O85  1  0.16881316  0.98345689  0.91402920  1
  O  O86  1  0.80169830  0.84627514  0.91596539  1
  O  O87  1  0.00131002  0.19176318  0.58737893  1
  O  O88  1  0.20984275  0.00616693  0.58993641  1
  O  O89  1  0.79674655  0.80990344  0.58714899  1
  O  O90  1  0.01212595  0.81363278  0.08715194  1
  O  O91  1  0.78987921  0.99679883  0.08764496  1
  O  O92  1  0.21192301  0.19790490  0.08773908  1
  O  O93  1  0.70005401  0.17690766  0.74629044  1
  O  O94  1  0.48825593  0.32642996  0.74591156  1
  O  O95  1  0.82161589  0.52614994  0.74940338  1
  O  O96  1  0.70147469  0.53141042  0.24738038  1
  O  O97  1  0.81983497  0.30688894  0.24785498  1
  O  O98  1  0.48276917  0.16803223  0.24558169  1
  O  O99  1  0.67143866  0.54548391  0.91987141  1
  O  O100  1  0.86581402  0.32391106  0.92147471  1
  O  O101  1  0.48525261  0.13801785  0.92432688  1
  O  O102  1  0.67831034  0.14673158  0.41969041  1
  O  O103  1  0.45534364  0.32574213  0.42256194  1
  O  O104  1  0.87873181  0.52991883  0.42081616  1
  O  O105  1  0.36153377  0.49992120  0.07987015  1
  O  O106  1  0.15426235  0.64586239  0.08360141  1
  O  O107  1  0.49157531  0.86085619  0.08113198  1
  O  O108  1  0.36903619  0.86477128  0.58045528  1
  O  O109  1  0.48797997  0.64155954  0.58144004  1
  O  O110  1  0.15287387  0.50331929  0.57910851  1
  O  O111  1  0.33114524  0.85832800  0.25483704  1
  O  O112  1  0.54361626  0.67405483  0.25660727  1
  O  O113  1  0.12933338  0.47902793  0.25562611  1
  O  O114  1  0.32681434  0.47615184  0.75420070  1
  O  O115  1  0.11512280  0.64478389  0.75671465  1
  O  O116  1  0.53451563  0.85714368  0.75526069  1
