# generated using pymatgen
data_MgV6O15
_symmetry_space_group_name_H-M   'P 1'
_cell_length_a   8.65515761
_cell_length_b   8.65515739
_cell_length_c   10.38746054
_cell_angle_alpha   70.13631283
_cell_angle_beta   109.86368561
_cell_angle_gamma   155.45875620
_symmetry_Int_Tables_number   1
_chemical_formula_structural   MgV6O15
_chemical_formula_sum   'Mg1 V6 O15'
_cell_volume   303.03110742
_cell_formula_units_Z   1
loop_
 _symmetry_equiv_pos_site_id
 _symmetry_equiv_pos_as_xyz
  1  'x, y, z'
loop_
 _atom_site_type_symbol
 _atom_site_label
 _atom_site_symmetry_multiplicity
 _atom_site_fract_x
 _atom_site_fract_y
 _atom_site_fract_z
 _atom_site_occupancy
  Mg  Mg0  1  0.48181400  0.51818600  0.87817900  1
  V  V1  1  0.12514300  0.87485700  0.10661700  1
  V  V2  1  0.84949400  0.15050600  0.87824500  1
  V  V3  1  0.28429200  0.71570800  0.41346900  1
  V  V4  1  0.33461700  0.66538300  0.11535600  1
  V  V5  1  0.66654000  0.33346000  0.89637700  1
  V  V6  1  0.70581000  0.29419000  0.57496800  1
  O  O7  1  0.19495900  0.80504100  0.95701300  1
  O  O8  1  0.12331500  0.87668500  0.26281900  1
  O  O9  1  0.23943700  0.76056300  0.56803500  1
  O  O10  1  0.37063900  0.62936100  0.93944000  1
  O  O11  1  0.26931400  0.73068600  0.22614700  1
  O  O12  1  0.38463700  0.61536300  0.48409100  1
  O  O13  1  0.42737100  0.57262900  0.22842700  1
  O  O14  1  0.56706500  0.43293500  0.78769500  1
  O  O15  1  0.01841300  0.98158700  0.99230000  1
  O  O16  1  0.60544400  0.39455600  0.51418700  1
  O  O17  1  0.73244300  0.26755700  0.76491000  1
  O  O18  1  0.64179000  0.35821000  0.07180700  1
  O  O19  1  0.75386300  0.24613700  0.42377200  1
  O  O20  1  0.89820700  0.10179300  0.76130400  1
  O  O21  1  0.81706100  0.18293900  0.05483900  1
