# generated using pymatgen
data_Na5La2Ta2Si3(PO8)3
_symmetry_space_group_name_H-M   'P 1'
_cell_length_a   9.34561476
_cell_length_b   9.38307706
_cell_length_c   22.77599664
_cell_angle_alpha   90.27523579
_cell_angle_beta   89.82325060
_cell_angle_gamma   119.29091358
_symmetry_Int_Tables_number   1
_chemical_formula_structural   Na5La2Ta2Si3(PO8)3
_chemical_formula_sum   'Na15 La6 Ta6 Si9 P9 O72'
_cell_volume   1741.86707555
_cell_formula_units_Z   3
loop_
 _symmetry_equiv_pos_site_id
 _symmetry_equiv_pos_as_xyz
  1  'x, y, z'
loop_
 _atom_site_type_symbol
 _atom_site_label
 _atom_site_symmetry_multiplicity
 _atom_site_fract_x
 _atom_site_fract_y
 _atom_site_fract_z
 _atom_site_occupancy
  Na  Na0  1  0.98980221  0.63890105  0.24139605  1
  Na  Na1  1  0.35479038  0.01328243  0.74226081  1
  Na  Na2  1  0.03606266  0.68897153  0.57737609  1
  Na  Na3  1  0.64755021  0.97905422  0.58103805  1
  Na  Na4  1  0.30640248  0.96157152  0.07729584  1
  Na  Na5  1  0.01897554  0.35608435  0.08325496  1
  Na  Na6  1  0.99604048  0.68630077  0.91401678  1
  Na  Na7  1  0.98097023  0.31271030  0.41026049  1
  Na  Na8  1  0.31660806  0.01082537  0.41437713  1
  Na  Na9  1  0.98113923  0.98450811  0.49738346  1
  Na  Na10  1  0.99718205  0.00516859  0.99877523  1
  Na  Na11  1  0.67490149  0.31753074  0.83479839  1
  Na  Na12  1  0.66790265  0.32971755  0.33281720  1
  Na  Na13  1  0.35321167  0.65206965  0.16769349  1
  Na  Na14  1  0.34383395  0.64090109  0.66620013  1
  La  La15  1  0.98437480  0.99550536  0.34779608  1
  La  La16  1  0.99577131  0.01203117  0.85285044  1
  La  La17  1  0.67223378  0.33993721  0.68785301  1
  La  La18  1  0.66115718  0.32724011  0.18587959  1
  La  La19  1  0.34194642  0.66266207  0.01441186  1
  La  La20  1  0.34479502  0.66453995  0.51475607  1
  Ta  Ta21  1  0.99829919  0.00102478  0.64712975  1
  Ta  Ta22  1  0.99915323  0.00151424  0.14840879  1
  Ta  Ta23  1  0.65509017  0.33199237  0.98125829  1
  Ta  Ta24  1  0.66263461  0.33903388  0.48086790  1
  Ta  Ta25  1  0.33458690  0.66471277  0.31610310  1
  Ta  Ta26  1  0.34393132  0.67134643  0.81500491  1
  Si  Si27  1  0.02315279  0.31472456  0.25342619  1
  Si  Si28  1  0.68794808  0.97920287  0.74953039  1
  Si  Si29  1  0.36286401  0.04729166  0.58448803  1
  Si  Si30  1  0.68523330  0.64371216  0.58510654  1
  Si  Si31  1  0.95232702  0.63672266  0.08377811  1
  Si  Si32  1  0.35384929  0.31513001  0.08502187  1
  Si  Si33  1  0.35279310  0.97336379  0.91996808  1
  Si  Si34  1  0.62576688  0.97959096  0.41921605  1
  Si  Si35  1  0.02649500  0.65289076  0.41996688  1
  P  P36  1  0.28577124  0.97473994  0.25180809  1
  P  P37  1  0.69115703  0.71619342  0.24767902  1
  P  P38  1  0.27800007  0.30440549  0.74911939  1
  P  P39  1  0.02632699  0.71705590  0.75172243  1
  P  P40  1  0.95274168  0.31281695  0.57989600  1
  P  P41  1  0.68803294  0.04897455  0.08055044  1
  P  P42  1  0.62282678  0.63948751  0.91432421  1
  P  P43  1  0.02294246  0.38469228  0.91804114  1
  P  P44  1  0.35313163  0.37688375  0.41297877  1
  O  O45  1  0.21611142  0.99234871  0.30973227  1
  O  O46  1  0.78686464  0.77117738  0.30450624  1
  O  O47  1  0.00375607  0.22910305  0.31547841  1
  O  O48  1  0.21761109  0.20391211  0.80451211  1
  O  O49  1  0.01172950  0.79186526  0.80929098  1
  O  O50  1  0.78708481  0.00206134  0.80804652  1
  O  O51  1  0.80076332  0.96928947  0.69098515  1
  O  O52  1  0.15649907  0.19948687  0.69639543  1
  O  O53  1  0.04209775  0.84005241  0.69850990  1
  O  O54  1  0.80009828  0.83977755  0.19650267  1
  O  O55  1  0.02771702  0.19103826  0.19666688  1
  O  O56  1  0.16073482  0.95881998  0.19921600  1
  O  O57  1  0.88055272  0.34012858  0.63499156  1
  O  O58  1  0.47275946  0.11003734  0.64220729  1
  O  O59  1  0.66924562  0.54440110  0.64247829  1
  O  O60  1  0.89272941  0.52732299  0.14187644  1
  O  O61  1  0.65711722  0.11279415  0.13727577  1
  O  O62  1  0.45557104  0.33781885  0.14252820  1
  O  O63  1  0.46764820  0.29791196  0.02746178  1
  O  O64  1  0.82368387  0.52441760  0.02685823  1
  O  O65  1  0.70790768  0.17295940  0.02892554  1
  O  O66  1  0.47544847  0.17644691  0.52731308  1
  O  O67  1  0.69985983  0.53061051  0.52717345  1
  O  O68  1  0.83340243  0.29428171  0.52573174  1
  O  O69  1  0.56776730  0.67519128  0.97178326  1
  O  O70  1  0.10138401  0.45102432  0.97771469  1
  O  O71  1  0.32658998  0.87992669  0.98082815  1
  O  O72  1  0.55972877  0.89393758  0.48109650  1
  O  O73  1  0.29983820  0.42766924  0.46795193  1
  O  O74  1  0.11862902  0.66881193  0.48037198  1
  O  O75  1  0.14568691  0.63238978  0.36375999  1
  O  O76  1  0.49422201  0.85494284  0.36468262  1
  O  O77  1  0.37257520  0.50001655  0.36123108  1
  O  O78  1  0.13836399  0.50426639  0.86755090  1
  O  O79  1  0.36748401  0.85141743  0.86384370  1
  O  O80  1  0.50087624  0.62622326  0.86254794  1
  O  O81  1  0.01457317  0.81710039  0.41281921  1
  O  O82  1  0.81718369  0.02746412  0.41523668  1
  O  O83  1  0.22537324  0.19912054  0.40126859  1
  O  O84  1  0.98944948  0.20937439  0.91384350  1
  O  O85  1  0.18958007  0.98858107  0.91181476  1
  O  O86  1  0.80137281  0.76892756  0.90445597  1
  O  O87  1  0.95008606  0.14225479  0.58453620  1
  O  O88  1  0.18325867  0.04522211  0.59330249  1
  O  O89  1  0.86881878  0.82040242  0.58919135  1
  O  O90  1  0.95596570  0.81678783  0.09385783  1
  O  O91  1  0.85981453  0.05254864  0.08550716  1
  O  O92  1  0.17883978  0.13141103  0.09063271  1
  O  O93  1  0.63452561  0.11824364  0.74759726  1
  O  O94  1  0.45017670  0.33133434  0.73914969  1
  O  O95  1  0.88958854  0.54490152  0.74492179  1
  O  O96  1  0.66495135  0.54508158  0.23736460  1
  O  O97  1  0.87635285  0.35882208  0.24884037  1
  O  O98  1  0.45900332  0.11200947  0.24401225  1
  O  O99  1  0.61747329  0.46824937  0.91882007  1
  O  O100  1  0.85673714  0.39093126  0.91653060  1
  O  O101  1  0.52699771  0.15220436  0.92430425  1
  O  O102  1  0.61593980  0.15461817  0.41963927  1
  O  O103  1  0.52468902  0.38483046  0.42079593  1
  O  O104  1  0.84928918  0.47569394  0.42195727  1
  O  O105  1  0.30039878  0.45287544  0.07928881  1
  O  O106  1  0.14161138  0.67848597  0.07529756  1
  O  O107  1  0.54748815  0.87623101  0.07203585  1
  O  O108  1  0.32034917  0.85904202  0.57571444  1
  O  O109  1  0.54353874  0.69318531  0.58246338  1
  O  O110  1  0.12597762  0.45429097  0.57303601  1
  O  O111  1  0.28236383  0.80372707  0.25325353  1
  O  O112  1  0.52504038  0.71722615  0.25302990  1
  O  O113  1  0.20194157  0.49332787  0.25630944  1
  O  O114  1  0.28011795  0.47210937  0.75575188  1
  O  O115  1  0.19777215  0.71837819  0.75373742  1
  O  O116  1  0.50917988  0.79684099  0.75710283  1
