# generated using pymatgen
data_HfMg(SO4)3
_symmetry_space_group_name_H-M   'P 1'
_cell_length_a   8.77056548
_cell_length_b   8.77056519
_cell_length_c   22.52787292
_cell_angle_alpha   90.00000000
_cell_angle_beta   90.00000000
_cell_angle_gamma   120.00000108
_symmetry_Int_Tables_number   1
_chemical_formula_structural   HfMg(SO4)3
_chemical_formula_sum   'Hf6 Mg6 S18 O72'
_cell_volume   1500.74184110
_cell_formula_units_Z   6
loop_
 _symmetry_equiv_pos_site_id
 _symmetry_equiv_pos_as_xyz
  1  'x, y, z'
loop_
 _atom_site_type_symbol
 _atom_site_label
 _atom_site_symmetry_multiplicity
 _atom_site_fract_x
 _atom_site_fract_y
 _atom_site_fract_z
 _atom_site_occupancy
  Hf  Hf0  1  -0.00000000  -0.00000000  0.64483556  1
  Hf  Hf1  1  -0.00000000  -0.00000000  0.14483556  1
  Hf  Hf2  1  0.66666700  0.33333300  0.97816856  1
  Hf  Hf3  1  0.66666700  0.33333300  0.47816856  1
  Hf  Hf4  1  0.33333300  0.66666700  0.31150256  1
  Hf  Hf5  1  0.33333300  0.66666700  0.81150256  1
  Mg  Mg6  1  -0.00000000  -0.00000000  0.35385483  1
  Mg  Mg7  1  -0.00000000  -0.00000000  0.85385483  1
  Mg  Mg8  1  0.66666700  0.33333300  0.68718783  1
  Mg  Mg9  1  0.66666700  0.33333300  0.18718783  1
  Mg  Mg10  1  0.33333300  0.66666700  0.02052183  1
  Mg  Mg11  1  0.33333300  0.66666700  0.52052183  1
  S  S12  1  0.29296334  0.00593460  0.25121736  1
  S  S13  1  0.71297126  0.70703666  0.25121736  1
  S  S14  1  0.99406540  0.28702874  0.25121736  1
  S  S15  1  0.29296334  0.28702874  0.75121736  1
  S  S16  1  0.99406540  0.70703666  0.75121736  1
  S  S17  1  0.71297126  0.00593460  0.75121736  1
  S  S18  1  0.95963034  0.33926760  0.58455036  1
  S  S19  1  0.37963826  0.04036966  0.58455036  1
  S  S20  1  0.66073240  0.62036174  0.58455036  1
  S  S21  1  0.95963034  0.62036174  0.08455036  1
  S  S22  1  0.66073240  0.04036966  0.08455036  1
  S  S23  1  0.37963826  0.33926760  0.08455036  1
  S  S24  1  0.62629634  0.67260160  0.91788436  1
  S  S25  1  0.04630426  0.37370366  0.91788436  1
  S  S26  1  0.32739840  0.95369574  0.91788436  1
  S  S27  1  0.62629634  0.95369574  0.41788436  1
  S  S28  1  0.32739840  0.37370366  0.41788436  1
  S  S29  1  0.04630426  0.67260160  0.41788436  1
  O  O30  1  0.20836505  0.02926894  0.30300593  1
  O  O31  1  0.82090389  0.79163495  0.30300593  1
  O  O32  1  0.97073106  0.17909611  0.30300593  1
  O  O33  1  0.20836505  0.17909611  0.80300593  1
  O  O34  1  0.97073106  0.79163495  0.80300593  1
  O  O35  1  0.82090389  0.02926894  0.80300593  1
  O  O36  1  0.79094384  0.96802137  0.69706129  1
  O  O37  1  0.17707753  0.20905616  0.69706129  1
  O  O38  1  0.03197863  0.82292247  0.69706129  1
  O  O39  1  0.79094384  0.82292247  0.19706129  1
  O  O40  1  0.03197863  0.20905616  0.19706129  1
  O  O41  1  0.17707753  0.96802137  0.19706129  1
  O  O42  1  0.87503205  0.36260194  0.63633893  1
  O  O43  1  0.48757089  0.12496795  0.63633893  1
  O  O44  1  0.63739806  0.51242911  0.63633893  1
  O  O45  1  0.87503205  0.51242911  0.13633893  1
  O  O46  1  0.63739806  0.12496795  0.13633893  1
  O  O47  1  0.48757089  0.36260194  0.13633893  1
  O  O48  1  0.45761084  0.30135437  0.03039429  1
  O  O49  1  0.84374453  0.54238916  0.03039429  1
  O  O50  1  0.69864563  0.15625547  0.03039429  1
  O  O51  1  0.45761084  0.15625547  0.53039429  1
  O  O52  1  0.69864563  0.54238916  0.53039429  1
  O  O53  1  0.84374453  0.30135437  0.53039429  1
  O  O54  1  0.54169805  0.69593594  0.96967293  1
  O  O55  1  0.15423689  0.45830195  0.96967293  1
  O  O56  1  0.30406406  0.84576311  0.96967293  1
  O  O57  1  0.54169805  0.84576311  0.46967293  1
  O  O58  1  0.30406406  0.45830195  0.46967293  1
  O  O59  1  0.15423689  0.69593594  0.46967293  1
  O  O60  1  0.12427684  0.63468837  0.36372829  1
  O  O61  1  0.51041053  0.87572316  0.36372829  1
  O  O62  1  0.36531163  0.48958947  0.36372829  1
  O  O63  1  0.12427684  0.48958947  0.86372829  1
  O  O64  1  0.36531163  0.87572316  0.86372829  1
  O  O65  1  0.51041053  0.63468837  0.86372829  1
  O  O66  1  0.02305080  0.82285973  0.40751422  1
  O  O67  1  0.79980893  0.97694920  0.40751422  1
  O  O68  1  0.17714027  0.20019107  0.40751422  1
  O  O69  1  0.02305080  0.20019107  0.90751422  1
  O  O70  1  0.17714027  0.97694920  0.90751422  1
  O  O71  1  0.79980893  0.82285973  0.90751422  1
  O  O72  1  0.97403357  0.17562287  0.59163773  1
  O  O73  1  0.20158930  0.02596643  0.59163773  1
  O  O74  1  0.82437713  0.79841070  0.59163773  1
  O  O75  1  0.97403357  0.79841070  0.09163773  1
  O  O76  1  0.82437713  0.02596643  0.09163773  1
  O  O77  1  0.20158930  0.17562287  0.09163773  1
  O  O78  1  0.68971780  0.15619273  0.74084722  1
  O  O79  1  0.46647593  0.31028220  0.74084722  1
  O  O80  1  0.84380727  0.53352407  0.74084722  1
  O  O81  1  0.68971780  0.53352407  0.24084722  1
  O  O82  1  0.84380727  0.31028220  0.24084722  1
  O  O83  1  0.46647593  0.15619273  0.24084722  1
  O  O84  1  0.64070057  0.50895587  0.92497073  1
  O  O85  1  0.86825630  0.35929943  0.92497073  1
  O  O86  1  0.49104413  0.13174370  0.92497073  1
  O  O87  1  0.64070057  0.13174370  0.42497073  1
  O  O88  1  0.49104413  0.35929943  0.42497073  1
  O  O89  1  0.86825630  0.50895587  0.42497073  1
  O  O90  1  0.35638380  0.48952673  0.07418122  1
  O  O91  1  0.13314193  0.64361620  0.07418122  1
  O  O92  1  0.51047327  0.86685807  0.07418122  1
  O  O93  1  0.35638380  0.86685807  0.57418122  1
  O  O94  1  0.51047327  0.64361620  0.57418122  1
  O  O95  1  0.13314193  0.48952673  0.57418122  1
  O  O96  1  0.30736657  0.84228987  0.25830473  1
  O  O97  1  0.53492230  0.69263343  0.25830473  1
  O  O98  1  0.15771013  0.46507770  0.25830473  1
  O  O99  1  0.30736657  0.46507770  0.75830473  1
  O  O100  1  0.15771013  0.69263343  0.75830473  1
  O  O101  1  0.53492230  0.84228987  0.75830473  1
