# generated using pymatgen
data_Na5Y3NbSiP5O24
_symmetry_space_group_name_H-M   'P 1'
_cell_length_a   9.24537701
_cell_length_b   9.24881088
_cell_length_c   23.37872482
_cell_angle_alpha   90.02220410
_cell_angle_beta   89.96212836
_cell_angle_gamma   120.15019002
_symmetry_Int_Tables_number   1
_chemical_formula_structural   Na5Y3NbSiP5O24
_chemical_formula_sum   'Na15 Y9 Nb3 Si3 P15 O72'
_cell_volume   1728.63228895
_cell_formula_units_Z   3
loop_
 _symmetry_equiv_pos_site_id
 _symmetry_equiv_pos_as_xyz
  1  'x, y, z'
loop_
 _atom_site_type_symbol
 _atom_site_label
 _atom_site_symmetry_multiplicity
 _atom_site_fract_x
 _atom_site_fract_y
 _atom_site_fract_z
 _atom_site_occupancy
  Na  Na0  1  0.63795342  0.00006368  0.25190402  1
  Na  Na1  1  0.36129815  0.36052661  0.25081572  1
  Na  Na2  1  0.00125959  0.63908748  0.25125142  1
  Na  Na3  1  0.30905766  0.34177533  0.58719376  1
  Na  Na4  1  0.03193471  0.69877932  0.58402724  1
  Na  Na5  1  0.66363353  0.96180813  0.58403918  1
  Na  Na6  1  0.29689267  0.95843539  0.07804565  1
  Na  Na7  1  0.97616382  0.67700209  0.91518790  1
  Na  Na8  1  0.69622398  0.02052206  0.91281645  1
  Na  Na9  1  0.99567771  0.99585295  0.49703263  1
  Na  Na10  1  0.00888489  0.01837505  0.99670842  1
  Na  Na11  1  0.65404957  0.33195029  0.82607649  1
  Na  Na12  1  0.66632185  0.33073319  0.33809883  1
  Na  Na13  1  0.33257347  0.65465662  0.16226825  1
  Na  Na14  1  0.34169444  0.66525721  0.67222159  1
  Y  Y15  1  0.99966316  0.99974674  0.35430570  1
  Y  Y16  1  0.00899350  0.00903279  0.84911195  1
  Y  Y17  1  0.99751389  0.99796523  0.65436078  1
  Y  Y18  1  0.99235209  0.00038653  0.14385490  1
  Y  Y19  1  0.66585586  0.33494596  0.68814590  1
  Y  Y20  1  0.67097306  0.33736783  0.18162090  1
  Y  Y21  1  0.33115543  0.65551704  0.01720438  1
  Y  Y22  1  0.33553198  0.66683432  0.51330625  1
  Y  Y23  1  0.33400232  0.66731887  0.32386898  1
  Nb  Nb24  1  0.66510747  0.33277075  0.97846736  1
  Nb  Nb25  1  0.66755511  0.33854253  0.48113056  1
  Nb  Nb26  1  0.32868669  0.66595552  0.81641785  1
  Si  Si27  1  0.66772141  0.62815670  0.58283043  1
  Si  Si28  1  0.03524820  0.37157756  0.91717793  1
  Si  Si29  1  0.33524417  0.95968053  0.91953958  1
  P  P30  1  0.29538065  0.99768421  0.24819931  1
  P  P31  1  0.70177347  0.70437308  0.25032526  1
  P  P32  1  0.00264525  0.29792093  0.25025047  1
  P  P33  1  0.30161018  0.31185143  0.75036538  1
  P  P34  1  0.00836755  0.69988572  0.75282231  1
  P  P35  1  0.68954001  0.98999894  0.75285784  1
  P  P36  1  0.95392188  0.33225618  0.58121926  1
  P  P37  1  0.37815997  0.04606479  0.58130026  1
  P  P38  1  0.96037149  0.62828751  0.08091973  1
  P  P39  1  0.66769516  0.04455984  0.08055303  1
  P  P40  1  0.37716597  0.33132406  0.08236759  1
  P  P41  1  0.62124604  0.65913167  0.91585128  1
  P  P42  1  0.63764902  0.97952109  0.41868554  1
  P  P43  1  0.34042484  0.36260270  0.41876587  1
  P  P44  1  0.02315842  0.65973638  0.41892947  1
  O  O45  1  0.20852738  0.02499154  0.29962517  1
  O  O46  1  0.81228899  0.78649279  0.30275970  1
  O  O47  1  0.97347841  0.18699198  0.30263273  1
  O  O48  1  0.20900901  0.19805233  0.80060756  1
  O  O49  1  0.98723628  0.78427309  0.80573128  1
  O  O50  1  0.79548823  0.00916399  0.80560460  1
  O  O51  1  0.76750459  0.96479691  0.69696106  1
  O  O52  1  0.20280802  0.24070933  0.69343359  1
  O  O53  1  0.03659288  0.80349451  0.69711139  1
  O  O54  1  0.78342039  0.81323556  0.19675915  1
  O  O55  1  0.02918892  0.21648186  0.19656076  1
  O  O56  1  0.19237095  0.97227795  0.19286360  1
  O  O57  1  0.87586663  0.35948412  0.63437167  1
  O  O58  1  0.48646995  0.11929125  0.63426259  1
  O  O59  1  0.63326791  0.50622367  0.63590239  1
  O  O60  1  0.88179499  0.53576496  0.13710651  1
  O  O61  1  0.64975745  0.12325825  0.13618315  1
  O  O62  1  0.46687313  0.34391063  0.13900242  1
  O  O63  1  0.48638271  0.32245251  0.03077622  1
  O  O64  1  0.84607903  0.52403694  0.02847461  1
  O  O65  1  0.67888948  0.16100941  0.02777293  1
  O  O66  1  0.47654611  0.16065316  0.52842312  1
  O  O67  1  0.68509117  0.51852942  0.52660807  1
  O  O68  1  0.83844378  0.31250376  0.52821925  1
  O  O69  1  0.55271817  0.69833991  0.96896341  1
  O  O70  1  0.14352020  0.45231683  0.97279659  1
  O  O71  1  0.31217335  0.85737687  0.97732913  1
  O  O72  1  0.55076697  0.87152778  0.47147073  1
  O  O73  1  0.32038411  0.44863754  0.47177883  1
  O  O74  1  0.12791300  0.67948857  0.47218974  1
  O  O75  1  0.10001294  0.63226105  0.36376610  1
  O  O76  1  0.53315355  0.90184434  0.36342957  1
  O  O77  1  0.36958005  0.46752731  0.36368455  1
  O  O78  1  0.13743998  0.50280171  0.86238453  1
  O  O79  1  0.36944015  0.85916483  0.86505797  1
  O  O80  1  0.50497353  0.63219303  0.86351002  1
  O  O81  1  0.99723284  0.80995977  0.41439382  1
  O  O82  1  0.81277542  0.00183336  0.41437046  1
  O  O83  1  0.18933295  0.18646482  0.41435597  1
  O  O84  1  0.98243490  0.17816905  0.90991961  1
  O  O85  1  0.17047473  0.97389501  0.91040992  1
  O  O86  1  0.80022607  0.80621304  0.90695211  1
  O  O87  1  0.96667774  0.17110254  0.58403073  1
  O  O88  1  0.20743476  0.04021563  0.58459273  1
  O  O89  1  0.84267319  0.80909703  0.58399312  1
  O  O90  1  0.97617339  0.80334765  0.07993518  1
  O  O91  1  0.82736194  0.03316750  0.07946529  1
  O  O92  1  0.20998558  0.16249464  0.08010486  1
  O  O93  1  0.66396427  0.14092544  0.74840139  1
  O  O94  1  0.47765351  0.33515762  0.74819200  1
  O  O95  1  0.85949880  0.52173116  0.74824261  1
  O  O96  1  0.68047816  0.52635266  0.24569640  1
  O  O97  1  0.84601781  0.31956640  0.24565479  1
  O  O98  1  0.47488892  0.15420224  0.24514262  1
  O  O99  1  0.63880960  0.49853982  0.92524120  1
  O  O100  1  0.85033750  0.37101717  0.92527010  1
  O  O101  1  0.51321877  0.14808271  0.92615138  1
  O  O102  1  0.65073654  0.15470451  0.42668756  1
  O  O103  1  0.50312531  0.34823320  0.42671366  1
  O  O104  1  0.84682941  0.49459954  0.42634925  1
  O  O105  1  0.35695972  0.48455605  0.07888329  1
  O  O106  1  0.13794668  0.65265317  0.07861648  1
  O  O107  1  0.50595154  0.87448709  0.07670734  1
  O  O108  1  0.34828733  0.86679098  0.57384323  1
  O  O109  1  0.50521702  0.65292514  0.57675982  1
  O  O110  1  0.13025521  0.48771730  0.57434304  1
  O  O111  1  0.31297842  0.83884237  0.25527800  1
  O  O112  1  0.52424212  0.68476783  0.25600627  1
  O  O113  1  0.16125857  0.47532641  0.25606512  1
  O  O114  1  0.31514422  0.48756901  0.76102868  1
  O  O115  1  0.17440874  0.68939994  0.76134926  1
  O  O116  1  0.51325617  0.82517569  0.76096044  1
