# generated using pymatgen
data_Na6Hf7Mg(PO4)12
_symmetry_space_group_name_H-M   'P 1'
_cell_length_a   17.72969419
_cell_length_b   8.87770549
_cell_length_c   23.07349815
_cell_angle_alpha   90.02702137
_cell_angle_beta   90.01405402
_cell_angle_gamma   120.01457219
_symmetry_Int_Tables_number   1
_chemical_formula_structural   Na6Hf7Mg(PO4)12
_chemical_formula_sum   'Na18 Hf21 Mg3 P36 O144'
_cell_volume   3144.72119132
_cell_formula_units_Z   3
loop_
 _symmetry_equiv_pos_site_id
 _symmetry_equiv_pos_as_xyz
  1  'x, y, z'
loop_
 _atom_site_type_symbol
 _atom_site_label
 _atom_site_symmetry_multiplicity
 _atom_site_fract_x
 _atom_site_fract_y
 _atom_site_fract_z
 _atom_site_occupancy
  Na  Na0  1  0.68811683  0.36518198  0.24501991  1
  Na  Na1  1  0.99356549  0.62300009  0.24482006  1
  Na  Na2  1  0.99354505  0.36148120  0.74216741  1
  Na  Na3  1  0.49377728  0.36167527  0.74221786  1
  Na  Na4  1  0.18630882  0.00876997  0.74222487  1
  Na  Na5  1  0.68641788  0.00903313  0.74246755  1
  Na  Na6  1  0.99994549  0.99923241  0.50028596  1
  Na  Na7  1  0.49987402  0.99998163  0.50050736  1
  Na  Na8  1  0.99801745  0.99686156  0.00186765  1
  Na  Na9  1  0.50195956  0.00368520  0.00116716  1
  Na  Na10  1  0.33308925  0.34612014  0.82961162  1
  Na  Na11  1  0.83273320  0.34551870  0.83121148  1
  Na  Na12  1  0.33312500  0.33371453  0.33586516  1
  Na  Na13  1  0.83320674  0.31892601  0.33126553  1
  Na  Na14  1  0.17007428  0.66446439  0.16578807  1
  Na  Na15  1  0.66938656  0.68236097  0.16495419  1
  Na  Na16  1  0.17269332  0.66517320  0.66006411  1
  Na  Na17  1  0.67272649  0.66533931  0.66032252  1
  Hf  Hf18  1  0.00025387  0.00322091  0.35411981  1
  Hf  Hf19  1  0.49920005  0.99814929  0.35448783  1
  Hf  Hf20  1  0.99931228  0.99790895  0.85439695  1
  Hf  Hf21  1  0.49961215  0.99779675  0.85448815  1
  Hf  Hf22  1  0.99856929  0.99748852  0.64405810  1
  Hf  Hf23  1  0.49872275  0.99724981  0.64403291  1
  Hf  Hf24  1  0.99770633  0.00113490  0.14591625  1
  Hf  Hf25  1  0.50099686  0.99930866  0.14556605  1
  Hf  Hf26  1  0.33334759  0.33421459  0.18664078  1
  Hf  Hf27  1  0.33346131  0.33221780  0.98003910  1
  Hf  Hf28  1  0.83340503  0.33296354  0.98263947  1
  Hf  Hf29  1  0.33329576  0.33278625  0.48272855  1
  Hf  Hf30  1  0.83349940  0.33448651  0.48186663  1
  Hf  Hf31  1  0.16535180  0.66634333  0.02075532  1
  Hf  Hf32  1  0.66746253  0.66622448  0.02070592  1
  Hf  Hf33  1  0.16619140  0.66691445  0.52005729  1
  Hf  Hf34  1  0.66645376  0.66639853  0.52020436  1
  Hf  Hf35  1  0.16950641  0.66559847  0.31447865  1
  Hf  Hf36  1  0.66623193  0.67314984  0.31478465  1
  Hf  Hf37  1  0.16897517  0.66552216  0.81534670  1
  Hf  Hf38  1  0.66919710  0.66626640  0.81549293  1
  Mg  Mg39  1  0.33289734  0.34066842  0.68176972  1
  Mg  Mg40  1  0.83285818  0.34049764  0.68179973  1
  Mg  Mg41  1  0.83302405  0.32433514  0.18314952  1
  P  P42  1  0.14468079  0.00011639  0.25010201  1
  P  P43  1  0.64587896  0.00126108  0.24983273  1
  P  P44  1  0.35563865  0.71095290  0.24954537  1
  P  P45  1  0.85396084  0.70828475  0.25013574  1
  P  P46  1  0.99887075  0.29119926  0.25018622  1
  P  P47  1  0.49965779  0.28899963  0.25045886  1
  P  P48  1  0.14539263  0.28943814  0.75005867  1
  P  P49  1  0.64535860  0.28970517  0.75004339  1
  P  P50  1  -0.00136974  0.70728789  0.75066260  1
  P  P51  1  0.49857847  0.70715682  0.75065555  1
  P  P52  1  0.35453487  0.00015348  0.75002615  1
  P  P53  1  0.85440838  0.00007508  0.74992711  1
  P  P54  1  0.47894925  0.33448989  0.58623665  1
  P  P55  1  0.97878085  0.33472677  0.58600134  1
  P  P56  1  0.18865713  0.04226370  0.58635376  1
  P  P57  1  0.68897026  0.04258637  0.58603002  1
  P  P58  1  0.33216596  0.62182535  0.58443340  1
  P  P59  1  0.83237166  0.62178616  0.58449993  1
  P  P60  1  0.47812107  0.62281416  0.08308072  1
  P  P61  1  0.97832580  0.62409558  0.08617919  1
  P  P62  1  0.33342243  0.04355478  0.08347383  1
  P  P63  1  0.83269783  0.04319223  0.08431049  1
  P  P64  1  0.18826079  0.33329524  0.08313545  1
  P  P65  1  0.68857261  0.33415565  0.08606304  1
  P  P66  1  0.31252290  0.66660781  0.91801396  1
  P  P67  1  0.81282352  0.66543240  0.91754552  1
  P  P68  1  0.02052679  0.37516199  0.91624104  1
  P  P69  1  0.52098552  0.37538554  0.91608419  1
  P  P70  1  0.16703993  0.95814120  0.91612858  1
  P  P71  1  0.66731536  0.95858924  0.91658453  1
  P  P72  1  0.31177984  0.95823406  0.41695006  1
  P  P73  1  0.81220925  0.95877676  0.41728715  1
  P  P74  1  0.16734964  0.37575864  0.41735336  1
  P  P75  1  0.66722945  0.37674691  0.41545214  1
  P  P76  1  0.02099777  0.66608858  0.41541538  1
  P  P77  1  0.52037426  0.66526813  0.41720713  1
  O  O78  1  0.10162993  0.02432763  0.30437125  1
  O  O79  1  0.59879346  0.02376467  0.30314871  1
  O  O80  1  0.41063126  0.79742180  0.30388387  1
  O  O81  1  0.91225162  0.80126937  0.30324500  1
  O  O82  1  0.48731830  0.17759939  0.30440212  1
  O  O83  1  0.99048083  0.18037611  0.30409065  1
  O  O84  1  0.09953588  0.17479284  0.80393263  1
  O  O85  1  0.59945657  0.17484285  0.80391766  1
  O  O86  1  0.48930688  0.79929007  0.80476026  1
  O  O87  1  0.98943159  0.79953187  0.80474723  1
  O  O88  1  0.41191841  0.02295779  0.80361391  1
  O  O89  1  0.91187333  0.02306573  0.80350433  1
  O  O90  1  0.39792630  0.97388389  0.69629423  1
  O  O91  1  0.89789599  0.97374895  0.69628486  1
  O  O92  1  0.08600697  0.20405571  0.69686211  1
  O  O93  1  0.58597991  0.20420945  0.69683659  1
  O  O94  1  0.01590233  0.82599811  0.69758433  1
  O  O95  1  0.51571541  0.82575644  0.69756726  1
  O  O96  1  0.39919485  0.82245040  0.19558420  1
  O  O97  1  0.89753249  0.82142492  0.19602821  1
  O  O98  1  0.01221348  0.20406194  0.19614833  1
  O  O99  1  0.51471189  0.20334604  0.19677827  1
  O  O100  1  0.08659494  0.97028429  0.19659016  1
  O  O101  1  0.58888491  0.97522989  0.19562879  1
  O  O102  1  0.44189717  0.35990165  0.64240325  1
  O  O103  1  0.94191610  0.35986335  0.64236449  1
  O  O104  1  0.23869534  0.11573465  0.64254257  1
  O  O105  1  0.73860345  0.11569395  0.64243097  1
  O  O106  1  0.31820661  0.51607812  0.63848783  1
  O  O107  1  0.81814426  0.51593573  0.63859740  1
  O  O108  1  0.43419680  0.51136887  0.13719869  1
  O  O109  1  0.94135999  0.52373712  0.14207459  1
  O  O110  1  0.32170167  0.13227272  0.13740411  1
  O  O111  1  0.81843386  0.12121812  0.13806154  1
  O  O112  1  0.24432124  0.35757989  0.13730890  1
  O  O113  1  0.73861744  0.36046550  0.14208977  1
  O  O114  1  0.23249778  0.30972423  0.02912919  1
  O  O115  1  0.73382792  0.30987492  0.03216066  1
  O  O116  1  0.42247399  0.53453729  0.02898263  1
  O  O117  1  0.92137404  0.53269652  0.03212606  1
  O  O118  1  0.34544860  0.15485790  0.02927043  1
  O  O119  1  0.84529152  0.15382421  0.02921369  1
  O  O120  1  0.23440087  0.15734714  0.53280223  1
  O  O121  1  0.73480161  0.15816945  0.53259596  1
  O  O122  1  0.34486654  0.53567405  0.52965632  1
  O  O123  1  0.84489355  0.53609436  0.52959184  1
  O  O124  1  0.42156768  0.31176279  0.53263515  1
  O  O125  1  0.92132907  0.31211968  0.53248935  1
  O  O126  1  0.26787419  0.68989726  0.97126541  1
  O  O127  1  0.76835371  0.68909293  0.97082733  1
  O  O128  1  0.07854772  0.46754686  0.96898317  1
  O  O129  1  0.57829524  0.46772145  0.96876958  1
  O  O130  1  0.15604987  0.84387872  0.96893001  1
  O  O131  1  0.65547591  0.84286197  0.96906865  1
  O  O132  1  0.26779988  0.84610986  0.47042965  1
  O  O133  1  0.76793198  0.84660262  0.47064635  1
  O  O134  1  0.15542956  0.46428960  0.47073000  1
  O  O135  1  0.65524633  0.46804199  0.46825490  1
  O  O136  1  0.07853468  0.68974276  0.46832613  1
  O  O137  1  0.57672579  0.68971001  0.47059655  1
  O  O138  1  0.06360574  0.64319032  0.35970336  1
  O  O139  1  0.56456269  0.64187150  0.36269740  1
  O  O140  1  0.25614687  0.87003136  0.36235216  1
  O  O141  1  0.75605126  0.87053143  0.36274054  1
  O  O142  1  0.17928073  0.48751314  0.36277227  1
  O  O143  1  0.67831823  0.48381332  0.35965170  1
  O  O144  1  0.06330058  0.48323829  0.86043109  1
  O  O145  1  0.56314934  0.48309324  0.86023609  1
  O  O146  1  0.17870887  0.87363673  0.86035062  1
  O  O147  1  0.67850602  0.87340565  0.86059019  1
  O  O148  1  0.25659986  0.64246953  0.86326588  1
  O  O149  1  0.75676424  0.64165548  0.86286555  1
  O  O150  1  0.01172936  0.82974782  0.40938389  1
  O  O151  1  0.51135280  0.82901001  0.41034859  1
  O  O152  1  0.40288154  0.97677605  0.41015899  1
  O  O153  1  0.90327105  0.97740269  0.41026043  1
  O  O154  1  0.08550226  0.19389734  0.41067404  1
  O  O155  1  0.58516139  0.19402496  0.40945158  1
  O  O156  1  0.01164516  0.19372580  0.91000543  1
  O  O157  1  0.51162219  0.19356930  0.91018837  1
  O  O158  1  0.08534755  0.97666051  0.91049568  1
  O  O159  1  0.58537777  0.97688014  0.91053432  1
  O  O160  1  0.40314787  0.82969966  0.91112913  1
  O  O161  1  0.90345018  0.82894377  0.91068412  1
  O  O162  1  0.48852903  0.16900396  0.58927188  1
  O  O163  1  0.98858176  0.16937646  0.58927865  1
  O  O164  1  0.09628699  0.02320013  0.58980607  1
  O  O165  1  0.59647349  0.02334765  0.58976243  1
  O  O166  1  0.41525670  0.80633156  0.58913866  1
  O  O167  1  0.91528992  0.80648291  0.58914671  1
  O  O168  1  0.48713561  0.80451219  0.08914837  1
  O  O169  1  0.98904248  0.80916041  0.08936757  1
  O  O170  1  0.41502463  0.02514473  0.09003414  1
  O  O171  1  0.91547281  0.02386404  0.08849240  1
  O  O172  1  0.09740641  0.17045815  0.08974014  1
  O  O173  1  0.59597600  0.16877990  0.08912430  1
  O  O174  1  0.34477405  0.16229033  0.74595996  1
  O  O175  1  0.84471809  0.16219888  0.74582161  1
  O  O176  1  0.23451544  0.30404971  0.74505917  1
  O  O177  1  0.73453168  0.30422865  0.74499286  1
  O  O178  1  0.42126684  0.52296846  0.74571954  1
  O  O179  1  0.92131481  0.52313220  0.74570607  1
  O  O180  1  0.34573019  0.52833238  0.24293608  1
  O  O181  1  0.84469727  0.52710311  0.24582800  1
  O  O182  1  0.41962788  0.31198873  0.24328148  1
  O  O183  1  0.92027594  0.31752440  0.24598768  1
  O  O184  1  0.23617739  0.16077768  0.24292730  1
  O  O185  1  0.73462334  0.16683270  0.24553279  1
  O  O186  1  0.32152227  0.50356209  0.92352931  1
  O  O187  1  0.82186865  0.50296548  0.92333692  1
  O  O188  1  0.43036850  0.35779991  0.92261470  1
  O  O189  1  0.93034102  0.35828919  0.92290270  1
  O  O190  1  0.24860438  0.13942143  0.92252665  1
  O  O191  1  0.74859854  0.13976705  0.92312538  1
  O  O192  1  0.32128660  0.13967890  0.42320518  1
  O  O193  1  0.82134179  0.13973263  0.42345388  1
  O  O194  1  0.24860858  0.35653812  0.42341047  1
  O  O195  1  0.74847129  0.35751739  0.42256194  1
  O  O196  1  0.42986874  0.50200862  0.42334992  1
  O  O197  1  0.93054441  0.50262673  0.42264835  1
  O  O198  1  0.17899986  0.49689637  0.07674127  1
  O  O199  1  0.67614509  0.49392568  0.07558499  1
  O  O200  1  0.07065221  0.64652815  0.07565481  1
  O  O201  1  0.56939139  0.64284768  0.07686573  1
  O  O202  1  0.25173964  0.86151689  0.07696322  1
  O  O203  1  0.75229969  0.85774716  0.07494161  1
  O  O204  1  0.17693037  0.85853287  0.57610871  1
  O  O205  1  0.67708915  0.85849457  0.57601439  1
  O  O206  1  0.25224280  0.64726673  0.57523397  1
  O  O207  1  0.75225288  0.64670016  0.57534416  1
  O  O208  1  0.07078887  0.49588936  0.57617038  1
  O  O209  1  0.57091659  0.49528045  0.57623351  1
  O  O210  1  0.15051644  0.83158948  0.25640202  1
  O  O211  1  0.65395806  0.83606869  0.25650979  1
  O  O212  1  0.26416574  0.69169152  0.25570295  1
  O  O213  1  0.76132385  0.68508395  0.25667287  1
  O  O214  1  0.08204691  0.47653273  0.25622238  1
  O  O215  1  0.58402632  0.46899834  0.25692656  1
  O  O216  1  0.15050348  0.46939022  0.75734371  1
  O  O217  1  0.65042872  0.46955733  0.75733012  1
  O  O218  1  0.08414700  0.69445641  0.75741071  1
  O  O219  1  0.58404732  0.69430647  0.75732187  1
  O  O220  1  0.26165160  0.83741284  0.75668436  1
  O  O221  1  0.76159352  0.83741001  0.75661586  1
