# generated using pymatgen
data_Cd3AsCl3
_symmetry_space_group_name_H-M   'P 1'
_cell_length_a   7.11882431
_cell_length_b   8.13165212
_cell_length_c   13.29421838
_cell_angle_alpha   90.00000000
_cell_angle_beta   90.00000000
_cell_angle_gamma   90.00000000
_symmetry_Int_Tables_number   1
_chemical_formula_structural   Cd3AsCl3
_chemical_formula_sum   'Cd12 As4 Cl12'
_cell_volume   769.57309186
_cell_formula_units_Z   4
loop_
 _symmetry_equiv_pos_site_id
 _symmetry_equiv_pos_as_xyz
  1  'x, y, z'
loop_
 _atom_site_type_symbol
 _atom_site_label
 _atom_site_symmetry_multiplicity
 _atom_site_fract_x
 _atom_site_fract_y
 _atom_site_fract_z
 _atom_site_occupancy
  Cd  Cd0  1  0.50568979  0.75000000  0.76054403  1
  Cd  Cd1  1  0.00568979  0.25000000  0.73945597  1
  Cd  Cd2  1  0.49431021  0.25000000  0.23945597  1
  Cd  Cd3  1  0.99431021  0.75000000  0.26054403  1
  Cd  Cd4  1  0.50000000  0.50000000  0.50000000  1
  Cd  Cd5  1  -0.00000000  0.50000000  -0.00000000  1
  Cd  Cd6  1  0.50000000  -0.00000000  0.50000000  1
  Cd  Cd7  1  -0.00000000  -0.00000000  -0.00000000  1
  Cd  Cd8  1  0.00127323  0.75000000  0.58757597  1
  Cd  Cd9  1  0.50127323  0.25000000  0.91242403  1
  Cd  Cd10  1  0.99872677  0.25000000  0.41242403  1
  Cd  Cd11  1  0.49872677  0.75000000  0.08757597  1
  As  As12  1  0.85429462  0.75000000  0.08350419  1
  As  As13  1  0.35429462  0.25000000  0.41649581  1
  As  As14  1  0.14570538  0.25000000  0.91649581  1
  As  As15  1  0.64570538  0.75000000  0.58350419  1
  Cl  Cl16  1  0.80158821  0.01957700  0.33239954  1
  Cl  Cl17  1  0.30158821  0.98042300  0.16760046  1
  Cl  Cl18  1  0.19841179  0.51957700  0.66760046  1
  Cl  Cl19  1  0.69841179  0.48042300  0.83239954  1
  Cl  Cl20  1  0.19841179  0.98042300  0.66760046  1
  Cl  Cl21  1  0.69841179  0.01957700  0.83239954  1
  Cl  Cl22  1  0.80158821  0.48042300  0.33239954  1
  Cl  Cl23  1  0.30158821  0.51957700  0.16760046  1
  Cl  Cl24  1  0.30542678  0.75000000  0.91762305  1
  Cl  Cl25  1  0.80542678  0.25000000  0.58237695  1
  Cl  Cl26  1  0.69457322  0.25000000  0.08237695  1
  Cl  Cl27  1  0.19457322  0.75000000  0.41762305  1
