# generated using pymatgen
data_Na18Nb4Zn20Si3(S11O48)3
_symmetry_space_group_name_H-M   'P 1'
_cell_length_a   17.63577240
_cell_length_b   8.81015756
_cell_length_c   22.65056139
_cell_angle_alpha   89.89060506
_cell_angle_beta   90.23370684
_cell_angle_gamma   119.96228993
_symmetry_Int_Tables_number   1
_chemical_formula_structural   Na18Nb4Zn20Si3(S11O48)3
_chemical_formula_sum   'Na18 Nb4 Zn20 Si3 S33 O144'
_cell_volume   3048.94119438
_cell_formula_units_Z   1
loop_
 _symmetry_equiv_pos_site_id
 _symmetry_equiv_pos_as_xyz
  1  'x, y, z'
loop_
 _atom_site_type_symbol
 _atom_site_label
 _atom_site_symmetry_multiplicity
 _atom_site_fract_x
 _atom_site_fract_y
 _atom_site_fract_z
 _atom_site_occupancy
  Na  Na0  1  0.31726733  0.99759672  0.25240448  1
  Na  Na1  1  0.81747947  0.99875341  0.24937220  1
  Na  Na2  1  0.18176192  0.36714602  0.25563136  1
  Na  Na3  1  0.68369148  0.36889655  0.25373612  1
  Na  Na4  1  0.68218897  0.99908227  0.75094062  1
  Na  Na5  1  0.98262455  0.67290907  0.92175557  1
  Na  Na6  1  0.00455148  0.01161455  0.49687527  1
  Na  Na7  1  0.50486310  0.01274958  0.49690018  1
  Na  Na8  1  0.99716746  0.99933101  0.00092493  1
  Na  Na9  1  0.50746734  0.00709269  0.00020151  1
  Na  Na10  1  0.33593424  0.33776630  0.82681171  1
  Na  Na11  1  0.82871419  0.32812812  0.83457081  1
  Na  Na12  1  0.33700689  0.34526843  0.33282911  1
  Na  Na13  1  0.83706756  0.34531467  0.33167232  1
  Na  Na14  1  0.15767360  0.66336055  0.16482417  1
  Na  Na15  1  0.66501646  0.66685477  0.16275926  1
  Na  Na16  1  0.16632226  0.66377594  0.65881032  1
  Na  Na17  1  0.66544243  0.65482224  0.66494801  1
  Nb  Nb18  1  0.33296341  0.32897447  0.97955936  1
  Nb  Nb19  1  0.32972957  0.33447311  0.47878208  1
  Nb  Nb20  1  0.82989147  0.33521769  0.47850998  1
  Nb  Nb21  1  0.16760279  0.67539997  0.81270171  1
  Zn  Zn22  1  0.00469519  0.00841559  0.35360905  1
  Zn  Zn23  1  0.50554870  0.00842772  0.35408312  1
  Zn  Zn24  1  0.99968178  0.00367616  0.85041215  1
  Zn  Zn25  1  0.50638046  0.00163734  0.84861783  1
  Zn  Zn26  1  0.99858866  0.00511896  0.64739738  1
  Zn  Zn27  1  0.50050970  0.00197344  0.64767725  1
  Zn  Zn28  1  0.99600879  0.98989484  0.14870280  1
  Zn  Zn29  1  0.50506881  0.00350233  0.14997092  1
  Zn  Zn30  1  0.33534473  0.33726847  0.68124518  1
  Zn  Zn31  1  0.83511286  0.33506196  0.68111964  1
  Zn  Zn32  1  0.33764766  0.34321077  0.18260155  1
  Zn  Zn33  1  0.83609093  0.33898047  0.17664369  1
  Zn  Zn34  1  0.82511710  0.32232647  0.98739843  1
  Zn  Zn35  1  0.16038710  0.66866338  0.01860114  1
  Zn  Zn36  1  0.67320110  0.67563566  0.01661538  1
  Zn  Zn37  1  0.16466721  0.65555653  0.51425543  1
  Zn  Zn38  1  0.66430372  0.65451559  0.51462019  1
  Zn  Zn39  1  0.16334125  0.65564424  0.32509834  1
  Zn  Zn40  1  0.66479457  0.65769530  0.32484715  1
  Zn  Zn41  1  0.66812020  0.66421151  0.81840332  1
  Si  Si42  1  0.16265090  0.95875569  0.91894696  1
  Si  Si43  1  0.15878380  0.37127053  0.41508835  1
  Si  Si44  1  0.65859700  0.37156841  0.41514498  1
  S  S45  1  0.14631227  0.99675828  0.24890813  1
  S  S46  1  0.64646165  0.99555130  0.24964524  1
  S  S47  1  0.35606521  0.71085077  0.24897885  1
  S  S48  1  0.85500285  0.70794714  0.25034935  1
  S  S49  1  0.99907056  0.29355296  0.24833954  1
  S  S50  1  0.49888548  0.29383938  0.24885776  1
  S  S51  1  0.14738007  0.29025167  0.75023480  1
  S  S52  1  0.64686232  0.29603001  0.74935286  1
  S  S53  1  0.99692120  0.70494873  0.75011458  1
  S  S54  1  0.49863668  0.70473911  0.75004345  1
  S  S55  1  0.35665705  0.00480402  0.75065496  1
  S  S56  1  0.85395201  0.99990630  0.74992214  1
  S  S57  1  0.47992830  0.33349199  0.58526008  1
  S  S58  1  0.98010121  0.33452356  0.58504931  1
  S  S59  1  0.18686506  0.03824722  0.58495444  1
  S  S60  1  0.68619145  0.03630542  0.58449515  1
  S  S61  1  0.33361367  0.62807090  0.58526405  1
  S  S62  1  0.83379538  0.62787676  0.58530565  1
  S  S63  1  0.48121224  0.62818269  0.08388953  1
  S  S64  1  0.98124603  0.62891541  0.08263783  1
  S  S65  1  0.33346703  0.03763431  0.08543790  1
  S  S66  1  0.83381138  0.03803524  0.08381361  1
  S  S67  1  0.18675991  0.33596803  0.08428776  1
  S  S68  1  0.68369525  0.33315276  0.08441747  1
  S  S69  1  0.31396401  0.67237134  0.91824970  1
  S  S70  1  0.81233631  0.66396837  0.91662342  1
  S  S71  1  0.02069679  0.37234176  0.91744069  1
  S  S72  1  0.52318629  0.37382180  0.91771123  1
  S  S73  1  0.66647737  0.96131299  0.91621827  1
  S  S74  1  0.31360146  0.95774651  0.41708448  1
  S  S75  1  0.81348280  0.95775603  0.41728209  1
  S  S76  1  0.02105342  0.67038926  0.41796910  1
  S  S77  1  0.52115760  0.67001007  0.41782617  1
  O  O78  1  0.10796949  0.02834997  0.30163890  1
  O  O79  1  0.60690445  0.02737677  0.30171695  1
  O  O80  1  0.40723413  0.78934858  0.30271615  1
  O  O81  1  0.90691270  0.78856591  0.30378929  1
  O  O82  1  0.48228208  0.18331455  0.30170352  1
  O  O83  1  0.98314123  0.18413551  0.30152204  1
  O  O84  1  0.10737644  0.18865776  0.80364672  1
  O  O85  1  0.60833003  0.18551223  0.80280927  1
  O  O86  1  0.48500296  0.78364577  0.80371330  1
  O  O87  1  0.98843973  0.78119298  0.80528175  1
  O  O88  1  0.40562818  0.02287395  0.80480916  1
  O  O89  1  0.90674103  0.02595314  0.80342898  1
  O  O90  1  0.39058083  0.96877911  0.69701103  1
  O  O91  1  0.89365435  0.97329915  0.69651929  1
  O  O92  1  0.09438709  0.22152751  0.69649373  1
  O  O93  1  0.59326028  0.21402004  0.69601222  1
  O  O94  1  0.01662174  0.81494418  0.69769714  1
  O  O95  1  0.51448120  0.81670949  0.69701700  1
  O  O96  1  0.39667239  0.81814437  0.19543929  1
  O  O97  1  0.89457193  0.81541278  0.19692177  1
  O  O98  1  0.01534258  0.21335420  0.19565468  1
  O  O99  1  0.51321331  0.21353073  0.19564213  1
  O  O100  1  0.09530978  0.97433963  0.19486260  1
  O  O101  1  0.59492544  0.96944104  0.19539309  1
  O  O102  1  0.43827751  0.35464522  0.63839250  1
  O  O103  1  0.93855901  0.35589825  0.63822150  1
  O  O104  1  0.24019621  0.11999766  0.63770024  1
  O  O105  1  0.73751358  0.11508802  0.63888470  1
  O  O106  1  0.32071297  0.52014652  0.63764329  1
  O  O107  1  0.82127408  0.51957206  0.63762455  1
  O  O108  1  0.44038849  0.52060173  0.13645560  1
  O  O109  1  0.93950257  0.52266627  0.13583282  1
  O  O110  1  0.32125352  0.12003129  0.13840875  1
  O  O111  1  0.82063195  0.11340101  0.13945461  1
  O  O112  1  0.23904211  0.36005620  0.13808637  1
  O  O113  1  0.73486046  0.35785488  0.13997824  1
  O  O114  1  0.23635883  0.31550567  0.03080991  1
  O  O115  1  0.72497202  0.30730344  0.03202187  1
  O  O116  1  0.42238160  0.53127384  0.03014431  1
  O  O117  1  0.93061297  0.54981730  0.02735621  1
  O  O118  1  0.34303821  0.15643417  0.03128932  1
  O  O119  1  0.84670797  0.14771923  0.03135968  1
  O  O120  1  0.23355029  0.15427247  0.53082559  1
  O  O121  1  0.73462822  0.15534892  0.53175349  1
  O  O122  1  0.34352430  0.53295615  0.53122718  1
  O  O123  1  0.84391168  0.53311209  0.53115869  1
  O  O124  1  0.42394453  0.31273993  0.53140533  1
  O  O125  1  0.92430540  0.31332417  0.53131820  1
  O  O126  1  0.27233321  0.68996056  0.97097472  1
  O  O127  1  0.77311243  0.68891269  0.97017316  1
  O  O128  1  0.07443692  0.45020214  0.96994452  1
  O  O129  1  0.57387146  0.45406562  0.97118633  1
  O  O130  1  0.14834365  0.83606909  0.97331682  1
  O  O131  1  0.65314157  0.85089443  0.96850784  1
  O  O132  1  0.27112332  0.85658662  0.46966159  1
  O  O133  1  0.77089918  0.85657902  0.46994846  1
  O  O134  1  0.15148033  0.45871296  0.47426478  1
  O  O135  1  0.65187886  0.45870307  0.47455885  1
  O  O136  1  0.07310772  0.69763665  0.47107253  1
  O  O137  1  0.57333791  0.69777860  0.47099344  1
  O  O138  1  0.05464303  0.63336620  0.36368215  1
  O  O139  1  0.55483739  0.63296212  0.36367088  1
  O  O140  1  0.26172986  0.89569555  0.36150577  1
  O  O141  1  0.76168793  0.89621050  0.36181359  1
  O  O142  1  0.18873897  0.48069988  0.35323929  1
  O  O143  1  0.68798565  0.47976527  0.35329909  1
  O  O144  1  0.06858883  0.49330475  0.86353045  1
  O  O145  1  0.55524147  0.47754799  0.86376837  1
  O  O146  1  0.18201286  0.86201192  0.85961897  1
  O  O147  1  0.67839405  0.88492889  0.86051655  1
  O  O148  1  0.25745128  0.63707818  0.86367291  1
  O  O149  1  0.75915082  0.63567259  0.86304485  1
  O  O150  1  0.00306327  0.81412112  0.41120500  1
  O  O151  1  0.50318204  0.81383616  0.41109919  1
  O  O152  1  0.40079866  0.97940876  0.41093020  1
  O  O153  1  0.90066647  0.97954982  0.41124245  1
  O  O154  1  0.08094950  0.17155925  0.41173340  1
  O  O155  1  0.58094255  0.17183556  0.41221218  1
  O  O156  1  0.00989199  0.19939896  0.90819454  1
  O  O157  1  0.50587018  0.19300059  0.91170225  1
  O  O158  1  0.07852968  0.97725397  0.90782314  1
  O  O159  1  0.58648232  0.97952821  0.91176431  1
  O  O160  1  0.40094730  0.82301080  0.90958067  1
  O  O161  1  0.90146082  0.82234058  0.91126267  1
  O  O162  1  0.48576393  0.17108182  0.58774510  1
  O  O163  1  0.98631593  0.17257729  0.58743132  1
  O  O164  1  0.10079787  0.02832064  0.58716060  1
  O  O165  1  0.60053509  0.02747005  0.58614042  1
  O  O166  1  0.41561935  0.79865724  0.58673376  1
  O  O167  1  0.91605024  0.79830518  0.58689375  1
  O  O168  1  0.48451518  0.79828008  0.08549206  1
  O  O169  1  0.99052756  0.80593800  0.08753080  1
  O  O170  1  0.41472809  0.03104182  0.08583738  1
  O  O171  1  0.91369549  0.02140437  0.08845741  1
  O  O172  1  0.10165174  0.17484742  0.08524492  1
  O  O173  1  0.59554622  0.17208391  0.08878721  1
  O  O174  1  0.33953165  0.15153714  0.74559369  1
  O  O175  1  0.84178550  0.15728617  0.74503033  1
  O  O176  1  0.23673351  0.31741995  0.74470822  1
  O  O177  1  0.73491147  0.30773186  0.74413961  1
  O  O178  1  0.42043856  0.52752617  0.74428809  1
  O  O179  1  0.92235157  0.52655076  0.74435702  1
  O  O180  1  0.34159210  0.52764223  0.24388979  1
  O  O181  1  0.84131403  0.52628901  0.24468122  1
  O  O182  1  0.41719090  0.30713912  0.24286088  1
  O  O183  1  0.91802188  0.30772089  0.24204866  1
  O  O184  1  0.23717750  0.16008880  0.24395685  1
  O  O185  1  0.73640579  0.15848334  0.24434370  1
  O  O186  1  0.32191855  0.50712589  0.92329391  1
  O  O187  1  0.82562975  0.50815578  0.92178686  1
  O  O188  1  0.43058335  0.35738566  0.92687221  1
  O  O189  1  0.93628326  0.37016592  0.91882450  1
  O  O190  1  0.25507046  0.15353819  0.92553651  1
  O  O191  1  0.74645459  0.13789255  0.92193019  1
  O  O192  1  0.32449836  0.14269529  0.42536086  1
  O  O193  1  0.82433857  0.14282638  0.42570532  1
  O  O194  1  0.25318865  0.35278678  0.42827812  1
  O  O195  1  0.75296044  0.35289408  0.42846659  1
  O  O196  1  0.43057093  0.50108390  0.42610396  1
  O  O197  1  0.93054587  0.50116434  0.42608512  1
  O  O198  1  0.18056328  0.49433400  0.07516673  1
  O  O199  1  0.67497604  0.49198291  0.07854427  1
  O  O200  1  0.06902122  0.64240017  0.08060231  1
  O  O201  1  0.56712860  0.64351251  0.07572165  1
  O  O202  1  0.25551587  0.86605973  0.07741144  1
  O  O203  1  0.75362549  0.86197050  0.07847122  1
  O  O204  1  0.17914175  0.86573050  0.57597766  1
  O  O205  1  0.67906080  0.86471131  0.57557428  1
  O  O206  1  0.25627365  0.64770840  0.57830566  1
  O  O207  1  0.75654900  0.64736733  0.57827689  1
  O  O208  1  0.06674607  0.49349559  0.57998591  1
  O  O209  1  0.56646035  0.49262479  0.57988720  1
  O  O210  1  0.16031718  0.84332013  0.25507261  1
  O  O211  1  0.65981373  0.84162452  0.25599451  1
  O  O212  1  0.26659951  0.69413594  0.25158183  1
  O  O213  1  0.76574685  0.69290730  0.25301204  1
  O  O214  1  0.07850825  0.47087025  0.25374652  1
  O  O215  1  0.57785514  0.47037947  0.25392477  1
  O  O216  1  0.15714932  0.47423809  0.75917330  1
  O  O217  1  0.65650992  0.47190814  0.75589975  1
  O  O218  1  0.08062270  0.68375118  0.75734158  1
  O  O219  1  0.58052002  0.69259166  0.75590993  1
  O  O220  1  0.26405274  0.83389298  0.75790928  1
  O  O221  1  0.76329974  0.84338519  0.75482902  1
