# generated using pymatgen
data_K3CuO2
_symmetry_space_group_name_H-M   'P 1'
_cell_length_a   8.58254840
_cell_length_b   8.58254840
_cell_length_c   13.17235860
_cell_angle_alpha   90.00000000
_cell_angle_beta   90.00000000
_cell_angle_gamma   90.00000000
_symmetry_Int_Tables_number   1
_chemical_formula_structural   K3CuO2
_chemical_formula_sum   'K24 Cu8 O16'
_cell_volume   970.27773959
_cell_formula_units_Z   8
loop_
 _symmetry_equiv_pos_site_id
 _symmetry_equiv_pos_as_xyz
  1  'x, y, z'
loop_
 _atom_site_type_symbol
 _atom_site_label
 _atom_site_symmetry_multiplicity
 _atom_site_fract_x
 _atom_site_fract_y
 _atom_site_fract_z
 _atom_site_occupancy
  K  K0  1  0.06341096  0.46514485  0.49981416  1
  K  K1  1  0.76647858  0.35222319  0.64339084  1
  K  K2  1  0.23352142  0.64777681  0.14339084  1
  K  K3  1  0.85222319  0.73352142  0.39339084  1
  K  K4  1  0.64777681  0.23352142  0.85660916  1
  K  K5  1  0.14777681  0.26647858  0.89339084  1
  K  K6  1  0.73352142  0.85222319  0.60660916  1
  K  K7  1  0.26647858  0.14777681  0.10660916  1
  K  K8  1  0.94259879  0.94259879  0.00000000  1
  K  K9  1  0.55740121  0.44259879  0.25000000  1
  K  K10  1  0.44259879  0.55740121  0.75000000  1
  K  K11  1  0.05740121  0.05740121  0.50000000  1
  K  K12  1  0.52509257  0.52509257  0.00000000  1
  K  K13  1  0.97490743  0.02509257  0.25000000  1
  K  K14  1  0.02509257  0.97490743  0.75000000  1
  K  K15  1  0.47490743  0.47490743  0.50000000  1
  K  K16  1  0.46514485  0.06341096  0.50018584  1
  K  K17  1  0.96514485  0.43658904  0.24981416  1
  K  K18  1  0.03485515  0.56341096  0.74981416  1
  K  K19  1  0.43658904  0.96514485  0.75018584  1
  K  K20  1  0.56341096  0.03485515  0.25018584  1
  K  K21  1  0.53485515  0.93658904  0.00018584  1
  K  K22  1  0.35222319  0.76647858  0.35660916  1
  K  K23  1  0.93658904  0.53485515  0.99981416  1
  Cu  Cu24  1  0.73292069  0.73645767  0.16656182  1
  Cu  Cu25  1  0.26707931  0.26354233  0.66656182  1
  Cu  Cu26  1  0.73645767  0.73292069  0.83343818  1
  Cu  Cu27  1  0.23645767  0.76707931  0.91656182  1
  Cu  Cu28  1  0.76354233  0.23292069  0.41656182  1
  Cu  Cu29  1  0.76707931  0.23645767  0.08343818  1
  Cu  Cu30  1  0.23292069  0.76354233  0.58343818  1
  Cu  Cu31  1  0.26354233  0.26707931  0.33343818  1
  O  O32  1  0.76292028  0.02340166  0.41691131  1
  O  O33  1  0.23707972  0.97659834  0.91691131  1
  O  O34  1  0.02340166  0.76292028  0.58308869  1
  O  O35  1  0.52340166  0.73707972  0.16691131  1
  O  O36  1  0.47659834  0.26292028  0.66691131  1
  O  O37  1  0.73707972  0.52340166  0.83308869  1
  O  O38  1  0.26292028  0.47659834  0.33308869  1
  O  O39  1  0.97659834  0.23707972  0.08308869  1
  O  O40  1  0.76749207  0.44207003  0.42085166  1
  O  O41  1  0.26749207  0.05792997  0.32914834  1
  O  O42  1  0.73250793  0.94207003  0.82914834  1
  O  O43  1  0.05792997  0.26749207  0.67085166  1
  O  O44  1  0.94207003  0.73250793  0.17085166  1
  O  O45  1  0.23250793  0.55792997  0.92085166  1
  O  O46  1  0.44207003  0.76749207  0.57914834  1
  O  O47  1  0.55792997  0.23250793  0.07914834  1
