# generated using pymatgen
data_Na5Ca3ZrP3(SO8)3
_symmetry_space_group_name_H-M   'P 1'
_cell_length_a   9.28429774
_cell_length_b   9.28921012
_cell_length_c   23.43808843
_cell_angle_alpha   90.24077311
_cell_angle_beta   89.88114695
_cell_angle_gamma   119.76692887
_symmetry_Int_Tables_number   1
_chemical_formula_structural   Na5Ca3ZrP3(SO8)3
_chemical_formula_sum   'Na15 Ca9 Zr3 P9 S9 O72'
_cell_volume   1754.65615024
_cell_formula_units_Z   3
loop_
 _symmetry_equiv_pos_site_id
 _symmetry_equiv_pos_as_xyz
  1  'x, y, z'
loop_
 _atom_site_type_symbol
 _atom_site_label
 _atom_site_symmetry_multiplicity
 _atom_site_fract_x
 _atom_site_fract_y
 _atom_site_fract_z
 _atom_site_occupancy
  Na  Na0  1  0.99873386  0.63505980  0.25820777  1
  Na  Na1  1  0.30281103  0.34493236  0.58859821  1
  Na  Na2  1  0.02359752  0.68798789  0.57879196  1
  Na  Na3  1  0.67118519  0.95725700  0.57672636  1
  Na  Na4  1  0.66764134  0.69778052  0.07933357  1
  Na  Na5  1  0.03772416  0.34543206  0.08369935  1
  Na  Na6  1  0.98744365  0.68306898  0.91029940  1
  Na  Na7  1  0.32100763  0.29399889  0.90390167  1
  Na  Na8  1  0.69824217  0.68182569  0.41872020  1
  Na  Na9  1  0.99412060  0.00219455  0.49332541  1
  Na  Na10  1  0.00068293  0.99125389  0.99292878  1
  Na  Na11  1  0.65169020  0.31652490  0.82030656  1
  Na  Na12  1  0.65491877  0.29509561  0.33539230  1
  Na  Na13  1  0.33589100  0.68095812  0.17487384  1
  Na  Na14  1  0.33218013  0.64713022  0.66835147  1
  Ca  Ca15  1  0.00287465  0.00930737  0.35090082  1
  Ca  Ca16  1  0.99455641  0.00397131  0.84643653  1
  Ca  Ca17  1  0.00137535  0.00750777  0.65597555  1
  Ca  Ca18  1  0.00650490  0.99716755  0.14969680  1
  Ca  Ca19  1  0.66659296  0.34015921  0.68608079  1
  Ca  Ca20  1  0.65927873  0.32670130  0.18583554  1
  Ca  Ca21  1  0.33242113  0.67720344  0.01493860  1
  Ca  Ca22  1  0.32871990  0.66746572  0.51059284  1
  Ca  Ca23  1  0.33596818  0.67273100  0.32338286  1
  Zr  Zr24  1  0.67070796  0.33245072  0.97690119  1
  Zr  Zr25  1  0.68297201  0.33657188  0.48143984  1
  Zr  Zr26  1  0.33718815  0.66494391  0.81860205  1
  P  P27  1  0.30779076  0.31175054  0.75365356  1
  P  P28  1  0.96363626  0.33303260  0.58439259  1
  P  P29  1  0.66588357  0.62828703  0.58113641  1
  P  P30  1  0.95452732  0.62277519  0.08276971  1
  P  P31  1  0.63052345  0.66238841  0.92121676  1
  P  P32  1  0.03910068  0.37418313  0.92023781  1
  P  P33  1  0.33527140  0.96602212  0.91677490  1
  P  P34  1  0.63865249  0.97289237  0.42085051  1
  P  P35  1  0.02097949  0.66531871  0.41734779  1
  S  S36  1  0.29879291  0.99445069  0.25027579  1
  S  S37  1  0.69720281  0.69937689  0.24853418  1
  S  S38  1  0.00480218  0.30888170  0.24671322  1
  S  S39  1  0.00958051  0.69609764  0.75312524  1
  S  S40  1  0.68496358  0.99110036  0.75052836  1
  S  S41  1  0.37416479  0.04184334  0.58233580  1
  S  S42  1  0.67063819  0.04166115  0.08138829  1
  S  S43  1  0.37274473  0.33374461  0.07993910  1
  S  S44  1  0.34251403  0.36372208  0.42026519  1
  O  O45  1  0.21375036  0.00767541  0.30117360  1
  O  O46  1  0.80009404  0.78798715  0.29887452  1
  O  O47  1  0.99671893  0.20786118  0.29566242  1
  O  O48  1  0.21853231  0.21036648  0.80681562  1
  O  O49  1  0.99259211  0.77945589  0.80450828  1
  O  O50  1  0.78980459  0.00729010  0.79945587  1
  O  O51  1  0.75259669  0.96600760  0.69649031  1
  O  O52  1  0.21022935  0.24064600  0.69759033  1
  O  O53  1  0.02891181  0.79161337  0.70056965  1
  O  O54  1  0.77649337  0.79283442  0.19497873  1
  O  O55  1  0.01257480  0.23063970  0.19183709  1
  O  O56  1  0.20342876  0.98291133  0.19782402  1
  O  O57  1  0.87914956  0.35328023  0.63670695  1
  O  O58  1  0.47180516  0.11709869  0.63410158  1
  O  O59  1  0.64049877  0.51919603  0.63264908  1
  O  O60  1  0.87012911  0.52430069  0.13656247  1
  O  O61  1  0.65296914  0.11837948  0.13323198  1
  O  O62  1  0.46847624  0.34439278  0.13073883  1
  O  O63  1  0.45880555  0.31838115  0.02744239  1
  O  O64  1  0.83981295  0.51688299  0.02924658  1
  O  O65  1  0.67568431  0.14247902  0.03012255  1
  O  O66  1  0.46335850  0.14630996  0.53148930  1
  O  O67  1  0.67917395  0.53380657  0.52624275  1
  O  O68  1  0.85185174  0.32074813  0.53079319  1
  O  O69  1  0.56339622  0.68497922  0.97762086  1
  O  O70  1  0.13145077  0.44339919  0.97621348  1
  O  O71  1  0.30393295  0.86316214  0.97004858  1
  O  O72  1  0.56445193  0.87381229  0.47619839  1
  O  O73  1  0.32269815  0.43699354  0.47360503  1
  O  O74  1  0.11754847  0.68050938  0.47192114  1
  O  O75  1  0.09577738  0.63936035  0.36242763  1
  O  O76  1  0.53045368  0.89046745  0.36856096  1
  O  O77  1  0.36967212  0.47316585  0.37102735  1
  O  O78  1  0.13316951  0.49959534  0.87029835  1
  O  O79  1  0.35985698  0.87585186  0.86446159  1
  O  O80  1  0.50869171  0.63867140  0.87095626  1
  O  O81  1  0.98591676  0.81116437  0.41406064  1
  O  O82  1  0.81288205  0.99147261  0.41495359  1
  O  O83  1  0.19908149  0.19628972  0.41340651  1
  O  O84  1  0.01848967  0.20272937  0.91042557  1
  O  O85  1  0.18548727  0.99431743  0.90925022  1
  O  O86  1  0.81035839  0.79852648  0.91131290  1
  O  O87  1  0.97459140  0.17145333  0.58334424  1
  O  O88  1  0.20775695  0.03040036  0.58472821  1
  O  O89  1  0.83030421  0.79861251  0.58315697  1
  O  O90  1  0.95656142  0.79065905  0.07972467  1
  O  O91  1  0.83182760  0.04026479  0.08068184  1
  O  O92  1  0.20104178  0.18984922  0.08072631  1
  O  O93  1  0.66153781  0.13662694  0.74824846  1
  O  O94  1  0.48405861  0.33764092  0.75182957  1
  O  O95  1  0.86567445  0.52696408  0.75038944  1
  O  O96  1  0.69223573  0.53554673  0.24696532  1
  O  O97  1  0.85442320  0.32992101  0.24815910  1
  O  O98  1  0.46846661  0.13946763  0.24822309  1
  O  O99  1  0.63160349  0.48950005  0.92313971  1
  O  O100  1  0.86348705  0.36642369  0.92300898  1
  O  O101  1  0.49562897  0.14384476  0.92301668  1
  O  O102  1  0.65528665  0.15068754  0.42676499  1
  O  O103  1  0.49940844  0.35197936  0.42422758  1
  O  O104  1  0.83967783  0.50302867  0.42304964  1
  O  O105  1  0.36299265  0.48944183  0.07760092  1
  O  O106  1  0.12550610  0.63519086  0.07836993  1
  O  O107  1  0.53289754  0.86879143  0.07780383  1
  O  O108  1  0.35080338  0.87173570  0.57686129  1
  O  O109  1  0.51315161  0.65393280  0.57691904  1
  O  O110  1  0.13869031  0.48767317  0.57859512  1
  O  O111  1  0.30522637  0.83607499  0.25177603  1
  O  O112  1  0.52799030  0.67591956  0.25202821  1
  O  O113  1  0.15335928  0.47937136  0.24945687  1
  O  O114  1  0.32211870  0.49085065  0.76233999  1
  O  O115  1  0.16616669  0.68388074  0.75919715  1
  O  O116  1  0.51660160  0.83640969  0.75875021  1
