# generated using pymatgen
data_Na3Nb2Zn4P3(SO6)6
_symmetry_space_group_name_H-M   'P 1'
_cell_length_a   8.73882601
_cell_length_b   8.73882573
_cell_length_c   22.80134862
_cell_angle_alpha   90.00000000
_cell_angle_beta   90.00000000
_cell_angle_gamma   120.00000109
_symmetry_Int_Tables_number   1
_chemical_formula_structural   Na3Nb2Zn4P3(SO6)6
_chemical_formula_sum   'Na6 Nb4 Zn8 P6 S12 O72'
_cell_volume   1507.98608169
_cell_formula_units_Z   2
loop_
 _symmetry_equiv_pos_site_id
 _symmetry_equiv_pos_as_xyz
  1  'x, y, z'
loop_
 _atom_site_type_symbol
 _atom_site_label
 _atom_site_symmetry_multiplicity
 _atom_site_fract_x
 _atom_site_fract_y
 _atom_site_fract_z
 _atom_site_occupancy
  Na  Na0  1  0.00000000  0.00000000  0.49640854  1
  Na  Na1  1  0.00000000  0.00000000  0.99640854  1
  Na  Na2  1  0.66666700  0.33333300  0.82825397  1
  Na  Na3  1  0.66666700  0.33333300  0.32825397  1
  Na  Na4  1  0.33333300  0.66666700  0.16088143  1
  Na  Na5  1  0.33333300  0.66666700  0.66088143  1
  Nb  Nb6  1  0.66666700  0.33333300  0.97730341  1
  Nb  Nb7  1  0.66666700  0.33333300  0.47730341  1
  Nb  Nb8  1  0.33333300  0.66666700  0.31638235  1
  Nb  Nb9  1  0.33333300  0.66666700  0.81638235  1
  Zn  Zn10  1  0.00000000  0.00000000  0.35356616  1
  Zn  Zn11  1  0.00000000  0.00000000  0.85356616  1
  Zn  Zn12  1  0.00000000  0.00000000  0.64899843  1
  Zn  Zn13  1  0.00000000  0.00000000  0.14899843  1
  Zn  Zn14  1  0.66666700  0.33333300  0.68309825  1
  Zn  Zn15  1  0.66666700  0.33333300  0.18309825  1
  Zn  Zn16  1  0.33333300  0.66666700  0.01465407  1
  Zn  Zn17  1  0.33333300  0.66666700  0.51465407  1
  P  P18  1  0.62753590  0.67368833  0.91947271  1
  P  P19  1  0.04615143  0.37246410  0.91947271  1
  P  P20  1  0.32631167  0.95384857  0.91947271  1
  P  P21  1  0.62753590  0.95384857  0.41947271  1
  P  P22  1  0.32631167  0.37246410  0.41947271  1
  P  P23  1  0.04615143  0.67368833  0.41947271  1
  S  S24  1  0.29329395  0.00342216  0.25000964  1
  S  S25  1  0.71012821  0.70670605  0.25000964  1
  S  S26  1  0.99657784  0.28987179  0.25000964  1
  S  S27  1  0.29329395  0.28987179  0.75000964  1
  S  S28  1  0.99657784  0.70670605  0.75000964  1
  S  S29  1  0.71012821  0.00342216  0.75000964  1
  S  S30  1  0.96028169  0.33395010  0.58480274  1
  S  S31  1  0.37366941  0.03971831  0.58480274  1
  S  S32  1  0.66604990  0.62633059  0.58480274  1
  S  S33  1  0.96028169  0.62633059  0.08480274  1
  S  S34  1  0.66604990  0.03971831  0.08480274  1
  S  S35  1  0.37366941  0.33395010  0.08480274  1
  O  O36  1  0.21321787  0.02538072  0.30305280  1
  O  O37  1  0.81216284  0.78678213  0.30305280  1
  O  O38  1  0.97461928  0.18783716  0.30305280  1
  O  O39  1  0.21321787  0.18783716  0.80305280  1
  O  O40  1  0.97461928  0.78678213  0.80305280  1
  O  O41  1  0.81216284  0.02538072  0.80305280  1
  O  O42  1  0.77916487  0.96608454  0.69626195  1
  O  O43  1  0.18691967  0.22083513  0.69626195  1
  O  O44  1  0.03391546  0.81308033  0.69626195  1
  O  O45  1  0.77916487  0.81308033  0.19626195  1
  O  O46  1  0.03391546  0.22083513  0.19626195  1
  O  O47  1  0.18691967  0.96608454  0.19626195  1
  O  O48  1  0.87661754  0.35751033  0.63718901  1
  O  O49  1  0.48089379  0.12338246  0.63718901  1
  O  O50  1  0.64248967  0.51910621  0.63718901  1
  O  O51  1  0.87661754  0.51910621  0.13718901  1
  O  O52  1  0.64248967  0.12338246  0.13718901  1
  O  O53  1  0.48089379  0.35751033  0.13718901  1
  O  O54  1  0.46941318  0.31397335  0.03047585  1
  O  O55  1  0.84456117  0.53058682  0.03047585  1
  O  O56  1  0.68602665  0.15543883  0.03047585  1
  O  O57  1  0.46941318  0.15543883  0.53047585  1
  O  O58  1  0.68602665  0.53058682  0.53047585  1
  O  O59  1  0.84456117  0.31397335  0.53047585  1
  O  O60  1  0.54530353  0.69628064  0.97381220  1
  O  O61  1  0.15097611  0.45469647  0.97381220  1
  O  O62  1  0.30371936  0.84902389  0.97381220  1
  O  O63  1  0.54530353  0.84902389  0.47381220  1
  O  O64  1  0.30371936  0.45469647  0.47381220  1
  O  O65  1  0.15097611  0.69628064  0.47381220  1
  O  O66  1  0.13245593  0.63581088  0.36312247  1
  O  O67  1  0.50335395  0.86754407  0.36312247  1
  O  O68  1  0.36418912  0.49664605  0.36312247  1
  O  O69  1  0.13245593  0.49664605  0.86312247  1
  O  O70  1  0.36418912  0.86754407  0.86312247  1
  O  O71  1  0.50335395  0.63581088  0.86312247  1
  O  O72  1  0.01392255  0.82424796  0.40820747  1
  O  O73  1  0.81032540  0.98607745  0.40820747  1
  O  O74  1  0.17575204  0.18967460  0.40820747  1
  O  O75  1  0.01392255  0.18967460  0.90820747  1
  O  O76  1  0.17575204  0.98607745  0.90820747  1
  O  O77  1  0.81032540  0.82424796  0.90820747  1
  O  O78  1  0.96732566  0.16847369  0.58591664  1
  O  O79  1  0.20114804  0.03267434  0.58591664  1
  O  O80  1  0.83152631  0.79885196  0.58591664  1
  O  O81  1  0.96732566  0.79885196  0.08591664  1
  O  O82  1  0.83152631  0.03267434  0.08591664  1
  O  O83  1  0.20114804  0.16847369  0.08591664  1
  O  O84  1  0.68081627  0.15543869  0.74443068  1
  O  O85  1  0.47462342  0.31918373  0.74443068  1
  O  O86  1  0.84456131  0.52537658  0.74443068  1
  O  O87  1  0.68081627  0.52537658  0.24443068  1
  O  O88  1  0.84456131  0.31918373  0.24443068  1
  O  O89  1  0.47462342  0.15543869  0.24443068  1
  O  O90  1  0.63529965  0.49505176  0.92451977  1
  O  O91  1  0.85975312  0.36470035  0.92451977  1
  O  O92  1  0.50494824  0.14024688  0.92451977  1
  O  O93  1  0.63529965  0.14024688  0.42451977  1
  O  O94  1  0.50494824  0.36470035  0.42451977  1
  O  O95  1  0.85975312  0.49505176  0.42451977  1
  O  O96  1  0.35770687  0.49210741  0.07784228  1
  O  O97  1  0.13439954  0.64229313  0.07784228  1
  O  O98  1  0.50789259  0.86560046  0.07784228  1
  O  O99  1  0.35770687  0.86560046  0.57784228  1
  O  O100  1  0.50789259  0.64229313  0.57784228  1
  O  O101  1  0.13439954  0.49210741  0.57784228  1
  O  O102  1  0.31177267  0.83600781  0.25770160  1
  O  O103  1  0.52423415  0.68822733  0.25770160  1
  O  O104  1  0.16399219  0.47576585  0.25770160  1
  O  O105  1  0.31177267  0.47576585  0.75770160  1
  O  O106  1  0.16399219  0.68822733  0.75770160  1
  O  O107  1  0.52423415  0.83600781  0.75770160  1
