# generated using pymatgen
data_Na7Mg2Zn2P3(SO8)3
_symmetry_space_group_name_H-M   'P 1'
_cell_length_a   9.00824530
_cell_length_b   8.99808857
_cell_length_c   21.92492239
_cell_angle_alpha   89.26456137
_cell_angle_beta   90.56182767
_cell_angle_gamma   119.93312262
_symmetry_Int_Tables_number   1
_chemical_formula_structural   Na7Mg2Zn2P3(SO8)3
_chemical_formula_sum   'Na21 Mg6 Zn6 P9 S9 O72'
_cell_volume   1539.97020472
_cell_formula_units_Z   3
loop_
 _symmetry_equiv_pos_site_id
 _symmetry_equiv_pos_as_xyz
  1  'x, y, z'
loop_
 _atom_site_type_symbol
 _atom_site_label
 _atom_site_symmetry_multiplicity
 _atom_site_fract_x
 _atom_site_fract_y
 _atom_site_fract_z
 _atom_site_occupancy
  Na  Na0  1  0.63460205  0.00590173  0.25394039  1
  Na  Na1  1  0.35534604  0.35485629  0.24546986  1
  Na  Na2  1  0.00870533  0.63520154  0.25106800  1
  Na  Na3  1  0.63457913  0.63891156  0.74478585  1
  Na  Na4  1  0.99686745  0.35997583  0.75376994  1
  Na  Na5  1  0.02688813  0.69866493  0.57958155  1
  Na  Na6  1  0.66467460  0.95791308  0.58347251  1
  Na  Na7  1  0.30131553  0.97419522  0.08185557  1
  Na  Na8  1  0.04269493  0.33533133  0.08314634  1
  Na  Na9  1  0.97846222  0.66802079  0.91678042  1
  Na  Na10  1  0.69833414  0.03636607  0.91210156  1
  Na  Na11  1  0.32617058  0.29349706  0.92061534  1
  Na  Na12  1  0.96215022  0.30092282  0.41241920  1
  Na  Na13  1  0.33171082  0.02083660  0.41412676  1
  Na  Na14  1  0.70636986  0.67460050  0.42157268  1
  Na  Na15  1  0.99773860  0.99664694  0.50095167  1
  Na  Na16  1  0.00435073  0.00290606  0.00018520  1
  Na  Na17  1  0.65548779  0.30893480  0.83151984  1
  Na  Na18  1  0.67153105  0.32598217  0.33299793  1
  Na  Na19  1  0.33827433  0.66021233  0.16502863  1
  Na  Na20  1  0.34585007  0.67097188  0.66632902  1
  Mg  Mg21  1  0.00072012  0.00088182  0.34846248  1
  Mg  Mg22  1  0.00837385  0.00785273  0.15109232  1
  Mg  Mg23  1  0.65996296  0.33050761  0.18282860  1
  Mg  Mg24  1  0.66086671  0.32930134  0.98439182  1
  Mg  Mg25  1  0.66942023  0.33772867  0.48405414  1
  Mg  Mg26  1  0.32696193  0.67132064  0.31760667  1
  Zn  Zn27  1  0.00455050  0.01168660  0.84729384  1
  Zn  Zn28  1  0.98855918  0.99430173  0.65266653  1
  Zn  Zn29  1  0.65533074  0.32516356  0.68026968  1
  Zn  Zn30  1  0.33225117  0.65790910  0.01282947  1
  Zn  Zn31  1  0.34333195  0.66876792  0.51252487  1
  Zn  Zn32  1  0.33486604  0.68426731  0.81999938  1
  P  P33  1  0.29683481  0.99941252  0.25014002  1
  P  P34  1  0.00000843  0.29806442  0.24954501  1
  P  P35  1  0.69887984  0.99977213  0.74971604  1
  P  P36  1  0.66456273  0.62804028  0.58394394  1
  P  P37  1  0.37077187  0.33680180  0.08327622  1
  P  P38  1  0.03448304  0.36964951  0.91599354  1
  P  P39  1  0.33367791  0.96391803  0.91884162  1
  P  P40  1  0.63327648  0.96567184  0.41630414  1
  P  P41  1  0.03542157  0.66584153  0.41747671  1
  S  S42  1  0.70708141  0.70647656  0.25033384  1
  S  S43  1  0.29697307  0.29513433  0.74989409  1
  S  S44  1  0.00195965  0.70399266  0.74998337  1
  S  S45  1  0.96497068  0.33430823  0.58348784  1
  S  S46  1  0.36897351  0.03890182  0.58225966  1
  S  S47  1  0.95710735  0.62899927  0.08387399  1
  S  S48  1  0.66837081  0.03669302  0.08405870  1
  S  S49  1  0.63011888  0.66490130  0.91594243  1
  S  S50  1  0.33319162  0.37143174  0.41552497  1
  O  O51  1  0.21365139  0.02707414  0.30699638  1
  O  O52  1  0.80865639  0.78118083  0.30642379  1
  O  O53  1  0.96810767  0.18449720  0.30689240  1
  O  O54  1  0.22434534  0.19797324  0.80758402  1
  O  O55  1  0.97992720  0.78597175  0.80490392  1
  O  O56  1  0.81258338  0.02989007  0.80755112  1
  O  O57  1  0.78106798  0.97073758  0.69221531  1
  O  O58  1  0.18705141  0.20813199  0.69676597  1
  O  O59  1  0.02371124  0.80634037  0.69384446  1
  O  O60  1  0.79021056  0.81800367  0.19682417  1
  O  O61  1  0.02503225  0.21359003  0.19252770  1
  O  O62  1  0.18282819  0.96813594  0.19307968  1
  O  O63  1  0.88631511  0.35909856  0.63928755  1
  O  O64  1  0.47829620  0.11770659  0.63628163  1
  O  O65  1  0.64769939  0.52620938  0.64355950  1
  O  O66  1  0.87352997  0.52153456  0.13846618  1
  O  O67  1  0.64559436  0.12018981  0.13849096  1
  O  O68  1  0.47445174  0.35445622  0.14161823  1
  O  O69  1  0.45545989  0.31121661  0.02641943  1
  O  O70  1  0.85994299  0.54675360  0.02772960  1
  O  O71  1  0.69571096  0.14475266  0.02859860  1
  O  O72  1  0.44962634  0.13789149  0.52597770  1
  O  O73  1  0.68896719  0.54211178  0.52753382  1
  O  O74  1  0.85507164  0.30845035  0.52916199  1
  O  O75  1  0.55063364  0.69721308  0.96913957  1
  O  O76  1  0.14655857  0.44830533  0.97356978  1
  O  O77  1  0.30195045  0.85303545  0.97780596  1
  O  O78  1  0.55683392  0.85451516  0.47479020  1
  O  O79  1  0.30187607  0.44855765  0.46967536  1
  O  O80  1  0.14720638  0.69519257  0.47567392  1
  O  O81  1  0.11737929  0.63440748  0.36129712  1
  O  O82  1  0.52022901  0.87934086  0.35991848  1
  O  O83  1  0.36144608  0.47791588  0.36034731  1
  O  O84  1  0.11748670  0.48019022  0.85810805  1
  O  O85  1  0.37242342  0.88506309  0.86418110  1
  O  O86  1  0.52599464  0.63367502  0.85992242  1
  O  O87  1  0.01753246  0.82953826  0.41130696  1
  O  O88  1  0.81642806  0.98874571  0.41119658  1
  O  O89  1  0.17911973  0.19624368  0.41022621  1
  O  O90  1  0.01216281  0.18560554  0.91256973  1
  O  O91  1  0.16772556  0.97851994  0.91154106  1
  O  O92  1  0.80580593  0.81899669  0.91084309  1
  O  O93  1  0.98064180  0.17712840  0.58801803  1
  O  O94  1  0.19491984  0.01935796  0.58748467  1
  O  O95  1  0.83276011  0.81146958  0.58618799  1
  O  O96  1  0.97745280  0.80360426  0.08788831  1
  O  O97  1  0.82363071  0.01914251  0.08980606  1
  O  O98  1  0.18730140  0.17020074  0.08625216  1
  O  O99  1  0.68902792  0.16789708  0.74359398  1
  O  O100  1  0.47399871  0.32160127  0.74577368  1
  O  O101  1  0.84228736  0.53019312  0.74677218  1
  O  O102  1  0.68987847  0.53270736  0.24454770  1
  O  O103  1  0.84020863  0.32307201  0.24361551  1
  O  O104  1  0.47866975  0.16300418  0.24484739  1
  O  O105  1  0.65023882  0.51048828  0.92394825  1
  O  O106  1  0.85406917  0.35341447  0.92205319  1
  O  O107  1  0.49297139  0.14777851  0.92378575  1
  O  O108  1  0.64724427  0.14567058  0.42199688  1
  O  O109  1  0.48802027  0.35190419  0.42241231  1
  O  O110  1  0.85250828  0.50481811  0.42264680  1
  O  O111  1  0.34417879  0.49593642  0.07924999  1
  O  O112  1  0.13307449  0.64808837  0.08213215  1
  O  O113  1  0.50935032  0.86674072  0.07900817  1
  O  O114  1  0.34813006  0.86185324  0.57979578  1
  O  O115  1  0.50675598  0.65564025  0.58013458  1
  O  O116  1  0.13574576  0.49235090  0.57759067  1
  O  O117  1  0.32037582  0.83904805  0.25498164  1
  O  O118  1  0.53131313  0.68423731  0.25512178  1
  O  O119  1  0.16589296  0.47764138  0.25506780  1
  O  O120  1  0.31101445  0.46889932  0.75271466  1
  O  O121  1  0.15175130  0.67666322  0.75352038  1
  O  O122  1  0.52265915  0.83197262  0.75520433  1
