# generated using pymatgen
data_Na14Hf4Si11Sn4SO48
_symmetry_space_group_name_H-M   'P 1'
_cell_length_a   18.25166333
_cell_length_b   9.11955136
_cell_length_c   22.74013254
_cell_angle_alpha   90.01430567
_cell_angle_beta   90.10172624
_cell_angle_gamma   120.00871242
_symmetry_Int_Tables_number   1
_chemical_formula_structural   Na14Hf4Si11Sn4SO48
_chemical_formula_sum   'Na42 Hf12 Si33 Sn12 S3 O144'
_cell_volume   3277.63322030
_cell_formula_units_Z   3
loop_
 _symmetry_equiv_pos_site_id
 _symmetry_equiv_pos_as_xyz
  1  'x, y, z'
loop_
 _atom_site_type_symbol
 _atom_site_label
 _atom_site_symmetry_multiplicity
 _atom_site_fract_x
 _atom_site_fract_y
 _atom_site_fract_z
 _atom_site_occupancy
  Na  Na0  1  0.32105170  0.00016388  0.25003314  1
  Na  Na1  1  0.82090136  0.99991508  0.25004777  1
  Na  Na2  1  0.32026703  0.64179230  0.75037272  1
  Na  Na3  1  0.81720595  0.63304708  0.74955604  1
  Na  Na4  1  0.50029512  0.36466150  0.75021838  1
  Na  Na5  1  0.68433080  0.00190447  0.74952919  1
  Na  Na6  1  0.15085999  0.33506958  0.58084800  1
  Na  Na7  1  0.65038569  0.33277796  0.58415432  1
  Na  Na8  1  0.01653018  0.69728791  0.58365537  1
  Na  Na9  1  0.51686392  0.70087512  0.58338715  1
  Na  Na10  1  0.33313076  0.96527779  0.58345529  1
  Na  Na11  1  0.83261484  0.96833510  0.58364767  1
  Na  Na12  1  0.15158928  0.96894379  0.08162467  1
  Na  Na13  1  0.65151169  0.96877139  0.08161173  1
  Na  Na14  1  0.33280925  0.69851738  0.08372029  1
  Na  Na15  1  0.83243844  0.69772913  0.08395181  1
  Na  Na16  1  0.01656251  0.33457157  0.08386313  1
  Na  Na17  1  0.51639358  0.33404608  0.08380155  1
  Na  Na18  1  0.48315366  0.66658720  0.91658694  1
  Na  Na19  1  0.98356642  0.66442856  0.91617507  1
  Na  Na20  1  0.35006346  0.03308176  0.91653576  1
  Na  Na21  1  0.84891712  0.03325200  0.91626116  1
  Na  Na22  1  0.16776219  0.30421926  0.91912078  1
  Na  Na23  1  0.66613487  0.29942917  0.91609313  1
  Na  Na24  1  0.48316713  0.30183918  0.41638766  1
  Na  Na25  1  0.98351470  0.30181894  0.41624651  1
  Na  Na26  1  0.16717410  0.03157400  0.41871612  1
  Na  Na27  1  0.66711988  0.03087230  0.41849765  1
  Na  Na28  1  0.34941486  0.66555067  0.41636922  1
  Na  Na29  1  0.84927846  0.66520071  0.41614230  1
  Na  Na30  1  0.99989405  0.99922154  0.49989881  1
  Na  Na31  1  0.49970334  0.99947273  0.50068822  1
  Na  Na32  1  0.00003552  0.00095375  0.00024105  1
  Na  Na33  1  0.49978558  0.00013771  0.99922638  1
  Na  Na34  1  0.33376948  0.32802649  0.83416305  1
  Na  Na35  1  0.83692873  0.33427259  0.83147402  1
  Na  Na36  1  0.33779773  0.34624699  0.33255833  1
  Na  Na37  1  0.83773779  0.34626964  0.33232115  1
  Na  Na38  1  0.16466277  0.65375945  0.16773201  1
  Na  Na39  1  0.66464588  0.65362055  0.16782381  1
  Na  Na40  1  0.16420200  0.67528617  0.66723270  1
  Na  Na41  1  0.66688726  0.66671365  0.66667649  1
  Hf  Hf42  1  0.83767598  0.33601517  0.68717736  1
  Hf  Hf43  1  0.33938620  0.34794451  0.18599949  1
  Hf  Hf44  1  0.83930851  0.34805997  0.18579526  1
  Hf  Hf45  1  0.83285684  0.33307353  0.98226510  1
  Hf  Hf46  1  0.83375963  0.33241038  0.48223150  1
  Hf  Hf47  1  0.16684784  0.66554457  0.01776338  1
  Hf  Hf48  1  0.66660985  0.66637367  0.01809639  1
  Hf  Hf49  1  0.66618994  0.66674284  0.51770182  1
  Hf  Hf50  1  0.16562355  0.65212515  0.31438162  1
  Hf  Hf51  1  0.66493159  0.65216629  0.31436760  1
  Hf  Hf52  1  0.16520407  0.67833414  0.81509974  1
  Hf  Hf53  1  0.66670538  0.66671788  0.81411195  1
  Si  Si54  1  0.35363854  0.70629947  0.25029229  1
  Si  Si55  1  0.85344599  0.70615995  0.25034359  1
  Si  Si56  1  0.00060082  0.29384037  0.24972355  1
  Si  Si57  1  0.50059765  0.29368949  0.24966737  1
  Si  Si58  1  0.64600894  0.29085552  0.74995284  1
  Si  Si59  1  0.00219662  0.70992036  0.74965345  1
  Si  Si60  1  0.49793355  0.70526775  0.74919508  1
  Si  Si61  1  0.35195385  0.99959841  0.74917155  1
  Si  Si62  1  0.85547547  0.00329826  0.75025090  1
  Si  Si63  1  0.48021208  0.33229177  0.58296761  1
  Si  Si64  1  0.98147080  0.33417971  0.58347554  1
  Si  Si65  1  0.18706889  0.04173444  0.58333030  1
  Si  Si66  1  0.68642791  0.04109773  0.58454853  1
  Si  Si67  1  0.33268728  0.62401396  0.58424381  1
  Si  Si68  1  0.83263289  0.62448236  0.58393968  1
  Si  Si69  1  0.48075813  0.62917362  0.08297696  1
  Si  Si70  1  0.98130869  0.63013528  0.08313568  1
  Si  Si71  1  0.33222356  0.04274685  0.08441927  1
  Si  Si72  1  0.83242395  0.04154247  0.08493612  1
  Si  Si73  1  0.18716896  0.33104842  0.08422961  1
  Si  Si74  1  0.68653540  0.33081738  0.08456947  1
  Si  Si75  1  0.31281429  0.66558336  0.91511466  1
  Si  Si76  1  0.81302251  0.66570438  0.91661903  1
  Si  Si77  1  0.02071480  0.37287298  0.91551065  1
  Si  Si78  1  0.51903251  0.37188156  0.91643449  1
  Si  Si79  1  0.16700860  0.96385629  0.91765243  1
  Si  Si80  1  0.66575991  0.96025587  0.91600016  1
  Si  Si81  1  0.31093798  0.95839365  0.41618038  1
  Si  Si82  1  0.81167271  0.95834754  0.41512605  1
  Si  Si83  1  0.16691003  0.37106962  0.41774450  1
  Si  Si84  1  0.66613447  0.36984495  0.41690401  1
  Si  Si85  1  0.02164173  0.66873833  0.41573646  1
  Si  Si86  1  0.52026337  0.66754234  0.41584703  1
  Sn  Sn87  1  0.99510417  0.99696924  0.35253803  1
  Sn  Sn88  1  0.49455145  0.99678054  0.35265004  1
  Sn  Sn89  1  0.99571926  0.99326510  0.85268585  1
  Sn  Sn90  1  0.49866175  0.99921447  0.85087512  1
  Sn  Sn91  1  0.99694754  0.99038551  0.64711975  1
  Sn  Sn92  1  0.49949596  0.99984895  0.64852206  1
  Sn  Sn93  1  0.99656735  0.00322753  0.14764329  1
  Sn  Sn94  1  0.49631307  0.00294167  0.14747447  1
  Sn  Sn95  1  0.33595626  0.32965131  0.68287524  1
  Sn  Sn96  1  0.33331469  0.33488370  0.98267827  1
  Sn  Sn97  1  0.33335517  0.33307157  0.48203051  1
  Sn  Sn98  1  0.16631545  0.66675153  0.51768082  1
  S  S99  1  0.14611993  0.00000214  0.25005064  1
  S  S100  1  0.64601104  0.00005470  0.25002007  1
  S  S101  1  0.14622699  0.29293108  0.74987091  1
  O  O102  1  0.10735748  0.02709956  0.30353106  1
  O  O103  1  0.60727959  0.02702166  0.30352659  1
  O  O104  1  0.41210832  0.78847881  0.30943200  1
  O  O105  1  0.91223696  0.78860902  0.30941586  1
  O  O106  1  0.48173473  0.17287173  0.30837447  1
  O  O107  1  0.98198470  0.17300587  0.30845073  1
  O  O108  1  0.10805862  0.18796264  0.80324983  1
  O  O109  1  0.60549171  0.17101463  0.80848047  1
  O  O110  1  0.47825418  0.78440338  0.80791238  1
  O  O111  1  0.98251285  0.79177070  0.80848737  1
  O  O112  1  0.41277592  0.04258242  0.80788295  1
  O  O113  1  0.91298752  0.03584483  0.80942002  1
  O  O114  1  0.39308874  0.96173128  0.69081566  1
  O  O115  1  0.89571596  0.96267973  0.69174495  1
  O  O116  1  0.09482841  0.21505678  0.69624973  1
  O  O117  1  0.58542504  0.21244746  0.69143755  1
  O  O118  1  0.01903612  0.82678037  0.69059868  1
  O  O119  1  0.51888301  0.82529132  0.69102152  1
  O  O120  1  0.39518150  0.82668802  0.19153549  1
  O  O121  1  0.89528323  0.82681722  0.19158447  1
  O  O122  1  0.01813129  0.21189800  0.19063078  1
  O  O123  1  0.51793849  0.21145143  0.19060206  1
  O  O124  1  0.09374239  0.97277221  0.19649566  1
  O  O125  1  0.59368871  0.97288149  0.19646232  1
  O  O126  1  0.44269711  0.37678055  0.64159042  1
  O  O127  1  0.93650473  0.37033459  0.63827693  1
  O  O128  1  0.24904247  0.12504054  0.64010870  1
  O  O129  1  0.74718634  0.12754476  0.64129853  1
  O  O130  1  0.31182390  0.50260323  0.64287323  1
  O  O131  1  0.81610727  0.50625809  0.64117835  1
  O  O132  1  0.43640541  0.50230889  0.13801689  1
  O  O133  1  0.93675178  0.50355863  0.13835884  1
  O  O134  1  0.31474314  0.12684852  0.14178159  1
  O  O135  1  0.81512316  0.12633074  0.14223797  1
  O  O136  1  0.25040078  0.36589585  0.13885579  1
  O  O137  1  0.74982603  0.36520803  0.13929498  1
  O  O138  1  0.22435649  0.29015217  0.02405717  1
  O  O139  1  0.72758013  0.29572377  0.02560194  1
  O  O140  1  0.42054456  0.55294664  0.02425079  1
  O  O141  1  0.92036596  0.54730318  0.02544026  1
  O  O142  1  0.35311898  0.16126407  0.02514739  1
  O  O143  1  0.85053144  0.16125090  0.02673974  1
  O  O144  1  0.22497458  0.15972167  0.52433194  1
  O  O145  1  0.72902288  0.16014404  0.52613589  1
  O  O146  1  0.35312877  0.54516855  0.52578430  1
  O  O147  1  0.85065001  0.54054685  0.52587906  1
  O  O148  1  0.41912013  0.29127277  0.52509397  1
  O  O149  1  0.92135966  0.29446003  0.52513946  1
  O  O150  1  0.27051319  0.70126264  0.97322527  1
  O  O151  1  0.77051141  0.70177038  0.97403856  1
  O  O152  1  0.07955989  0.45510949  0.97450528  1
  O  O153  1  0.57944732  0.45775962  0.97407767  1
  O  O154  1  0.14715944  0.84134187  0.97496607  1
  O  O155  1  0.64891553  0.83982460  0.97380600  1
  O  O156  1  0.27283091  0.83924840  0.47525212  1
  O  O157  1  0.76976449  0.83839400  0.47320131  1
  O  O158  1  0.14495210  0.44751102  0.47627774  1
  O  O159  1  0.64680545  0.45295210  0.47447871  1
  O  O160  1  0.07945596  0.70970251  0.47594757  1
  O  O161  1  0.57888618  0.70337055  0.47478723  1
  O  O162  1  0.06767449  0.63415446  0.36124247  1
  O  O163  1  0.56628470  0.63315650  0.36111849  1
  O  O164  1  0.25150030  0.87428481  0.35860718  1
  O  O165  1  0.75187166  0.87364297  0.35777914  1
  O  O166  1  0.18572492  0.49746720  0.36245431  1
  O  O167  1  0.68480242  0.49648444  0.36166252  1
  O  O168  1  0.06688466  0.49928765  0.86083689  1
  O  O169  1  0.56243074  0.49315353  0.85921695  1
  O  O170  1  0.18539763  0.87484567  0.86211115  1
  O  O171  1  0.68339447  0.87374077  0.85885670  1
  O  O172  1  0.25213360  0.62918209  0.85790653  1
  O  O173  1  0.75339678  0.63292407  0.85906012  1
  O  O174  1  0.01408682  0.84170994  0.40982798  1
  O  O175  1  0.51340994  0.84119588  0.41005590  1
  O  O176  1  0.40583408  0.97723823  0.41315678  1
  O  O177  1  0.90656419  0.97663091  0.41305900  1
  O  O178  1  0.08260001  0.18233409  0.40919427  1
  O  O179  1  0.58158988  0.18118898  0.40904353  1
  O  O180  1  0.01424013  0.18586898  0.90984005  1
  O  O181  1  0.51114766  0.18445374  0.91171512  1
  O  O182  1  0.08249792  0.98295697  0.90940009  1
  O  O183  1  0.57995949  0.97595158  0.91138198  1
  O  O184  1  0.40689554  0.83723899  0.91116261  1
  O  O185  1  0.90725951  0.83739579  0.91347066  1
  O  O186  1  0.48769071  0.16062060  0.58792202  1
  O  O187  1  0.99178011  0.16491405  0.59095386  1
  O  O188  1  0.09376258  0.02816916  0.58982115  1
  O  O189  1  0.59195933  0.02324026  0.58822798  1
  O  O190  1  0.41812169  0.81170147  0.58905073  1
  O  O191  1  0.91863436  0.81406945  0.58643932  1
  O  O192  1  0.49095476  0.81799419  0.09111759  1
  O  O193  1  0.99104102  0.81875975  0.09095476  1
  O  O194  1  0.41770656  0.02366312  0.08709947  1
  O  O195  1  0.91830696  0.02378052  0.08699472  1
  O  O196  1  0.09314016  0.15835689  0.09004191  1
  O  O197  1  0.59275029  0.15750125  0.09005097  1
  O  O198  1  0.34722346  0.17613206  0.74464248  1
  O  O199  1  0.84062487  0.16363165  0.74517822  1
  O  O200  1  0.23282282  0.31208132  0.74506646  1
  O  O201  1  0.73919098  0.30965857  0.74450336  1
  O  O202  1  0.41015949  0.51706355  0.74451386  1
  O  O203  1  0.91368193  0.52977262  0.74428025  1
  O  O204  1  0.34236210  0.51844893  0.24507398  1
  O  O205  1  0.84241668  0.51843706  0.24506825  1
  O  O206  1  0.41069315  0.29407485  0.24442752  1
  O  O207  1  0.91077995  0.29423525  0.24447332  1
  O  O208  1  0.23133299  0.15111477  0.24458313  1
  O  O209  1  0.73137083  0.15111617  0.24456620  1
  O  O210  1  0.32148205  0.49488314  0.92152332  1
  O  O211  1  0.82241620  0.49753687  0.92230419  1
  O  O212  1  0.42535154  0.35587603  0.92187129  1
  O  O213  1  0.92699725  0.35341604  0.92244985  1
  O  O214  1  0.25247244  0.15045637  0.92190877  1
  O  O215  1  0.75080338  0.14656732  0.92247872  1
  O  O216  1  0.32092736  0.14768734  0.42173413  1
  O  O217  1  0.82206331  0.14656889  0.42201755  1
  O  O218  1  0.25246658  0.35574309  0.42208012  1
  O  O219  1  0.75089874  0.35322614  0.42251782  1
  O  O220  1  0.42592438  0.49761189  0.42163872  1
  O  O221  1  0.92757952  0.50065336  0.42237107  1
  O  O222  1  0.17734218  0.49965340  0.07768840  1
  O  O223  1  0.67680177  0.49919423  0.07783572  1
  O  O224  1  0.07419410  0.64633499  0.07751427  1
  O  O225  1  0.57365740  0.64577627  0.07750091  1
  O  O226  1  0.24865218  0.85394678  0.07748127  1
  O  O227  1  0.74880431  0.85318832  0.07791367  1
  O  O228  1  0.17792046  0.85337941  0.57824203  1
  O  O229  1  0.67746334  0.85355964  0.57764588  1
  O  O230  1  0.24754550  0.64177636  0.57841837  1
  O  O231  1  0.74886597  0.64506314  0.57750069  1
  O  O232  1  0.07525927  0.50486489  0.57808164  1
  O  O233  1  0.57334837  0.50145565  0.57708280  1
  O  O234  1  0.15593009  0.84895805  0.25554188  1
  O  O235  1  0.65583537  0.84898350  0.25546429  1
  O  O236  1  0.26359474  0.70606170  0.25573420  1
  O  O237  1  0.76338278  0.70569403  0.25573826  1
  O  O238  1  0.08344477  0.48166543  0.25516378  1
  O  O239  1  0.58316822  0.48162846  0.25495652  1
  O  O240  1  0.15662271  0.46272969  0.75530502  1
  O  O241  1  0.65426330  0.47794016  0.75566457  1
  O  O242  1  0.08478563  0.68751533  0.75533238  1
  O  O243  1  0.58206208  0.68612117  0.75524277  1
  O  O244  1  0.26226760  0.82242552  0.75554140  1
  O  O245  1  0.76197137  0.83016311  0.75567565  1
