# generated using pymatgen
data_BeI2
_symmetry_space_group_name_H-M   'P 1'
_cell_length_a   12.68348577
_cell_length_b   12.68518933
_cell_length_c   13.89128114
_cell_angle_alpha   117.13160033
_cell_angle_beta   117.16097110
_cell_angle_gamma   90.02064058
_symmetry_Int_Tables_number   1
_chemical_formula_structural   BeI2
_chemical_formula_sum   'Be16 I32'
_cell_volume   1707.24926107
_cell_formula_units_Z   16
loop_
 _symmetry_equiv_pos_site_id
 _symmetry_equiv_pos_as_xyz
  1  'x, y, z'
loop_
 _atom_site_type_symbol
 _atom_site_label
 _atom_site_symmetry_multiplicity
 _atom_site_fract_x
 _atom_site_fract_y
 _atom_site_fract_z
 _atom_site_occupancy
  Be  Be0  1  0.60199317  0.56266861  0.37757081  1
  Be  Be1  1  0.31514951  0.60210403  0.87831660  1
  Be  Be2  1  0.56255590  0.77573285  0.87726684  1
  Be  Be3  1  0.72448005  0.93741411  0.62271212  1
  Be  Be4  1  0.89797691  0.18480640  0.62169880  1
  Be  Be5  1  0.18458483  0.72349060  0.12194918  1
  Be  Be6  1  0.93714326  0.89796204  0.12213377  1
  Be  Be7  1  0.77653501  0.31542796  0.37812373  1
  Be  Be8  1  0.39800683  0.43733039  0.62242919  1
  Be  Be9  1  0.68485049  0.39789597  0.12168340  1
  Be  Be10  1  0.43744310  0.22426715  0.12273316  1
  Be  Be11  1  0.27551995  0.06258689  0.37728788  1
  Be  Be12  1  0.10202309  0.81519360  0.37830120  1
  Be  Be13  1  0.81541517  0.27650940  0.87805082  1
  Be  Be14  1  0.06285774  0.10203796  0.87786623  1
  Be  Be15  1  0.22346499  0.68457204  0.62187627  1
  I  I16  1  0.65973923  0.59464295  0.24808188  1
  I  I17  1  0.15353365  0.65991765  0.74869333  1
  I  I18  1  0.59487189  0.58832204  0.74850918  1
  I  I19  1  0.91179996  0.90520882  0.75176651  1
  I  I20  1  0.83998760  0.34623922  0.75094958  1
  I  I21  1  0.34561246  0.91104831  0.25070808  1
  I  I22  1  0.90504810  0.84006231  0.25156871  1
  I  I23  1  0.58903728  0.15441557  0.24961601  1
  I  I24  1  0.34026077  0.40535705  0.75191812  1
  I  I25  1  0.84646635  0.34008235  0.25130667  1
  I  I26  1  0.40512811  0.41167796  0.25149082  1
  I  I27  1  0.08820004  0.09479118  0.24823349  1
  I  I28  1  0.16001240  0.65376078  0.24905042  1
  I  I29  1  0.65438754  0.08895169  0.74929192  1
  I  I30  1  0.09495190  0.15993769  0.74843129  1
  I  I31  1  0.41096272  0.84558443  0.75038399  1
  I  I32  1  0.75910908  0.50905284  0.51722751  1
  I  I33  1  0.50888622  0.75902045  0.01712457  1
  I  I34  1  0.74105833  0.99112731  0.48284277  1
  I  I35  1  0.99084792  0.74075257  0.98272633  1
  I  I36  1  0.24089092  0.49094716  0.48277249  1
  I  I37  1  0.49111378  0.24097955  0.98287543  1
  I  I38  1  0.25894167  0.00887269  0.51715723  1
  I  I39  1  0.00915208  0.25924743  0.01727367  1
  I  I40  1  0.56020077  0.75004799  0.49997506  1
  I  I41  1  0.25009627  0.55959749  0.00019800  1
  I  I42  1  0.74984050  0.94016511  0.99973720  1
  I  I43  1  0.94075335  0.25020699  0.50014760  1
  I  I44  1  0.43979923  0.24995201  0.50002494  1
  I  I45  1  0.74990373  0.44040251  0.99980200  1
  I  I46  1  0.25015950  0.05983489  0.00026280  1
  I  I47  1  0.05924665  0.74979301  0.49985240  1
