# generated using pymatgen
data_Be2Te7Cl6
_symmetry_space_group_name_H-M   'P 1'
_cell_length_a   5.46220766
_cell_length_b   10.02798778
_cell_length_c   16.74100031
_cell_angle_alpha   90.00000000
_cell_angle_beta   90.00000000
_cell_angle_gamma   90.00000000
_symmetry_Int_Tables_number   1
_chemical_formula_structural   Be2Te7Cl6
_chemical_formula_sum   'Be4 Te14 Cl12'
_cell_volume   916.98748283
_cell_formula_units_Z   2
loop_
 _symmetry_equiv_pos_site_id
 _symmetry_equiv_pos_as_xyz
  1  'x, y, z'
loop_
 _atom_site_type_symbol
 _atom_site_label
 _atom_site_symmetry_multiplicity
 _atom_site_fract_x
 _atom_site_fract_y
 _atom_site_fract_z
 _atom_site_occupancy
  Be  Be0  1  0.00000000  0.50000000  0.41914309  1
  Be  Be1  1  0.50000000  -0.00000000  0.08085691  1
  Be  Be2  1  0.00000000  0.50000000  0.58085691  1
  Be  Be3  1  0.50000000  -0.00000000  0.91914309  1
  Te  Te4  1  0.50000000  0.50000000  0.76128822  1
  Te  Te5  1  0.00000000  -0.00000000  0.73871178  1
  Te  Te6  1  0.50000000  0.50000000  0.23871178  1
  Te  Te7  1  0.00000000  -0.00000000  0.26128822  1
  Te  Te8  1  0.33037555  0.89254824  0.62893197  1
  Te  Te9  1  0.83037555  0.60745176  0.87106803  1
  Te  Te10  1  0.16962445  0.39254824  0.87106803  1
  Te  Te11  1  0.66962445  0.10745176  0.62893197  1
  Te  Te12  1  0.66962445  0.10745176  0.37106803  1
  Te  Te13  1  0.16962445  0.39254824  0.12893197  1
  Te  Te14  1  0.83037555  0.60745176  0.12893197  1
  Te  Te15  1  0.33037555  0.89254824  0.37106803  1
  Te  Te16  1  0.50000000  0.50000000  0.00000000  1
  Te  Te17  1  0.00000000  -0.00000000  0.50000000  1
  Cl  Cl18  1  0.35296210  0.85467732  0.14585011  1
  Cl  Cl19  1  0.85296210  0.64532268  0.35414989  1
  Cl  Cl20  1  0.14703790  0.35467732  0.35414989  1
  Cl  Cl21  1  0.64703790  0.14532268  0.14585011  1
  Cl  Cl22  1  0.64703790  0.14532268  0.85414989  1
  Cl  Cl23  1  0.14703790  0.35467732  0.64585011  1
  Cl  Cl24  1  0.85296210  0.64532268  0.64585011  1
  Cl  Cl25  1  0.35296210  0.85467732  0.85414989  1
  Cl  Cl26  1  0.26160861  0.08580197  0.00000000  1
  Cl  Cl27  1  0.76160861  0.41419803  0.50000000  1
  Cl  Cl28  1  0.73839139  0.91419803  0.00000000  1
  Cl  Cl29  1  0.23839139  0.58580197  0.50000000  1
