# generated using pymatgen
data_La2PbSe4
_symmetry_space_group_name_H-M   'P 1'
_cell_length_a   7.92854351
_cell_length_b   7.92838596
_cell_length_c   7.92832366
_cell_angle_alpha   109.41368754
_cell_angle_beta   109.41675365
_cell_angle_gamma   109.58338306
_symmetry_Int_Tables_number   1
_chemical_formula_structural   La2PbSe4
_chemical_formula_sum   'La4 Pb2 Se8'
_cell_volume   383.65059108
_cell_formula_units_Z   2
loop_
 _symmetry_equiv_pos_site_id
 _symmetry_equiv_pos_as_xyz
  1  'x, y, z'
loop_
 _atom_site_type_symbol
 _atom_site_label
 _atom_site_symmetry_multiplicity
 _atom_site_fract_x
 _atom_site_fract_y
 _atom_site_fract_z
 _atom_site_occupancy
  La  La0  1  0.99050068  0.37496133  0.11545913  1
  La  La1  1  0.25948437  0.87503926  0.88451293  1
  La  La2  1  0.62504423  0.74052533  0.61555499  1
  La  La3  1  0.12495855  0.00950003  0.38447172  1
  Pb  Pb4  1  0.74999552  0.24999624  0.50000198  1
  Pb  Pb5  1  0.49999796  0.49999611  -0.00000137  1
  Se  Se6  1  0.51610747  0.11748650  0.74846341  1
  Se  Se7  1  0.36758750  0.26640928  0.24889988  1
  Se  Se8  1  0.23240510  0.48398075  0.60140169  1
  Se  Se9  1  0.88128441  0.63237124  0.89880840  1
  Se  Se10  1  0.36900419  0.76759605  0.25157580  1
  Se  Se11  1  0.88254011  0.63096429  0.39858569  1
  Se  Se12  1  0.73353875  0.98245809  0.10117374  1
  Se  Se13  1  0.01755016  0.11871551  0.75109099  1
