# generated using pymatgen
data_KAl2Br7
_symmetry_space_group_name_H-M   'P 1'
_cell_length_a   10.93725167
_cell_length_b   10.72902365
_cell_length_c   14.53658925
_cell_angle_alpha   56.33898756
_cell_angle_beta   90.00000000
_cell_angle_gamma   90.00000000
_symmetry_Int_Tables_number   1
_chemical_formula_structural   KAl2Br7
_chemical_formula_sum   'K4 Al8 Br28'
_cell_volume   1419.80024847
_cell_formula_units_Z   4
loop_
 _symmetry_equiv_pos_site_id
 _symmetry_equiv_pos_as_xyz
  1  'x, y, z'
loop_
 _atom_site_type_symbol
 _atom_site_label
 _atom_site_symmetry_multiplicity
 _atom_site_fract_x
 _atom_site_fract_y
 _atom_site_fract_z
 _atom_site_occupancy
  K  K0  1  0.38389553  0.88939874  0.38003455  1
  K  K1  1  0.88389553  0.11060126  0.11996545  1
  K  K2  1  0.61610447  0.11060126  0.61996545  1
  K  K3  1  0.11610447  0.88939874  0.88003455  1
  Al  Al4  1  0.28713402  0.60229389  0.79659789  1
  Al  Al5  1  0.78713402  0.39770611  0.70340211  1
  Al  Al6  1  0.71286598  0.39770611  0.20340211  1
  Al  Al7  1  0.21286598  0.60229389  0.29659789  1
  Al  Al8  1  0.21760814  0.17155720  0.54673401  1
  Al  Al9  1  0.71760814  0.82844280  0.95326599  1
  Al  Al10  1  0.78239186  0.82844280  0.45326599  1
  Al  Al11  1  0.28239186  0.17155720  0.04673401  1
  Br  Br12  1  0.41134059  0.37921387  0.91584353  1
  Br  Br13  1  0.91134059  0.62078613  0.58415647  1
  Br  Br14  1  0.58865941  0.62078613  0.08415647  1
  Br  Br15  1  0.08865941  0.37921387  0.41584353  1
  Br  Br16  1  0.12691196  0.15383497  0.94847547  1
  Br  Br17  1  0.62691196  0.84616503  0.55152453  1
  Br  Br18  1  0.87308804  0.84616503  0.05152453  1
  Br  Br19  1  0.37308804  0.15383497  0.44847547  1
  Br  Br20  1  0.20993422  0.20764430  0.17732338  1
  Br  Br21  1  0.70993422  0.79235570  0.32267662  1
  Br  Br22  1  0.79006578  0.79235570  0.82267662  1
  Br  Br23  1  0.29006578  0.20764430  0.67732338  1
  Br  Br24  1  0.41668323  0.97643028  0.12117637  1
  Br  Br25  1  0.91668323  0.02356972  0.37882363  1
  Br  Br26  1  0.58331677  0.02356972  0.87882363  1
  Br  Br27  1  0.08331677  0.97643028  0.62117637  1
  Br  Br28  1  0.22514625  0.62126622  0.13284856  1
  Br  Br29  1  0.72514625  0.37873378  0.36715144  1
  Br  Br30  1  0.77485375  0.37873378  0.86715144  1
  Br  Br31  1  0.27485375  0.62126622  0.63284856  1
  Br  Br32  1  0.10322982  0.78735362  0.29266083  1
  Br  Br33  1  0.60322982  0.21264638  0.20733917  1
  Br  Br34  1  0.89677018  0.21264638  0.70733917  1
  Br  Br35  1  0.39677018  0.78735362  0.79266083  1
  Br  Br36  1  0.39624439  0.56552354  0.38200891  1
  Br  Br37  1  0.89624439  0.43447646  0.11799109  1
  Br  Br38  1  0.60375561  0.43447646  0.61799109  1
  Br  Br39  1  0.10375561  0.56552354  0.88200891  1
