# generated using pymatgen
data_Na2Al2Sb3
_symmetry_space_group_name_H-M   'P 1'
_cell_length_a   7.26372344
_cell_length_b   14.14555230
_cell_length_c   15.40943097
_cell_angle_alpha   89.69004237
_cell_angle_beta   90.00000000
_cell_angle_gamma   90.00000000
_symmetry_Int_Tables_number   1
_chemical_formula_structural   Na2Al2Sb3
_chemical_formula_sum   'Na16 Al16 Sb24'
_cell_volume   1583.28630663
_cell_formula_units_Z   8
loop_
 _symmetry_equiv_pos_site_id
 _symmetry_equiv_pos_as_xyz
  1  'x, y, z'
loop_
 _atom_site_type_symbol
 _atom_site_label
 _atom_site_symmetry_multiplicity
 _atom_site_fract_x
 _atom_site_fract_y
 _atom_site_fract_z
 _atom_site_occupancy
  Na  Na0  1  0.93380414  0.56059438  0.90105146  1
  Na  Na1  1  0.56619586  0.56059438  0.40105146  1
  Na  Na2  1  0.06619586  0.43940562  0.09894854  1
  Na  Na3  1  0.43380414  0.43940562  0.59894854  1
  Na  Na4  1  0.95903517  0.08044463  0.61271260  1
  Na  Na5  1  0.45903517  0.91955537  0.88728740  1
  Na  Na6  1  0.04096483  0.91955537  0.38728740  1
  Na  Na7  1  0.54096483  0.08044463  0.11271260  1
  Na  Na8  1  0.93284820  0.35194494  0.52024914  1
  Na  Na9  1  0.43284820  0.64805506  0.97975086  1
  Na  Na10  1  0.06715180  0.64805506  0.47975086  1
  Na  Na11  1  0.56715180  0.35194494  0.02024914  1
  Na  Na12  1  0.54696265  0.86433644  0.48853806  1
  Na  Na13  1  0.04696265  0.13566356  0.01146194  1
  Na  Na14  1  0.45303735  0.13566356  0.51146194  1
  Na  Na15  1  0.95303735  0.86433644  0.98853806  1
  Al  Al16  1  0.28895794  0.31261435  0.83848229  1
  Al  Al17  1  0.22933123  0.59197639  0.23838710  1
  Al  Al18  1  0.27066877  0.59197639  0.73838710  1
  Al  Al19  1  0.77066877  0.40802361  0.76161290  1
  Al  Al20  1  0.73489224  0.18876536  0.33133853  1
  Al  Al21  1  0.23489224  0.81123464  0.16866147  1
  Al  Al22  1  0.26510776  0.81123464  0.66866147  1
  Al  Al23  1  0.76510776  0.18876536  0.83133853  1
  Al  Al24  1  0.70854768  0.90576351  0.22887433  1
  Al  Al25  1  0.20854768  0.09423649  0.27112567  1
  Al  Al26  1  0.29145232  0.09423649  0.77112567  1
  Al  Al27  1  0.79145232  0.90576351  0.72887433  1
  Al  Al28  1  0.78895794  0.68738565  0.66151771  1
  Al  Al29  1  0.21104206  0.31261435  0.33848229  1
  Al  Al30  1  0.71104206  0.68738565  0.16151771  1
  Al  Al31  1  0.72933123  0.40802361  0.26161290  1
  Sb  Sb32  1  0.45326501  0.15758440  0.91800178  1
  Sb  Sb33  1  0.46834758  0.97063634  0.66856820  1
  Sb  Sb34  1  0.03165242  0.97063634  0.16856820  1
  Sb  Sb35  1  0.53165242  0.02936366  0.33143180  1
  Sb  Sb36  1  0.96834758  0.02936366  0.83143180  1
  Sb  Sb37  1  0.95326501  0.84241560  0.58199822  1
  Sb  Sb38  1  0.54673499  0.84241560  0.08199822  1
  Sb  Sb39  1  0.04673499  0.15758440  0.41800178  1
  Sb  Sb40  1  0.95194252  0.33775773  0.90346907  1
  Sb  Sb41  1  0.45194252  0.66224227  0.59653093  1
  Sb  Sb42  1  0.04805748  0.66224227  0.09653093  1
  Sb  Sb43  1  0.54805748  0.33775773  0.40346907  1
  Sb  Sb44  1  0.82521361  0.25042035  0.16895440  1
  Sb  Sb45  1  0.32521361  0.74957965  0.33104560  1
  Sb  Sb46  1  0.17478639  0.74957965  0.83104560  1
  Sb  Sb47  1  0.67478639  0.25042035  0.66895440  1
  Sb  Sb48  1  0.47377279  0.47848856  0.84288606  1
  Sb  Sb49  1  0.97377279  0.52151144  0.65711394  1
  Sb  Sb50  1  0.52622721  0.52151144  0.15711394  1
  Sb  Sb51  1  0.02622721  0.47848856  0.34288606  1
  Sb  Sb52  1  0.22480008  0.25316415  0.17315887  1
  Sb  Sb53  1  0.72480008  0.74683585  0.32684113  1
  Sb  Sb54  1  0.77519992  0.74683585  0.82684113  1
  Sb  Sb55  1  0.27519992  0.25316415  0.67315887  1
