# generated using pymatgen
data_BrO2F
_symmetry_space_group_name_H-M   'P 1'
_cell_length_a   6.35965437
_cell_length_b   6.40293541
_cell_length_c   6.35965374
_cell_angle_alpha   48.38032989
_cell_angle_beta   47.80892231
_cell_angle_gamma   48.38033333
_symmetry_Int_Tables_number   1
_chemical_formula_structural   BrO2F
_chemical_formula_sum   'Br2 O4 F2'
_cell_volume   131.84778132
_cell_formula_units_Z   2
loop_
 _symmetry_equiv_pos_site_id
 _symmetry_equiv_pos_as_xyz
  1  'x, y, z'
loop_
 _atom_site_type_symbol
 _atom_site_label
 _atom_site_symmetry_multiplicity
 _atom_site_fract_x
 _atom_site_fract_y
 _atom_site_fract_z
 _atom_site_occupancy
  Br  Br0  1  0.27772201  0.22418417  0.24341828  1
  Br  Br1  1  0.74341828  0.72418417  0.77772201  1
  O  O2  1  0.07935907  0.50952538  0.78315245  1
  O  O3  1  0.49066169  0.79174835  0.08770687  1
  O  O4  1  0.28315245  0.00952538  0.57935907  1
  O  O5  1  0.58770687  0.29174835  0.99066169  1
  F  F6  1  0.78440769  0.09574210  0.49597193  1
  F  F7  1  0.99597193  0.59574210  0.28440769  1
