# generated using pymatgen
data_Cs3AsO4
_symmetry_space_group_name_H-M   'P 1'
_cell_length_a   6.63498078
_cell_length_b   9.06966849
_cell_length_c   12.54934105
_cell_angle_alpha   90.00000000
_cell_angle_beta   90.00000000
_cell_angle_gamma   90.00000000
_symmetry_Int_Tables_number   1
_chemical_formula_structural   Cs3AsO4
_chemical_formula_sum   'Cs12 As4 O16'
_cell_volume   755.18265152
_cell_formula_units_Z   4
loop_
 _symmetry_equiv_pos_site_id
 _symmetry_equiv_pos_as_xyz
  1  'x, y, z'
loop_
 _atom_site_type_symbol
 _atom_site_label
 _atom_site_symmetry_multiplicity
 _atom_site_fract_x
 _atom_site_fract_y
 _atom_site_fract_z
 _atom_site_occupancy
  Cs  Cs0  1  0.18949026  0.99291721  0.35511776  1
  Cs  Cs1  1  0.85676866  0.75000000  0.92483159  1
  Cs  Cs2  1  0.64323134  0.75000000  0.42483159  1
  Cs  Cs3  1  0.14323134  0.25000000  0.07516841  1
  Cs  Cs4  1  0.35676866  0.25000000  0.57516841  1
  Cs  Cs5  1  0.68949026  0.00708279  0.14488224  1
  Cs  Cs6  1  0.81050974  0.49291721  0.64488224  1
  Cs  Cs7  1  0.31050974  0.50708279  0.85511776  1
  Cs  Cs8  1  0.81050974  0.00708279  0.64488224  1
  Cs  Cs9  1  0.31050974  0.99291721  0.85511776  1
  Cs  Cs10  1  0.18949026  0.50708279  0.35511776  1
  Cs  Cs11  1  0.68949026  0.49291721  0.14488224  1
  As  As12  1  0.27391754  0.75000000  0.11343726  1
  As  As13  1  0.72608246  0.25000000  0.88656274  1
  As  As14  1  0.77391754  0.25000000  0.38656274  1
  As  As15  1  0.22608246  0.75000000  0.61343726  1
  O  O16  1  0.62859966  0.40543081  0.39201623  1
  O  O17  1  0.12859966  0.59456919  0.10798377  1
  O  O18  1  0.37140034  0.90543081  0.60798377  1
  O  O19  1  0.87140034  0.09456919  0.89201623  1
  O  O20  1  0.37140034  0.59456919  0.60798377  1
  O  O21  1  0.87140034  0.40543081  0.89201623  1
  O  O22  1  0.62859966  0.09456919  0.39201623  1
  O  O23  1  0.12859966  0.90543081  0.10798377  1
  O  O24  1  0.05970052  0.75000000  0.50887814  1
  O  O25  1  0.41081520  0.75000000  0.22919092  1
  O  O26  1  0.94029948  0.25000000  0.49112186  1
  O  O27  1  0.44029948  0.75000000  0.00887814  1
  O  O28  1  0.08918480  0.75000000  0.72919092  1
  O  O29  1  0.58918480  0.25000000  0.77080908  1
  O  O30  1  0.91081520  0.25000000  0.27080908  1
  O  O31  1  0.55970052  0.25000000  0.99112186  1
