# generated using pymatgen
data_La(C2N3)3
_symmetry_space_group_name_H-M   'P 1'
_cell_length_a   7.07652060
_cell_length_b   7.07652060
_cell_length_c   10.35239505
_cell_angle_alpha   90.00000000
_cell_angle_beta   90.00000000
_cell_angle_gamma   111.41865997
_symmetry_Int_Tables_number   1
_chemical_formula_structural   La(C2N3)3
_chemical_formula_sum   'La2 C12 N18'
_cell_volume   482.61481308
_cell_formula_units_Z   2
loop_
 _symmetry_equiv_pos_site_id
 _symmetry_equiv_pos_as_xyz
  1  'x, y, z'
loop_
 _atom_site_type_symbol
 _atom_site_label
 _atom_site_symmetry_multiplicity
 _atom_site_fract_x
 _atom_site_fract_y
 _atom_site_fract_z
 _atom_site_occupancy
  La  La0  1  0.71541268  0.28458732  0.25000000  1
  La  La1  1  0.28458732  0.71541268  0.75000000  1
  C  C2  1  0.72553452  0.55678215  0.75000000  1
  C  C3  1  0.99685360  0.28701333  0.94911901  1
  C  C4  1  0.00314640  0.71298667  0.44911901  1
  C  C5  1  0.27446548  0.44321785  0.25000000  1
  C  C6  1  0.55678215  0.72553452  0.25000000  1
  C  C7  1  0.44321785  0.27446548  0.75000000  1
  C  C8  1  0.28701333  0.99685360  0.44911901  1
  C  C9  1  0.71298667  0.00314640  0.94911901  1
  C  C10  1  0.99685360  0.28701333  0.55088099  1
  C  C11  1  0.00314640  0.71298667  0.05088099  1
  C  C12  1  0.71298667  0.00314640  0.55088099  1
  C  C13  1  0.28701333  0.99685360  0.05088099  1
  N  N14  1  0.13973432  0.41169701  0.90394879  1
  N  N15  1  0.86026568  0.58830299  0.40394879  1
  N  N16  1  0.52907522  0.47092478  0.75000000  1
  N  N17  1  0.47092478  0.52907522  0.25000000  1
  N  N18  1  0.90118525  0.64491118  0.75000000  1
  N  N19  1  0.09881475  0.35508882  0.25000000  1
  N  N20  1  0.64491118  0.90118525  0.25000000  1
  N  N21  1  0.35508882  0.09881475  0.75000000  1
  N  N22  1  0.15913307  0.84086693  0.50852966  1
  N  N23  1  0.84086693  0.15913307  0.00852966  1
  N  N24  1  0.84086693  0.15913307  0.49147034  1
  N  N25  1  0.15913307  0.84086693  0.99147034  1
  N  N26  1  0.41169701  0.13973432  0.40394879  1
  N  N27  1  0.58830299  0.86026568  0.90394879  1
  N  N28  1  0.13973432  0.41169701  0.59605121  1
  N  N29  1  0.86026568  0.58830299  0.09605121  1
  N  N30  1  0.58830299  0.86026568  0.59605121  1
  N  N31  1  0.41169701  0.13973432  0.09605121  1
