# generated using pymatgen
data_Mg2GeO4
_symmetry_space_group_name_H-M   'P 1'
_cell_length_a   4.91450632
_cell_length_b   6.02739284
_cell_length_c   10.28321016
_cell_angle_alpha   90.00000000
_cell_angle_beta   90.00000000
_cell_angle_gamma   90.00000000
_symmetry_Int_Tables_number   1
_chemical_formula_structural   Mg2GeO4
_chemical_formula_sum   'Mg8 Ge4 O16'
_cell_volume   304.60575718
_cell_formula_units_Z   4
loop_
 _symmetry_equiv_pos_site_id
 _symmetry_equiv_pos_as_xyz
  1  'x, y, z'
loop_
 _atom_site_type_symbol
 _atom_site_label
 _atom_site_symmetry_multiplicity
 _atom_site_fract_x
 _atom_site_fract_y
 _atom_site_fract_z
 _atom_site_occupancy
  Mg  Mg0  1  0.00000000  0.00000000  -0.00000000  1
  Mg  Mg1  1  0.50000000  0.00000000  0.50000000  1
  Mg  Mg2  1  0.00000000  0.50000000  -0.00000000  1
  Mg  Mg3  1  0.50000000  0.50000000  0.50000000  1
  Mg  Mg4  1  0.49187275  0.75000000  0.77637177  1
  Mg  Mg5  1  0.99187275  0.25000000  0.72362823  1
  Mg  Mg6  1  0.50812725  0.25000000  0.22362823  1
  Mg  Mg7  1  0.00812725  0.75000000  0.27637177  1
  Ge  Ge8  1  0.56430614  0.75000000  0.09501496  1
  Ge  Ge9  1  0.06430614  0.25000000  0.40498504  1
  Ge  Ge10  1  0.43569386  0.25000000  0.90498504  1
  Ge  Ge11  1  0.93569386  0.75000000  0.59501496  1
  O  O12  1  0.23450205  0.47938362  0.33515599  1
  O  O13  1  0.73450205  0.52061638  0.16484401  1
  O  O14  1  0.76549795  0.97938362  0.66484401  1
  O  O15  1  0.26549795  0.02061638  0.83515599  1
  O  O16  1  0.76549795  0.52061638  0.66484401  1
  O  O17  1  0.26549795  0.47938362  0.83515599  1
  O  O18  1  0.23450205  0.02061638  0.33515599  1
  O  O19  1  0.73450205  0.97938362  0.16484401  1
  O  O20  1  0.72929258  0.75000000  0.93987983  1
  O  O21  1  0.22929258  0.25000000  0.56012017  1
  O  O22  1  0.27070742  0.25000000  0.06012017  1
  O  O23  1  0.77070742  0.75000000  0.43987983  1
  O  O24  1  0.21112554  0.75000000  0.09185887  1
  O  O25  1  0.71112554  0.25000000  0.40814113  1
  O  O26  1  0.78887446  0.25000000  0.90814113  1
  O  O27  1  0.28887446  0.75000000  0.59185887  1
