# generated using pymatgen
data_Ba(GaTe2)2
_symmetry_space_group_name_H-M   'P 1'
_cell_length_a   6.77822089
_cell_length_b   6.98258691
_cell_length_c   6.98258691
_cell_angle_alpha   76.36877192
_cell_angle_beta   60.96413976
_cell_angle_gamma   60.96413976
_symmetry_Int_Tables_number   1
_chemical_formula_structural   Ba(GaTe2)2
_chemical_formula_sum   'Ba1 Ga2 Te4'
_cell_volume   252.63025971
_cell_formula_units_Z   1
loop_
 _symmetry_equiv_pos_site_id
 _symmetry_equiv_pos_as_xyz
  1  'x, y, z'
loop_
 _atom_site_type_symbol
 _atom_site_label
 _atom_site_symmetry_multiplicity
 _atom_site_fract_x
 _atom_site_fract_y
 _atom_site_fract_z
 _atom_site_occupancy
  Ba  Ba0  1  0.75000000  -0.00000536  0.00000536  1
  Ga  Ga1  1  0.25000000  0.49995943  0.50004057  1
  Ga  Ga2  1  0.75000000  0.50006824  0.49993176  1
  Te  Te3  1  0.16653044  0.49994960  0.16732783  1
  Te  Te4  1  0.33346956  0.83267217  0.50005040  1
  Te  Te5  1  0.66625378  0.16734489  0.49998996  1
  Te  Te6  1  0.83374622  0.50001004  0.83265511  1
