# generated using pymatgen
data_Cs2PdSe8
_symmetry_space_group_name_H-M   'P 1'
_cell_length_a   12.61615336
_cell_length_b   12.61609890
_cell_length_c   12.61600210
_cell_angle_alpha   105.79734105
_cell_angle_beta   105.79876075
_cell_angle_gamma   117.09796486
_symmetry_Int_Tables_number   1
_chemical_formula_structural   Cs2PdSe8
_chemical_formula_sum   'Cs8 Pd4 Se32'
_cell_volume   1524.98697950
_cell_formula_units_Z   4
loop_
 _symmetry_equiv_pos_site_id
 _symmetry_equiv_pos_as_xyz
  1  'x, y, z'
loop_
 _atom_site_type_symbol
 _atom_site_label
 _atom_site_symmetry_multiplicity
 _atom_site_fract_x
 _atom_site_fract_y
 _atom_site_fract_z
 _atom_site_occupancy
  Cs  Cs0  1  0.61564249  0.88435024  0.49999728  1
  Cs  Cs1  1  0.13435797  0.13435369  0.76870936  1
  Cs  Cs2  1  0.36564542  0.36564364  0.23128578  1
  Cs  Cs3  1  0.38435687  0.11564039  0.49999700  1
  Cs  Cs4  1  0.86564190  0.63435525  -0.00000295  1
  Cs  Cs5  1  0.88436352  0.38435725  0.26871455  1
  Cs  Cs6  1  0.11564070  0.61563638  0.73128229  1
  Cs  Cs7  1  0.63435710  0.86564221  -0.00000295  1
  Pd  Pd8  1  0.75002405  0.25002269  0.50004407  1
  Pd  Pd9  1  0.49998096  0.49997528  -0.00000504  1
  Pd  Pd10  1  0.24998260  0.74997400  0.49995759  1
  Pd  Pd11  1  0.00000097  0.00002237  -0.00002395  1
  Se  Se12  1  0.78926721  0.12733349  0.84747097  1
  Se  Se13  1  0.19180564  0.53927336  0.16190830  1
  Se  Se14  1  0.37736163  0.02986161  0.83808330  1
  Se  Se15  1  0.27985898  0.94181763  0.15252458  1
  Se  Se16  1  0.37267462  0.71076169  0.15253810  1
  Se  Se17  1  0.96073508  0.30821858  0.83809363  1
  Se  Se18  1  0.47014257  0.12267585  0.16194370  1
  Se  Se19  1  0.55819589  0.22012692  0.84746916  1
  Se  Se20  1  0.46074830  0.62265196  0.65249441  1
  Se  Se21  1  0.05816588  0.21070411  0.33807079  1
  Se  Se22  1  0.87265105  0.72014847  0.66192973  1
  Se  Se23  1  0.97010917  0.80820218  0.34744930  1
  Se  Se24  1  0.76986961  0.39919140  0.68717791  1
  Se  Se25  1  0.64921650  0.46200325  0.12934847  1
  Se  Se26  1  0.33268495  0.51990277  0.87067551  1
  Se  Se27  1  0.71196937  0.08262978  0.31276154  1
  Se  Se28  1  0.10080702  0.73013050  0.31281774  1
  Se  Se29  1  0.03800844  0.85079006  0.87065700  1
  Se  Se30  1  0.98011750  0.16732215  0.12933684  1
  Se  Se31  1  0.41734979  0.78800882  0.68722138  1
  Se  Se32  1  0.48011943  0.35078139  0.81279630  1
  Se  Se33  1  0.60078087  0.28800654  0.37064362  1
  Se  Se34  1  0.91732230  0.23012391  0.62931459  1
  Se  Se35  1  0.53801649  0.66736410  0.18721077  1
  Se  Se36  1  0.14922491  0.01987456  0.18724279  1
  Se  Se37  1  0.21200685  0.89921182  0.62937207  1
  Se  Se38  1  0.26985290  0.58266819  0.37068609  1
  Se  Se39  1  0.83268341  0.96200581  0.81281332  1
  Se  Se40  1  0.69179856  0.52987624  0.65253339  1
  Se  Se41  1  0.77986211  0.62732942  0.33807328  1
  Se  Se42  1  0.28927314  0.44178641  0.66190522  1
  Se  Se43  1  0.87732428  0.03924463  0.34747916  1
