# generated using pymatgen
data_GaCl3
_symmetry_space_group_name_H-M   'P 1'
_cell_length_a   6.91577005
_cell_length_b   7.05189772
_cell_length_c   6.98492471
_cell_angle_alpha   61.40454836
_cell_angle_beta   60.35125191
_cell_angle_gamma   60.69401951
_symmetry_Int_Tables_number   1
_chemical_formula_structural   GaCl3
_chemical_formula_sum   'Ga2 Cl6'
_cell_volume   245.26974899
_cell_formula_units_Z   2
loop_
 _symmetry_equiv_pos_site_id
 _symmetry_equiv_pos_as_xyz
  1  'x, y, z'
loop_
 _atom_site_type_symbol
 _atom_site_label
 _atom_site_symmetry_multiplicity
 _atom_site_fract_x
 _atom_site_fract_y
 _atom_site_fract_z
 _atom_site_occupancy
  Ga  Ga0  1  0.34218619  0.08732462  0.22787870  1
  Ga  Ga1  1  0.65781094  0.91267568  0.77212149  1
  Cl  Cl2  1  0.73596488  0.99992610  0.00043300  1
  Cl  Cl3  1  0.26402975  0.00008799  0.99955526  1
  Cl  Cl4  1  0.69593435  0.16779360  0.44142964  1
  Cl  Cl5  1  0.30408040  0.83219277  0.55856163  1
  Cl  Cl6  1  0.81469226  0.56020662  0.81025706  1
  Cl  Cl7  1  0.18530023  0.43979062  0.18976322  1
