# generated using pymatgen
data_AuSO4
_symmetry_space_group_name_H-M   'P 1'
_cell_length_a   8.32274898
_cell_length_b   8.58268324
_cell_length_c   10.08405165
_cell_angle_alpha   89.99990053
_cell_angle_beta   90.00156806
_cell_angle_gamma   89.99982857
_symmetry_Int_Tables_number   1
_chemical_formula_structural   AuSO4
_chemical_formula_sum   'Au8 S8 O32'
_cell_volume   720.31911864
_cell_formula_units_Z   8
loop_
 _symmetry_equiv_pos_site_id
 _symmetry_equiv_pos_as_xyz
  1  'x, y, z'
loop_
 _atom_site_type_symbol
 _atom_site_label
 _atom_site_symmetry_multiplicity
 _atom_site_fract_x
 _atom_site_fract_y
 _atom_site_fract_z
 _atom_site_occupancy
  Au  Au0  1  0.94803548  0.36402783  0.01421951  1
  Au  Au1  1  0.44802287  0.63595803  0.48577256  1
  Au  Au2  1  0.55196563  0.86402801  0.98578060  1
  Au  Au3  1  0.05197658  0.13595776  0.51422722  1
  Au  Au4  1  0.05196370  0.63597168  0.98577955  1
  Au  Au5  1  0.55197695  0.36404227  0.51422687  1
  Au  Au6  1  0.44803633  0.13597191  0.01422032  1
  Au  Au7  1  0.94802309  0.86404264  0.48577258  1
  S  S8  1  0.22760303  0.42241610  0.64315771  1
  S  S9  1  0.72757971  0.57757887  0.85686220  1
  S  S10  1  0.27239529  0.92241685  0.35684111  1
  S  S11  1  0.77241979  0.07757856  0.14313807  1
  S  S12  1  0.77239640  0.57758430  0.35684135  1
  S  S13  1  0.27241936  0.42242061  0.14313780  1
  S  S14  1  0.72760338  0.07758394  0.64315795  1
  S  S15  1  0.22758310  0.92242065  0.85686398  1
  O  O16  1  0.36544163  0.37120231  0.02520114  1
  O  O17  1  0.86541546  0.62881513  0.47478437  1
  O  O18  1  0.13456356  0.87120159  0.97480077  1
  O  O19  1  0.63458482  0.12881512  0.52521345  1
  O  O20  1  0.63455835  0.62879578  0.97479954  1
  O  O21  1  0.13458453  0.37118522  0.52521406  1
  O  O22  1  0.86543979  0.12879775  0.02520070  1
  O  O23  1  0.36541438  0.87118478  0.47478540  1
  O  O24  1  0.77264728  0.40920771  0.88229106  1
  O  O25  1  0.27265707  0.59078836  0.61770733  1
  O  O26  1  0.72735453  0.90920743  0.11770884  1
  O  O27  1  0.22734187  0.09078920  0.38229130  1
  O  O28  1  0.22735274  0.59079174  0.11770752  1
  O  O29  1  0.72734309  0.40921198  0.38229241  1
  O  O30  1  0.27264715  0.09079164  0.88229360  1
  O  O31  1  0.77265758  0.90921144  0.61770797  1
  O  O32  1  0.14447135  0.91087798  0.73425906  1
  O  O33  1  0.64450429  0.08911932  0.76574921  1
  O  O34  1  0.35553025  0.41087794  0.26574304  1
  O  O35  1  0.85549463  0.58911974  0.23424957  1
  O  O36  1  0.85553215  0.08912080  0.26574247  1
  O  O37  1  0.35549459  0.91088123  0.23424956  1
  O  O38  1  0.64446781  0.58912278  0.73425746  1
  O  O39  1  0.14450479  0.41088106  0.76574945  1
  O  O40  1  0.11927104  0.82585879  0.34868060  1
  O  O41  1  0.61930461  0.17415345  0.15129701  1
  O  O42  1  0.38072772  0.32585760  0.65131798  1
  O  O43  1  0.88069457  0.67415486  0.84870475  1
  O  O44  1  0.88072804  0.17414178  0.65131811  1
  O  O45  1  0.38069822  0.82584698  0.84870450  1
  O  O46  1  0.61927112  0.67414219  0.34868139  1
  O  O47  1  0.11930435  0.32584532  0.15129500  1
