# generated using pymatgen
data_Bi4O7
_symmetry_space_group_name_H-M   'P 1'
_cell_length_a   6.74566081
_cell_length_b   6.94510587
_cell_length_c   7.82213250
_cell_angle_alpha   72.80383904
_cell_angle_beta   88.99227134
_cell_angle_gamma   77.30089944
_symmetry_Int_Tables_number   1
_chemical_formula_structural   Bi4O7
_chemical_formula_sum   'Bi8 O14'
_cell_volume   341.07437329
_cell_formula_units_Z   2
loop_
 _symmetry_equiv_pos_site_id
 _symmetry_equiv_pos_as_xyz
  1  'x, y, z'
loop_
 _atom_site_type_symbol
 _atom_site_label
 _atom_site_symmetry_multiplicity
 _atom_site_fract_x
 _atom_site_fract_y
 _atom_site_fract_z
 _atom_site_occupancy
  Bi  Bi0  1  -0.00000000  0.00000000  0.50000000  1
  Bi  Bi1  1  0.52308315  0.99337649  0.74258870  1
  Bi  Bi2  1  0.47691685  0.00662351  0.25741130  1
  Bi  Bi3  1  -0.00000000  0.00000000  -0.00000000  1
  Bi  Bi4  1  0.73525113  0.51794316  0.11719793  1
  Bi  Bi5  1  0.26474887  0.48205684  0.88280207  1
  Bi  Bi6  1  0.27146118  0.51076367  0.37937186  1
  Bi  Bi7  1  0.72853882  0.48923633  0.62062814  1
  O  O8  1  0.52823709  0.62644685  0.81251814  1
  O  O9  1  0.47176291  0.37355315  0.18748186  1
  O  O10  1  0.70879146  0.95420416  0.05876179  1
  O  O11  1  0.29120854  0.04579584  0.94123821  1
  O  O12  1  0.71525219  0.92350958  0.47904446  1
  O  O13  1  0.28474781  0.07649042  0.52095554  1
  O  O14  1  0.47261537  0.34192183  0.63481319  1
  O  O15  1  0.52738463  0.65807817  0.36518681  1
  O  O16  1  0.09352251  0.67775578  0.03553151  1
  O  O17  1  0.90647749  0.32224422  0.96446849  1
  O  O18  1  0.89170132  0.32043882  0.37125445  1
  O  O19  1  0.10829868  0.67956118  0.62874555  1
  O  O20  1  0.11329743  0.91019991  0.27329812  1
  O  O21  1  0.88670257  0.08980009  0.72670188  1
