# generated using pymatgen
data_Na3CeF7
_symmetry_space_group_name_H-M   'P 1'
_cell_length_a   5.48281636
_cell_length_b   5.48281636
_cell_length_c   6.56700029
_cell_angle_alpha   114.83272609
_cell_angle_beta   114.83272609
_cell_angle_gamma   88.60046559
_symmetry_Int_Tables_number   1
_chemical_formula_structural   Na3CeF7
_chemical_formula_sum   'Na3 Ce1 F7'
_cell_volume   159.80269956
_cell_formula_units_Z   1
loop_
 _symmetry_equiv_pos_site_id
 _symmetry_equiv_pos_as_xyz
  1  'x, y, z'
loop_
 _atom_site_type_symbol
 _atom_site_label
 _atom_site_symmetry_multiplicity
 _atom_site_fract_x
 _atom_site_fract_y
 _atom_site_fract_z
 _atom_site_occupancy
  Na  Na0  1  0.23373057  0.77809069  0.51601915  1
  Na  Na1  1  0.49924746  0.49924746  0.96519573  1
  Na  Na2  1  0.77809069  0.23373057  0.51601915  1
  Ce  Ce3  1  0.95940265  0.95940265  0.97741030  1
  F  F4  1  0.16410771  0.16410771  0.84616177  1
  F  F5  1  0.10788416  0.62880083  0.74827403  1
  F  F6  1  0.35447785  0.93554443  0.24669164  1
  F  F7  1  0.62880083  0.10788416  0.74827403  1
  F  F8  1  0.60663055  0.60663055  0.70616799  1
  F  F9  1  0.93554443  0.35447785  0.24669164  1
  F  F10  1  0.85708310  0.85708310  0.23309455  1
