# generated using pymatgen
data_Pr2Te3
_symmetry_space_group_name_H-M   'P 1'
_cell_length_a   24.99764561
_cell_length_b   9.61098280
_cell_length_c   9.61085474
_cell_angle_alpha   90.00026696
_cell_angle_beta   54.77458909
_cell_angle_gamma   54.77461652
_symmetry_Int_Tables_number   1
_chemical_formula_structural   Pr2Te3
_chemical_formula_sum   'Pr16 Te24'
_cell_volume   1335.67389859
_cell_formula_units_Z   8
loop_
 _symmetry_equiv_pos_site_id
 _symmetry_equiv_pos_as_xyz
  1  'x, y, z'
loop_
 _atom_site_type_symbol
 _atom_site_label
 _atom_site_symmetry_multiplicity
 _atom_site_fract_x
 _atom_site_fract_y
 _atom_site_fract_z
 _atom_site_occupancy
  Pr  Pr0  1  0.08181436  0.62719170  0.37732459  1
  Pr  Pr1  1  0.16665037  0.25009020  0.63149779  1
  Pr  Pr2  1  0.25148832  0.87269855  0.12286502  1
  Pr  Pr3  1  0.33639751  0.37580389  0.25229694  1
  Pr  Pr4  1  0.33640352  0.11494933  0.73869622  1
  Pr  Pr5  1  0.16666622  0.74996866  0.86859022  1
  Pr  Pr6  1  0.49687839  0.26146276  0.62437050  1
  Pr  Pr7  1  0.58181925  0.87730954  0.12717666  1
  Pr  Pr8  1  0.66665359  0.36860270  0.24998282  1
  Pr  Pr9  1  0.66665742  0.13149456  0.75006510  1
  Pr  Pr10  1  0.49696738  0.74771974  0.88489679  1
  Pr  Pr11  1  0.75149222  0.62286980  0.37268561  1
  Pr  Pr12  1  0.83638590  0.23872352  0.61499257  1
  Pr  Pr13  1  0.99697082  0.38490635  0.24772065  1
  Pr  Pr14  1  0.99687986  0.12436365  0.76147642  1
  Pr  Pr15  1  0.83638131  0.75231357  0.87581012  1
  Te  Te16  1  0.05048236  0.99938086  0.35217162  1
  Te  Te17  1  0.12338192  0.49156100  0.99449548  1
  Te  Te18  1  0.05056403  0.34888572  0.49612798  1
  Te  Te19  1  0.28278379  0.15101523  0.14797575  1
  Te  Te20  1  0.28275698  0.50048422  0.00391914  1
  Te  Te21  1  0.21016003  0.00789178  0.86413167  1
  Te  Te22  1  0.12332429  0.63846356  0.63541492  1
  Te  Te23  1  0.38447731  0.99778437  0.34346586  1
  Te  Te24  1  0.21005865  0.86157597  0.50562302  1
  Te  Te25  1  0.44876868  0.49691246  0.00247976  1
  Te  Te26  1  0.38455483  0.34850282  0.50316168  1
  Te  Te27  1  0.62332000  0.13543142  0.13842983  1
  Te  Te28  1  0.62335901  0.49452945  0.99156072  1
  Te  Te29  1  0.55056326  0.99611913  0.84887002  1
  Te  Te30  1  0.44878565  0.65666405  0.65142220  1
  Te  Te31  1  0.71004802  0.00562118  0.36160110  1
  Te  Te32  1  0.55049499  0.85211749  0.49937728  1
  Te  Te33  1  0.78275524  0.50390903  0.00049434  1
  Te  Te34  1  0.71015779  0.36412179  0.50790156  1
  Te  Te35  1  0.94880692  0.15141215  0.15668293  1
  Te  Te36  1  0.94876249  0.50250008  0.99690405  1
  Te  Te37  1  0.88454410  0.00316473  0.84854230  1
  Te  Te38  1  0.78277527  0.64799000  0.65102565  1
  Te  Te39  1  0.88447293  0.84349501  0.49777710  1
