# generated using pymatgen
data_Ba5Nb4O15
_symmetry_space_group_name_H-M   'P 1'
_cell_length_a   5.85323813
_cell_length_b   5.85323716
_cell_length_c   11.91281149
_cell_angle_alpha   90.00000754
_cell_angle_beta   89.99998039
_cell_angle_gamma   119.99997496
_symmetry_Int_Tables_number   1
_chemical_formula_structural   Ba5Nb4O15
_chemical_formula_sum   'Ba5 Nb4 O15'
_cell_volume   353.45760053
_cell_formula_units_Z   1
loop_
 _symmetry_equiv_pos_site_id
 _symmetry_equiv_pos_as_xyz
  1  'x, y, z'
loop_
 _atom_site_type_symbol
 _atom_site_label
 _atom_site_symmetry_multiplicity
 _atom_site_fract_x
 _atom_site_fract_y
 _atom_site_fract_z
 _atom_site_occupancy
  Ba  Ba0  1  0.66666655  0.33333339  0.57097197  1
  Ba  Ba1  1  0.33333358  0.66666643  0.42902799  1
  Ba  Ba2  1  0.66666696  0.33333319  0.20864734  1
  Ba  Ba3  1  0.33333320  0.66666681  0.79135268  1
  Ba  Ba4  1  0.00000017  -0.00000008  -0.00000002  1
  Nb  Nb5  1  0.66666682  0.33333348  0.89490038  1
  Nb  Nb6  1  0.33333400  0.66666677  0.10509957  1
  Nb  Nb7  1  0.00000040  -0.00000007  0.31712824  1
  Nb  Nb8  1  -0.00000042  -0.00000009  0.68287166  1
  O  O9  1  0.83580160  0.16419795  0.38777627  1
  O  O10  1  0.83580184  0.67160307  0.38777618  1
  O  O11  1  0.32839817  0.16419884  0.38777651  1
  O  O12  1  0.67160213  0.83580166  0.61222363  1
  O  O13  1  0.16419839  0.32839762  0.61222365  1
  O  O14  1  0.16419772  0.83580180  0.61222345  1
  O  O15  1  0.83096353  0.16903629  0.80786145  1
  O  O16  1  0.83096362  0.66192688  0.80786129  1
  O  O17  1  0.33807315  0.16903680  0.80786126  1
  O  O18  1  0.49999995  -0.00000010  -0.00000002  1
  O  O19  1  -0.00000015  0.49999989  -0.00000004  1
  O  O20  1  0.49999992  0.49999997  -0.00000006  1
  O  O21  1  0.16903625  0.83096329  0.19213850  1
  O  O22  1  0.16903671  0.33807281  0.19213855  1
  O  O23  1  0.66192692  0.83096340  0.19213857  1
