# generated using pymatgen
data_Li3TaO4
_symmetry_space_group_name_H-M   'P 1'
_cell_length_a   5.98996120
_cell_length_b   5.98996120
_cell_length_c   9.27650154
_cell_angle_alpha   71.22185067
_cell_angle_beta   71.22185067
_cell_angle_gamma   90.03759748
_symmetry_Int_Tables_number   1
_chemical_formula_structural   Li3TaO4
_chemical_formula_sum   'Li12 Ta4 O16'
_cell_volume   296.32227946
_cell_formula_units_Z   4
loop_
 _symmetry_equiv_pos_site_id
 _symmetry_equiv_pos_as_xyz
  1  'x, y, z'
loop_
 _atom_site_type_symbol
 _atom_site_label
 _atom_site_symmetry_multiplicity
 _atom_site_fract_x
 _atom_site_fract_y
 _atom_site_fract_z
 _atom_site_occupancy
  Li  Li0  1  0.30416999  0.05650183  0.63710934  1
  Li  Li1  1  0.69583001  0.94349817  0.36289066  1
  Li  Li2  1  0.05650183  0.30416999  0.13710934  1
  Li  Li3  1  0.94349817  0.69583001  0.86289066  1
  Li  Li4  1  0.43246373  0.19593108  0.88604052  1
  Li  Li5  1  0.80406892  0.56753627  0.61395948  1
  Li  Li6  1  0.56753627  0.80406892  0.11395948  1
  Li  Li7  1  0.19593108  0.43246373  0.38604052  1
  Li  Li8  1  0.64515642  0.43669342  0.37543762  1
  Li  Li9  1  0.56330658  0.35484358  0.12456238  1
  Li  Li10  1  0.35484358  0.56330658  0.62456238  1
  Li  Li11  1  0.43669342  0.64515642  0.87543762  1
  Ta  Ta12  1  0.93828061  0.22179510  0.87492894  1
  Ta  Ta13  1  0.77820490  0.06171939  0.62507106  1
  Ta  Ta14  1  0.06171939  0.77820490  0.12507106  1
  Ta  Ta15  1  0.22179510  0.93828061  0.37492894  1
  O  O16  1  0.05230250  0.83166339  0.61311519  1
  O  O17  1  0.83166339  0.05230250  0.11311519  1
  O  O18  1  0.16833661  0.94769750  0.88688481  1
  O  O19  1  0.94769750  0.16833661  0.38688481  1
  O  O20  1  0.29045538  0.04257945  0.13677955  1
  O  O21  1  0.95742055  0.70954462  0.36322045  1
  O  O22  1  0.70954462  0.95742055  0.86322045  1
  O  O23  1  0.04257945  0.29045538  0.63677955  1
  O  O24  1  0.57491667  0.30269719  0.61866420  1
  O  O25  1  0.69730281  0.42508333  0.88133580  1
  O  O26  1  0.42508333  0.69730281  0.38133580  1
  O  O27  1  0.30269719  0.57491667  0.11866420  1
  O  O28  1  0.81998263  0.56927809  0.13186927  1
  O  O29  1  0.43072191  0.18001737  0.36813073  1
  O  O30  1  0.18001737  0.43072191  0.86813073  1
  O  O31  1  0.56927809  0.81998263  0.63186927  1
