# generated using pymatgen
data_Ca2B2O5
_symmetry_space_group_name_H-M   'P 1'
_cell_length_a   5.18531569
_cell_length_b   7.18702360
_cell_length_c   11.52097550
_cell_angle_alpha   86.72439680
_cell_angle_beta   90.00000000
_cell_angle_gamma   90.00000000
_symmetry_Int_Tables_number   1
_chemical_formula_structural   Ca2B2O5
_chemical_formula_sum   'Ca8 B8 O20'
_cell_volume   428.65057583
_cell_formula_units_Z   4
loop_
 _symmetry_equiv_pos_site_id
 _symmetry_equiv_pos_as_xyz
  1  'x, y, z'
loop_
 _atom_site_type_symbol
 _atom_site_label
 _atom_site_symmetry_multiplicity
 _atom_site_fract_x
 _atom_site_fract_y
 _atom_site_fract_z
 _atom_site_occupancy
  Ca  Ca0  1  0.56375580  0.38170723  0.36697335  1
  Ca  Ca1  1  0.06375580  0.61829277  0.13302665  1
  Ca  Ca2  1  0.43624420  0.61829277  0.63302665  1
  Ca  Ca3  1  0.93624420  0.38170723  0.86697335  1
  Ca  Ca4  1  0.60189073  0.87582679  0.33485968  1
  Ca  Ca5  1  0.10189073  0.12417321  0.16514032  1
  Ca  Ca6  1  0.39810927  0.12417321  0.66514032  1
  Ca  Ca7  1  0.89810927  0.87582679  0.83485968  1
  B  B8  1  0.43698895  0.66340349  0.91147864  1
  B  B9  1  0.93698895  0.33659651  0.58852136  1
  B  B10  1  0.56301105  0.33659651  0.08852136  1
  B  B11  1  0.06301105  0.66340349  0.41147864  1
  B  B12  1  0.57671031  0.84521747  0.09585975  1
  B  B13  1  0.07671031  0.15478253  0.40414025  1
  B  B14  1  0.42328969  0.15478253  0.90414025  1
  B  B15  1  0.92328969  0.84521747  0.59585975  1
  O  O16  1  0.90790579  0.77241736  0.48485113  1
  O  O17  1  0.40790579  0.22758264  0.01514887  1
  O  O18  1  0.09209421  0.22758264  0.51514887  1
  O  O19  1  0.59209421  0.77241736  0.98485113  1
  O  O20  1  0.17878552  0.64391675  0.92899360  1
  O  O21  1  0.67878552  0.35608325  0.57100640  1
  O  O22  1  0.82121448  0.35608325  0.07100640  1
  O  O23  1  0.32121448  0.64391675  0.42899360  1
  O  O24  1  0.58042170  0.59181485  0.82578104  1
  O  O25  1  0.08042170  0.40818515  0.67421896  1
  O  O26  1  0.41957830  0.40818515  0.17421896  1
  O  O27  1  0.91957830  0.59181485  0.32578104  1
  O  O28  1  0.19348401  0.10735791  0.85788913  1
  O  O29  1  0.69348401  0.89264209  0.64211087  1
  O  O30  1  0.80651599  0.89264209  0.14211087  1
  O  O31  1  0.30651599  0.10735791  0.35788913  1
  O  O32  1  0.14507064  0.85409290  0.65710370  1
  O  O33  1  0.64507064  0.14590710  0.84289630  1
  O  O34  1  0.85492936  0.14590710  0.34289630  1
  O  O35  1  0.35492936  0.85409290  0.15710370  1
