# generated using pymatgen
data_Ba8P5Br
_symmetry_space_group_name_H-M   'P 1'
_cell_length_a   8.57190744
_cell_length_b   8.57191333
_cell_length_c   8.57190766
_cell_angle_alpha   109.27463403
_cell_angle_beta   109.27465781
_cell_angle_gamma   109.86505410
_symmetry_Int_Tables_number   1
_chemical_formula_structural   Ba8P5Br
_chemical_formula_sum   'Ba8 P5 Br1'
_cell_volume   484.83685273
_cell_formula_units_Z   1
loop_
 _symmetry_equiv_pos_site_id
 _symmetry_equiv_pos_as_xyz
  1  'x, y, z'
loop_
 _atom_site_type_symbol
 _atom_site_label
 _atom_site_symmetry_multiplicity
 _atom_site_fract_x
 _atom_site_fract_y
 _atom_site_fract_z
 _atom_site_occupancy
  Ba  Ba0  1  0.00142082  0.37934367  0.49474155  1
  Ba  Ba1  1  0.48316368  0.98676717  0.34266503  1
  Ba  Ba2  1  0.14409960  0.14049678  0.15733383  1
  Ba  Ba3  1  0.38460035  0.50668019  0.00525842  1
  Ba  Ba4  1  0.62065736  0.61539780  0.62207800  1
  Ba  Ba5  1  0.49331959  0.99857920  0.87792141  1
  Ba  Ba6  1  0.01323226  0.85589861  0.49639592  1
  Ba  Ba7  1  0.85950000  0.51683671  0.00360337  1
  P  P8  1  0.11857128  0.75465906  0.87462039  1
  P  P9  1  0.24533989  0.61996084  0.36391174  1
  P  P10  1  0.38003888  0.24395148  0.62537950  1
  P  P11  1  0.62499924  0.37499967  0.24999911  1
  P  P12  1  0.75604818  0.88142903  0.13608848  1
  Br  Br13  1  0.87500688  0.12500180  0.75000324  1
