# generated using pymatgen
data_Pr2Si2O7
_symmetry_space_group_name_H-M   'P 1'
_cell_length_a   6.76066778
_cell_length_b   6.76066778
_cell_length_c   24.57145893
_cell_angle_alpha   90.00000000
_cell_angle_beta   90.00000000
_cell_angle_gamma   90.00000000
_symmetry_Int_Tables_number   1
_chemical_formula_structural   Pr2Si2O7
_chemical_formula_sum   'Pr16 Si16 O56'
_cell_volume   1123.07855352
_cell_formula_units_Z   8
loop_
 _symmetry_equiv_pos_site_id
 _symmetry_equiv_pos_as_xyz
  1  'x, y, z'
loop_
 _atom_site_type_symbol
 _atom_site_label
 _atom_site_symmetry_multiplicity
 _atom_site_fract_x
 _atom_site_fract_y
 _atom_site_fract_z
 _atom_site_occupancy
  Pr  Pr0  1  0.88063000  0.23756445  0.63293539  1
  Pr  Pr1  1  0.76243555  0.88063000  0.88293539  1
  Pr  Pr2  1  0.23756445  0.11937000  0.38293539  1
  Pr  Pr3  1  0.11937000  0.76243555  0.13293539  1
  Pr  Pr4  1  0.67001027  0.07895683  0.49289813  1
  Pr  Pr5  1  0.92104317  0.67001027  0.74289813  1
  Pr  Pr6  1  0.07895683  0.32998973  0.24289813  1
  Pr  Pr7  1  0.32998973  0.92104317  0.99289813  1
  Pr  Pr8  1  0.48054592  0.83456287  0.64110885  1
  Pr  Pr9  1  0.16543713  0.48054592  0.89110885  1
  Pr  Pr10  1  0.83456287  0.51945408  0.39110885  1
  Pr  Pr11  1  0.51945408  0.16543713  0.14110885  1
  Pr  Pr12  1  0.24901410  0.69832152  0.49116155  1
  Pr  Pr13  1  0.30167848  0.24901410  0.74116155  1
  Pr  Pr14  1  0.69832152  0.75098590  0.24116155  1
  Pr  Pr15  1  0.75098590  0.30167848  0.99116155  1
  Si  Si16  1  0.99892977  0.70602697  0.61408063  1
  Si  Si17  1  0.29397303  0.99892977  0.86408063  1
  Si  Si18  1  0.70602697  0.00107023  0.36408063  1
  Si  Si19  1  0.00107023  0.29397303  0.11408063  1
  Si  Si20  1  0.74509333  0.62093051  0.51614499  1
  Si  Si21  1  0.37906949  0.74509333  0.76614499  1
  Si  Si22  1  0.62093051  0.25490667  0.26614499  1
  Si  Si23  1  0.25490667  0.37906949  0.01614499  1
  Si  Si24  1  0.40490947  0.30288173  0.60602743  1
  Si  Si25  1  0.69711827  0.40490947  0.85602743  1
  Si  Si26  1  0.30288173  0.59509153  0.35602743  1
  Si  Si27  1  0.59509153  0.69711827  0.10602743  1
  Si  Si28  1  0.15353077  0.23444868  0.50827938  1
  Si  Si29  1  0.76555132  0.15353077  0.75827938  1
  Si  Si30  1  0.23444868  0.84646923  0.25827938  1
  Si  Si31  1  0.84646923  0.76555132  0.00827938  1
  O  O32  1  0.19004152  0.79335805  0.58432409  1
  O  O33  1  0.20664195  0.19004152  0.83432409  1
  O  O34  1  0.79335805  0.80995848  0.33432409  1
  O  O35  1  0.80995848  0.20664195  0.08432409  1
  O  O36  1  0.85163884  0.86678958  0.64175026  1
  O  O37  1  0.13321042  0.85163884  0.89175026  1
  O  O38  1  0.86678958  0.14836116  0.39175026  1
  O  O39  1  0.14836116  0.13321042  0.14175026  1
  O  O40  1  0.05186226  0.54502751  0.66038979  1
  O  O41  1  0.45497249  0.05186226  0.91038979  1
  O  O42  1  0.54502751  0.94813774  0.41038979  1
  O  O43  1  0.94813774  0.45497249  0.16038979  1
  O  O44  1  0.87985863  0.56225288  0.56959396  1
  O  O45  1  0.43774712  0.87985863  0.81959396  1
  O  O46  1  0.56225288  0.12014137  0.31959396  1
  O  O47  1  0.12014137  0.43774712  0.06959396  1
  O  O48  1  0.88336905  0.75632540  0.47632527  1
  O  O49  1  0.24367460  0.88336905  0.72632527  1
  O  O50  1  0.75632540  0.11663095  0.22632527  1
  O  O51  1  0.11663095  0.24367460  0.97632527  1
  O  O52  1  0.56435371  0.76242395  0.53564848  1
  O  O53  1  0.57042765  0.13926591  0.58688107  1
  O  O54  1  0.23757605  0.56435371  0.78564848  1
  O  O55  1  0.43564629  0.23757605  0.03564848  1
  O  O56  1  0.67350856  0.42972407  0.48314682  1
  O  O57  1  0.57027593  0.67350856  0.73314682  1
  O  O58  1  0.42972407  0.32649144  0.23314682  1
  O  O59  1  0.32649144  0.57027593  0.98314682  1
  O  O60  1  0.24904755  0.18288455  0.64418381  1
  O  O61  1  0.81711545  0.24904755  0.89418381  1
  O  O62  1  0.18288455  0.75095245  0.39418381  1
  O  O63  1  0.75095245  0.81711545  0.14418381  1
  O  O64  1  0.88884201  0.61823329  0.95726721  1
  O  O65  1  0.38176671  0.88884201  0.20726721  1
  O  O66  1  0.61823329  0.11115799  0.70726721  1
  O  O67  1  0.11115799  0.38176671  0.45726721  1
  O  O68  1  0.71220873  0.94287845  0.98374776  1
  O  O69  1  0.05712155  0.71220873  0.23374776  1
  O  O70  1  0.94287845  0.28779127  0.73374776  1
  O  O71  1  0.28779127  0.05712155  0.48374776  1
  O  O72  1  0.03606465  0.84541543  0.04041624  1
  O  O73  1  0.15458457  0.03606465  0.29041624  1
  O  O74  1  0.84541543  0.96393535  0.79041624  1
  O  O75  1  0.96393535  0.15458457  0.54041624  1
  O  O76  1  0.71288848  0.62517140  0.04983816  1
  O  O77  1  0.37482860  0.71288848  0.29983816  1
  O  O78  1  0.62517140  0.28711152  0.79983816  1
  O  O79  1  0.28711152  0.37482860  0.54983816  1
  O  O80  1  0.47950319  0.51936961  0.13444473  1
  O  O81  1  0.48063039  0.47950319  0.38444473  1
  O  O82  1  0.51936961  0.52049681  0.88444473  1
  O  O83  1  0.52049681  0.48063039  0.63444473  1
  O  O84  1  0.42957235  0.86073409  0.08688107  1
  O  O85  1  0.13926591  0.42957235  0.33688107  1
  O  O86  1  0.86073409  0.57042765  0.83688107  1
  O  O87  1  0.76242395  0.43564629  0.28564848  1
