# generated using pymatgen
data_KNO2
_symmetry_space_group_name_H-M   'P 1'
_cell_length_a   4.46024580
_cell_length_b   4.46024580
_cell_length_c   4.09086225
_cell_angle_alpha   70.21248327
_cell_angle_beta   70.21248327
_cell_angle_gamma   79.57690874
_symmetry_Int_Tables_number   1
_chemical_formula_structural   KNO2
_chemical_formula_sum   'K1 N1 O2'
_cell_volume   71.85356077
_cell_formula_units_Z   1
loop_
 _symmetry_equiv_pos_site_id
 _symmetry_equiv_pos_as_xyz
  1  'x, y, z'
loop_
 _atom_site_type_symbol
 _atom_site_label
 _atom_site_symmetry_multiplicity
 _atom_site_fract_x
 _atom_site_fract_y
 _atom_site_fract_z
 _atom_site_occupancy
  K  K0  1  0.00841488  0.00841488  0.96275678  1
  N  N1  1  0.48845691  0.48845691  0.54795647  1
  O  O2  1  0.39871665  0.77270856  0.39774537  1
  O  O3  1  0.77270856  0.39871665  0.39774537  1
