# generated using pymatgen
data_NdPS4
_symmetry_space_group_name_H-M   'P 1'
_cell_length_a   12.42035647
_cell_length_b   12.42035647
_cell_length_c   12.42035647
_cell_angle_alpha   127.68210927
_cell_angle_beta   127.68210927
_cell_angle_gamma   77.14056723
_symmetry_Int_Tables_number   1
_chemical_formula_structural   NdPS4
_chemical_formula_sum   'Nd8 P8 S32'
_cell_volume   1164.63327765
_cell_formula_units_Z   8
loop_
 _symmetry_equiv_pos_site_id
 _symmetry_equiv_pos_as_xyz
  1  'x, y, z'
loop_
 _atom_site_type_symbol
 _atom_site_label
 _atom_site_symmetry_multiplicity
 _atom_site_fract_x
 _atom_site_fract_y
 _atom_site_fract_z
 _atom_site_occupancy
  Nd  Nd0  1  0.50000000  0.50000000  -0.00000000  1
  Nd  Nd1  1  0.25000000  0.75000000  0.50000000  1
  Nd  Nd2  1  0.75000000  0.25000000  0.50000000  1
  Nd  Nd3  1  -0.00000000  -0.00000000  -0.00000000  1
  Nd  Nd4  1  0.25000000  0.25000000  -0.00000000  1
  Nd  Nd5  1  -0.00000000  0.50000000  0.50000000  1
  Nd  Nd6  1  0.50000000  -0.00000000  0.50000000  1
  Nd  Nd7  1  0.75000000  0.75000000  -0.00000000  1
  P  P8  1  0.62500000  0.91287854  0.78787854  1
  P  P9  1  0.62500000  0.41287854  0.28787854  1
  P  P10  1  0.16287854  0.37500000  0.28787854  1
  P  P11  1  0.08712146  0.87500000  0.71212146  1
  P  P12  1  0.12500000  0.33712146  0.71212146  1
  P  P13  1  0.12500000  0.83712146  0.21212146  1
  P  P14  1  0.58712146  0.87500000  0.21212146  1
  P  P15  1  0.66287854  0.37500000  0.78787854  1
  S  S16  1  0.98601737  0.71595745  0.45577573  1
  S  S17  1  0.26018171  0.53024164  0.54422427  1
  S  S18  1  0.28024164  0.23601737  0.77005992  1
  S  S19  1  0.46595745  0.51018171  0.22994008  1
  S  S20  1  0.98981829  0.03404255  0.77005992  1
  S  S21  1  0.26398263  0.21975836  0.22994008  1
  S  S22  1  0.78404255  0.51398263  0.54422427  1
  S  S23  1  0.96975836  0.23981829  0.45577573  1
  S  S24  1  0.77815602  0.96353710  0.31856836  1
  S  S25  1  0.71353710  0.89496874  0.68538108  1
  S  S26  1  0.20958766  0.02815602  0.31461892  1
  S  S27  1  0.47184398  0.29041234  0.68538108  1
  S  S28  1  0.60503126  0.78646290  0.31461892  1
  S  S29  1  0.04041234  0.85503126  0.31856836  1
  S  S30  1  0.53646290  0.72184398  0.68143164  1
  S  S31  1  0.64496874  0.45958766  0.68143164  1
  S  S32  1  0.97184398  0.28646290  0.18143164  1
  S  S33  1  0.03646290  0.35503126  0.81461892  1
  S  S34  1  0.54041234  0.22184398  0.18538108  1
  S  S35  1  0.27815602  0.95958766  0.81461892  1
  S  S36  1  0.14496874  0.46353710  0.18538108  1
  S  S37  1  0.70958766  0.39496874  0.18143164  1
  S  S38  1  0.21353710  0.52815602  0.81856836  1
  S  S39  1  0.10503126  0.79041234  0.81856836  1
  S  S40  1  0.48981829  0.71975836  0.95577573  1
  S  S41  1  0.46975836  0.01398263  0.72994008  1
  S  S42  1  0.28404255  0.73981829  0.27005992  1
  S  S43  1  0.76018171  0.21595745  0.72994008  1
  S  S44  1  0.48601737  0.03024164  0.27005992  1
  S  S45  1  0.96595745  0.73601737  0.95577573  1
  S  S46  1  0.78024164  0.01018171  0.04422427  1
  S  S47  1  0.76398263  0.53404255  0.04422427  1
