# generated using pymatgen
data_Ba6Zn7F26
_symmetry_space_group_name_H-M   'P 1'
_cell_length_a   10.13786345
_cell_length_b   10.13786345
_cell_length_c   12.31088467
_cell_angle_alpha   53.37167920
_cell_angle_beta   53.37167920
_cell_angle_gamma   33.98746533
_symmetry_Int_Tables_number   1
_chemical_formula_structural   Ba6Zn7F26
_chemical_formula_sum   'Ba6 Zn7 F26'
_cell_volume   552.77870084
_cell_formula_units_Z   1
loop_
 _symmetry_equiv_pos_site_id
 _symmetry_equiv_pos_as_xyz
  1  'x, y, z'
loop_
 _atom_site_type_symbol
 _atom_site_label
 _atom_site_symmetry_multiplicity
 _atom_site_fract_x
 _atom_site_fract_y
 _atom_site_fract_z
 _atom_site_occupancy
  Ba  Ba0  1  0.65735964  0.65735964  0.10295923  1
  Ba  Ba1  1  0.34264036  0.34264036  0.89704077  1
  Ba  Ba2  1  0.35803755  0.35803755  0.40283277  1
  Ba  Ba3  1  0.64196245  0.64196245  0.59716723  1
  Ba  Ba4  1  0.85484077  0.85484077  0.15207411  1
  Ba  Ba5  1  0.14515923  0.14515923  0.84792589  1
  Zn  Zn6  1  0.74331644  0.25668356  0.50000000  1
  Zn  Zn7  1  0.25668356  0.74331644  0.50000000  1
  Zn  Zn8  1  0.01440834  0.01440834  0.22172867  1
  Zn  Zn9  1  0.98559166  0.98559166  0.77827133  1
  Zn  Zn10  1  0.22219858  0.22219858  0.28839253  1
  Zn  Zn11  1  0.77780142  0.77780142  0.71160747  1
  Zn  Zn12  1  0.50000000  0.50000000  0.00000000  1
  F  F13  1  0.37215057  0.37215057  0.15784635  1
  F  F14  1  0.62784943  0.62784943  0.84215365  1
  F  F15  1  0.08923676  0.08923676  0.41940010  1
  F  F16  1  0.91076324  0.91076324  0.58059990  1
  F  F17  1  0.14339924  0.14339924  0.08256380  1
  F  F18  1  0.85660076  0.85660076  0.91743620  1
  F  F19  1  0.88650674  0.88650674  0.33215992  1
  F  F20  1  0.11349326  0.11349326  0.66784008  1
  F  F21  1  0.59286834  0.59286834  0.41861940  1
  F  F22  1  0.40713166  0.40713166  0.58138060  1
  F  F23  1  0.73117362  0.23103368  0.90704678  1
  F  F24  1  0.76896632  0.26882638  0.09295322  1
  F  F25  1  0.26882638  0.76896632  0.09295322  1
  F  F26  1  0.99414211  0.51994943  0.61925018  1
  F  F27  1  0.48005057  0.00585789  0.38074982  1
  F  F28  1  0.00585789  0.48005057  0.38074982  1
  F  F29  1  0.51994943  0.99414211  0.61925018  1
  F  F30  1  0.98394267  0.52348244  0.85096584  1
  F  F31  1  0.47651756  0.01605733  0.14903416  1
  F  F32  1  0.01605733  0.47651756  0.14903416  1
  F  F33  1  0.52348244  0.98394267  0.85096584  1
  F  F34  1  0.25670594  0.72144620  0.67455375  1
  F  F35  1  0.27855380  0.74329406  0.32544625  1
  F  F36  1  0.74329406  0.27855380  0.32544625  1
  F  F37  1  0.72144620  0.25670594  0.67455375  1
  F  F38  1  0.23103368  0.73117362  0.90704678  1
