# generated using pymatgen
data_Al2O3
_symmetry_space_group_name_H-M   'P 1'
_cell_length_a   16.66478317
_cell_length_b   5.59870206
_cell_length_c   5.59869353
_cell_angle_alpha   90.05735159
_cell_angle_beta   60.42748209
_cell_angle_gamma   59.11295961
_symmetry_Int_Tables_number   1
_chemical_formula_structural   Al2O3
_chemical_formula_sum   'Al16 O24'
_cell_volume   366.54952598
_cell_formula_units_Z   8
loop_
 _symmetry_equiv_pos_site_id
 _symmetry_equiv_pos_as_xyz
  1  'x, y, z'
loop_
 _atom_site_type_symbol
 _atom_site_label
 _atom_site_symmetry_multiplicity
 _atom_site_fract_x
 _atom_site_fract_y
 _atom_site_fract_z
 _atom_site_occupancy
  Al  Al0  1  -0.00000033  -0.00038434  -0.00038366  1
  Al  Al1  1  0.09183095  0.34368663  0.10519899  1
  Al  Al2  1  0.09010592  0.34677236  0.61528266  1
  Al  Al3  1  0.33265685  0.01703651  0.00534628  1
  Al  Al4  1  0.16734315  0.73296349  0.24465372  1
  Al  Al5  1  0.25000000  0.37500000  0.62500000  1
  Al  Al6  1  0.40816905  0.40631337  0.14480101  1
  Al  Al7  1  0.40989408  0.40322764  0.63471734  1
  Al  Al8  1  0.66734434  0.00331453  0.01500491  1
  Al  Al9  1  0.50000033  0.75038434  0.25038366  1
  Al  Al10  1  0.59183141  0.36930955  0.63082021  1
  Al  Al11  1  0.75000000  0.37500000  0.12500000  1
  Al  Al12  1  0.59010758  0.86439843  0.63290854  1
  Al  Al13  1  0.83265566  0.74668547  0.23499509  1
  Al  Al14  1  0.90816859  0.38069045  0.61917979  1
  Al  Al15  1  0.90989242  0.88560157  0.61709146  1
  O  O16  1  0.08047780  0.13731221  0.37610723  1
  O  O17  1  0.07359740  0.15895158  0.88607131  1
  O  O18  1  0.07514125  0.60970649  0.38408957  1
  O  O19  1  0.24525690  0.15111998  0.38741577  1
  O  O20  1  0.08621911  0.59930997  0.86724557  1
  O  O21  1  0.25423657  0.59831263  0.37146877  1
  O  O22  1  0.24576343  0.15168737  0.87853123  1
  O  O23  1  0.41378089  0.15069003  0.38275443  1
  O  O24  1  0.25474310  0.59888002  0.86258423  1
  O  O25  1  0.42485875  0.14029351  0.86591043  1
  O  O26  1  0.42640260  0.59104842  0.36392869  1
  O  O27  1  0.57514141  0.14048858  0.41486924  1
  O  O28  1  0.41952220  0.61268779  0.87389277  1
  O  O29  1  0.58621805  0.62410085  0.39203260  1
  O  O30  1  0.58047864  0.13245870  0.87125317  1
  O  O31  1  0.74576322  0.13417800  0.36102172  1
  O  O32  1  0.57359689  0.64313865  0.87026097  1
  O  O33  1  0.75474291  0.12318709  0.88689062  1
  O  O34  1  0.74525709  0.62681291  0.36310938  1
  O  O35  1  0.92640311  0.10686135  0.37973903  1
  O  O36  1  0.75423678  0.61582200  0.88897828  1
  O  O37  1  0.91952136  0.61754130  0.37874683  1
  O  O38  1  0.91378195  0.12589915  0.85796740  1
  O  O39  1  0.92485859  0.60951142  0.83513076  1
