# generated using pymatgen
data_Bi3SbO7
_symmetry_space_group_name_H-M   'P 1'
_cell_length_a   6.61626455
_cell_length_b   6.96873844
_cell_length_c   7.61190484
_cell_angle_alpha   106.38098812
_cell_angle_beta   89.41556888
_cell_angle_gamma   103.67477169
_symmetry_Int_Tables_number   1
_chemical_formula_structural   Bi3SbO7
_chemical_formula_sum   'Bi6 Sb2 O14'
_cell_volume   326.57015625
_cell_formula_units_Z   2
loop_
 _symmetry_equiv_pos_site_id
 _symmetry_equiv_pos_as_xyz
  1  'x, y, z'
loop_
 _atom_site_type_symbol
 _atom_site_label
 _atom_site_symmetry_multiplicity
 _atom_site_fract_x
 _atom_site_fract_y
 _atom_site_fract_z
 _atom_site_occupancy
  Bi  Bi0  1  0.51849983  0.01010142  0.74470746  1
  Bi  Bi1  1  0.48150017  0.98989858  0.25529254  1
  Bi  Bi2  1  0.26578403  0.50998559  0.87920810  1
  Bi  Bi3  1  0.73421597  0.49001441  0.12079190  1
  Bi  Bi4  1  0.74137222  0.53775503  0.62931206  1
  Bi  Bi5  1  0.25862778  0.46224497  0.37068794  1
  Sb  Sb6  1  -0.00000000  0.00000000  0.50000000  1
  Sb  Sb7  1  -0.00000000  0.00000000  -0.00000000  1
  O  O8  1  0.46750165  0.62451872  0.18185970  1
  O  O9  1  0.53249835  0.37548128  0.81814030  1
  O  O10  1  0.27753577  0.95278882  0.94569088  1
  O  O11  1  0.72246423  0.04721118  0.05430912  1
  O  O12  1  0.27399472  0.93856700  0.52207484  1
  O  O13  1  0.72600528  0.06143300  0.47792516  1
  O  O14  1  0.52960058  0.34030799  0.36181202  1
  O  O15  1  0.47039942  0.65969201  0.63818798  1
  O  O16  1  0.89263174  0.69856074  0.96342157  1
  O  O17  1  0.10736826  0.30143926  0.03657843  1
  O  O18  1  0.11220257  0.29963405  0.61750355  1
  O  O19  1  0.88779743  0.70036595  0.38249645  1
  O  O20  1  0.90613584  0.92795081  0.73143703  1
  O  O21  1  0.09386416  0.07204919  0.26856297  1
