# generated using pymatgen
data_LaScO3
_symmetry_space_group_name_H-M   'P 1'
_cell_length_a   5.68506091
_cell_length_b   5.80353077
_cell_length_c   8.10225831
_cell_angle_alpha   90.00000000
_cell_angle_beta   90.00000000
_cell_angle_gamma   90.00000000
_symmetry_Int_Tables_number   1
_chemical_formula_structural   LaScO3
_chemical_formula_sum   'La4 Sc4 O12'
_cell_volume   267.32125934
_cell_formula_units_Z   4
loop_
 _symmetry_equiv_pos_site_id
 _symmetry_equiv_pos_as_xyz
  1  'x, y, z'
loop_
 _atom_site_type_symbol
 _atom_site_label
 _atom_site_symmetry_multiplicity
 _atom_site_fract_x
 _atom_site_fract_y
 _atom_site_fract_z
 _atom_site_occupancy
  La  La0  1  0.01146135  0.95538491  0.25000000  1
  La  La1  1  0.51146135  0.54461509  0.75000000  1
  La  La2  1  0.48853865  0.45538491  0.25000000  1
  La  La3  1  0.98853865  0.04461509  0.75000000  1
  Sc  Sc4  1  0.00000000  0.50000000  -0.00000000  1
  Sc  Sc5  1  0.50000000  -0.00000000  -0.00000000  1
  Sc  Sc6  1  0.50000000  -0.00000000  0.50000000  1
  Sc  Sc7  1  0.00000000  0.50000000  0.50000000  1
  O  O8  1  0.89948015  0.53377341  0.25000000  1
  O  O9  1  0.39948015  0.96622659  0.75000000  1
  O  O10  1  0.60051985  0.03377341  0.25000000  1
  O  O11  1  0.10051985  0.46622659  0.75000000  1
  O  O12  1  0.70362041  0.29627833  0.94647568  1
  O  O13  1  0.20362041  0.20372167  0.05352432  1
  O  O14  1  0.79637959  0.79627833  0.55352432  1
  O  O15  1  0.29637959  0.70372167  0.44647568  1
  O  O16  1  0.29637959  0.70372167  0.05352432  1
  O  O17  1  0.79637959  0.79627833  0.94647568  1
  O  O18  1  0.20362041  0.20372167  0.44647568  1
  O  O19  1  0.70362041  0.29627833  0.55352432  1
