# generated using pymatgen
data_HgPbF6
_symmetry_space_group_name_H-M   'P 1'
_cell_length_a   6.08271671
_cell_length_b   6.08271613
_cell_length_c   6.08271717
_cell_angle_alpha   51.40722785
_cell_angle_beta   51.40722329
_cell_angle_gamma   51.40721790
_symmetry_Int_Tables_number   1
_chemical_formula_structural   HgPbF6
_chemical_formula_sum   'Hg1 Pb1 F6'
_cell_volume   126.93730150
_cell_formula_units_Z   1
loop_
 _symmetry_equiv_pos_site_id
 _symmetry_equiv_pos_as_xyz
  1  'x, y, z'
loop_
 _atom_site_type_symbol
 _atom_site_label
 _atom_site_symmetry_multiplicity
 _atom_site_fract_x
 _atom_site_fract_y
 _atom_site_fract_z
 _atom_site_occupancy
  Hg  Hg0  1  0.50000000  0.50000000  0.50000000  1
  Pb  Pb1  1  -0.00000000  0.00000000  -0.00000000  1
  F  F2  1  0.07109479  0.40033491  0.76273540  1
  F  F3  1  0.40033491  0.76273540  0.07109479  1
  F  F4  1  0.76273540  0.07109479  0.40033491  1
  F  F5  1  0.23726460  0.92890521  0.59966509  1
  F  F6  1  0.59966509  0.23726460  0.92890521  1
  F  F7  1  0.92890521  0.59966509  0.23726460  1
