# generated using pymatgen
data_K3BiO4
_symmetry_space_group_name_H-M   'P 1'
_cell_length_a   6.46310188
_cell_length_b   6.62914623
_cell_length_c   7.68328017
_cell_angle_alpha   101.20173509
_cell_angle_beta   97.22554364
_cell_angle_gamma   105.89792744
_symmetry_Int_Tables_number   1
_chemical_formula_structural   K3BiO4
_chemical_formula_sum   'K6 Bi2 O8'
_cell_volume   304.92591943
_cell_formula_units_Z   2
loop_
 _symmetry_equiv_pos_site_id
 _symmetry_equiv_pos_as_xyz
  1  'x, y, z'
loop_
 _atom_site_type_symbol
 _atom_site_label
 _atom_site_symmetry_multiplicity
 _atom_site_fract_x
 _atom_site_fract_y
 _atom_site_fract_z
 _atom_site_occupancy
  K  K0  1  0.66972958  0.77770438  0.97910366  1
  K  K1  1  0.83564672  0.23288452  0.83259901  1
  K  K2  1  0.64686450  0.77288541  0.46489364  1
  K  K3  1  0.35313550  0.22711459  0.53510636  1
  K  K4  1  0.33027042  0.22229562  0.02089634  1
  K  K5  1  0.16435328  0.76711548  0.16740099  1
  Bi  Bi6  1  0.84730088  0.30144693  0.31425694  1
  Bi  Bi7  1  0.15269912  0.69855307  0.68574306  1
  O  O8  1  0.98028007  0.90094785  0.77059147  1
  O  O9  1  0.01971993  0.09905215  0.22940853  1
  O  O10  1  0.23626315  0.52355587  0.85784651  1
  O  O11  1  0.76373685  0.47644413  0.14215349  1
  O  O12  1  0.44578469  0.94024229  0.72791706  1
  O  O13  1  0.55421531  0.05975771  0.27208294  1
  O  O14  1  0.18319737  0.55092754  0.42497955  1
  O  O15  1  0.81680263  0.44907246  0.57502045  1
