# generated using pymatgen
data_Al5CuS8
_symmetry_space_group_name_H-M   'P 1'
_cell_length_a   7.03220918
_cell_length_b   7.03220914
_cell_length_c   7.03220943
_cell_angle_alpha   60.00000087
_cell_angle_beta   59.99999647
_cell_angle_gamma   59.99999511
_symmetry_Int_Tables_number   1
_chemical_formula_structural   Al5CuS8
_chemical_formula_sum   'Al5 Cu1 S8'
_cell_volume   245.90102136
_cell_formula_units_Z   1
loop_
 _symmetry_equiv_pos_site_id
 _symmetry_equiv_pos_as_xyz
  1  'x, y, z'
loop_
 _atom_site_type_symbol
 _atom_site_label
 _atom_site_symmetry_multiplicity
 _atom_site_fract_x
 _atom_site_fract_y
 _atom_site_fract_z
 _atom_site_occupancy
  Al  Al0  1  0.02000333  0.49333256  0.49333256  1
  Al  Al1  1  0.49333256  0.49333256  0.02000333  1
  Al  Al2  1  0.49333256  0.02000333  0.49333256  1
  Al  Al3  1  0.49333256  0.49333256  0.49333256  1
  Al  Al4  1  0.87500000  0.87500000  0.87500000  1
  Cu  Cu5  1  0.12500000  0.12500000  0.12500000  1
  S  S6  1  0.25669420  0.25669420  0.25669420  1
  S  S7  1  0.25669420  0.72991841  0.25669420  1
  S  S8  1  0.25669420  0.25669420  0.72991841  1
  S  S9  1  0.72991841  0.25669420  0.25669420  1
  S  S10  1  0.27476138  0.74174621  0.74174621  1
  S  S11  1  0.74174621  0.74174621  0.27476138  1
  S  S12  1  0.74174621  0.27476138  0.74174621  1
  S  S13  1  0.74174621  0.74174621  0.74174621  1
