# generated using pymatgen
data_BaSc2O4
_symmetry_space_group_name_H-M   'P 1'
_cell_length_a   5.73608850
_cell_length_b   5.73608850
_cell_length_c   20.61042266
_cell_angle_alpha   89.92421871
_cell_angle_beta   89.92421871
_cell_angle_gamma   61.08167629
_symmetry_Int_Tables_number   1
_chemical_formula_structural   BaSc2O4
_chemical_formula_sum   'Ba6 Sc12 O24'
_cell_volume   593.58090983
_cell_formula_units_Z   6
loop_
 _symmetry_equiv_pos_site_id
 _symmetry_equiv_pos_as_xyz
  1  'x, y, z'
loop_
 _atom_site_type_symbol
 _atom_site_label
 _atom_site_symmetry_multiplicity
 _atom_site_fract_x
 _atom_site_fract_y
 _atom_site_fract_z
 _atom_site_occupancy
  Ba  Ba0  1  0.94380250  0.72547469  0.13735016  1
  Ba  Ba1  1  0.27452531  0.05619750  0.36264984  1
  Ba  Ba2  1  0.05619750  0.27452531  0.86264984  1
  Ba  Ba3  1  0.72547469  0.94380250  0.63735016  1
  Ba  Ba4  1  0.60747937  0.39252063  0.25000000  1
  Ba  Ba5  1  0.39252063  0.60747937  0.75000000  1
  Sc  Sc6  1  0.95764760  0.71471203  0.44692626  1
  Sc  Sc7  1  0.28528797  0.04235240  0.05307374  1
  Sc  Sc8  1  0.04235240  0.28528797  0.55307374  1
  Sc  Sc9  1  0.71471203  0.95764760  0.94692626  1
  Sc  Sc10  1  0.61886834  0.38606873  0.07007967  1
  Sc  Sc11  1  0.61393127  0.38113166  0.42992033  1
  Sc  Sc12  1  0.38113166  0.61393127  0.92992033  1
  Sc  Sc13  1  0.38606873  0.61886834  0.57007967  1
  Sc  Sc14  1  0.94068591  0.72265288  0.30479535  1
  Sc  Sc15  1  0.27734712  0.05931409  0.19520465  1
  Sc  Sc16  1  0.05931409  0.27734712  0.69520465  1
  Sc  Sc17  1  0.72265288  0.94068591  0.80479535  1
  O  O18  1  0.81580932  0.52395091  0.37581056  1
  O  O19  1  0.47604909  0.18419068  0.12418944  1
  O  O20  1  0.18419068  0.47604909  0.62418944  1
  O  O21  1  0.52395091  0.81580932  0.87581056  1
  O  O22  1  0.07734403  0.92265597  0.25000000  1
  O  O23  1  0.92265597  0.07734403  0.75000000  1
  O  O24  1  -0.00000000  -0.00000000  0.50000000  1
  O  O25  1  -0.00000000  -0.00000000  0.00000000  1
  O  O26  1  0.12841122  0.39566989  0.24862831  1
  O  O27  1  0.60433011  0.87158878  0.25137169  1
  O  O28  1  0.87158878  0.60433011  0.75137169  1
  O  O29  1  0.39566989  0.12841122  0.74862831  1
  O  O30  1  0.27111548  0.59068313  0.37621199  1
  O  O31  1  0.40931687  0.72888452  0.12378801  1
  O  O32  1  0.72888452  0.40931687  0.62378801  1
  O  O33  1  0.59068313  0.27111548  0.87621199  1
  O  O34  1  0.29465345  0.40017015  0.49638808  1
  O  O35  1  0.59982985  0.70534655  0.00361192  1
  O  O36  1  0.24738937  0.96483005  0.61932435  1
  O  O37  1  0.03516995  0.75261063  0.88067565  1
  O  O38  1  0.75261063  0.03516995  0.38067565  1
  O  O39  1  0.96483005  0.24738937  0.11932435  1
  O  O40  1  0.40017015  0.29465345  0.99638808  1
  O  O41  1  0.70534655  0.59982985  0.50361192  1
