# generated using pymatgen
data_Mg(BC)2
_symmetry_space_group_name_H-M   'P 1'
_cell_length_a   7.19993164
_cell_length_b   7.19993164
_cell_length_c   7.40738216
_cell_angle_alpha   90.00000000
_cell_angle_beta   90.00000000
_cell_angle_gamma   98.17670443
_symmetry_Int_Tables_number   1
_chemical_formula_structural   Mg(BC)2
_chemical_formula_sum   'Mg8 B16 C16'
_cell_volume   380.08779689
_cell_formula_units_Z   8
loop_
 _symmetry_equiv_pos_site_id
 _symmetry_equiv_pos_as_xyz
  1  'x, y, z'
loop_
 _atom_site_type_symbol
 _atom_site_label
 _atom_site_symmetry_multiplicity
 _atom_site_fract_x
 _atom_site_fract_y
 _atom_site_fract_z
 _atom_site_occupancy
  Mg  Mg0  1  0.72152975  0.72152975  0.00918406  1
  Mg  Mg1  1  0.77847025  0.77847025  0.50918406  1
  Mg  Mg2  1  0.22152975  0.22152975  0.49081594  1
  Mg  Mg3  1  0.27847025  0.27847025  0.99081594  1
  Mg  Mg4  1  0.34774027  0.65225973  0.50000000  1
  Mg  Mg5  1  0.15225973  0.84774027  0.00000000  1
  Mg  Mg6  1  0.65225973  0.34774027  0.50000000  1
  Mg  Mg7  1  0.84774027  0.15225973  0.00000000  1
  B  B8  1  0.78721081  0.53160325  0.75487227  1
  B  B9  1  0.46839675  0.21278919  0.24512773  1
  B  B10  1  0.03160325  0.28721081  0.74512773  1
  B  B11  1  0.71278919  0.96839675  0.25487227  1
  B  B12  1  0.53160325  0.78721081  0.75487227  1
  B  B13  1  0.96839675  0.71278919  0.25487227  1
  B  B14  1  0.28721081  0.03160325  0.74512773  1
  B  B15  1  0.21278919  0.46839675  0.24512773  1
  B  B16  1  0.84401391  0.34401391  0.25000000  1
  B  B17  1  0.65598609  0.15598609  0.75000000  1
  B  B18  1  0.15598609  0.65598609  0.75000000  1
  B  B19  1  0.34401391  0.84401391  0.25000000  1
  B  B20  1  0.58805119  0.58805119  0.27523059  1
  B  B21  1  0.91194881  0.91194881  0.77523059  1
  B  B22  1  0.08805119  0.08805119  0.22476941  1
  B  B23  1  0.41194881  0.41194881  0.72476941  1
  C  C24  1  0.04991344  0.29887252  0.22411243  1
  C  C25  1  0.45008656  0.20112748  0.72411243  1
  C  C26  1  0.79887252  0.54991344  0.27588757  1
  C  C27  1  0.70112748  0.95008656  0.77588757  1
  C  C28  1  0.29887252  0.04991344  0.22411243  1
  C  C29  1  0.95008656  0.70112748  0.77588757  1
  C  C30  1  0.54991344  0.79887252  0.27588757  1
  C  C31  1  0.20112748  0.45008656  0.72411243  1
  C  C32  1  0.67654654  0.17654654  0.25000000  1
  C  C33  1  0.82345346  0.32345346  0.75000000  1
  C  C34  1  0.32345346  0.82345346  0.75000000  1
  C  C35  1  0.17654654  0.67654654  0.25000000  1
  C  C36  1  0.92027454  0.92027454  0.23007343  1
  C  C37  1  0.57972546  0.57972546  0.73007343  1
  C  C38  1  0.42027454  0.42027454  0.26992657  1
  C  C39  1  0.07972546  0.07972546  0.76992657  1
