# generated using pymatgen
data_AuF5
_symmetry_space_group_name_H-M   'P 1'
_cell_length_a   4.77015760
_cell_length_b   9.21144862
_cell_length_c   14.89134789
_cell_angle_alpha   90.00000000
_cell_angle_beta   90.00000000
_cell_angle_gamma   90.00000000
_symmetry_Int_Tables_number   1
_chemical_formula_structural   AuF5
_chemical_formula_sum   'Au8 F40'
_cell_volume   654.32674421
_cell_formula_units_Z   8
loop_
 _symmetry_equiv_pos_site_id
 _symmetry_equiv_pos_as_xyz
  1  'x, y, z'
loop_
 _atom_site_type_symbol
 _atom_site_label
 _atom_site_symmetry_multiplicity
 _atom_site_fract_x
 _atom_site_fract_y
 _atom_site_fract_z
 _atom_site_occupancy
  Au  Au0  1  0.07182857  0.12922057  0.14402464  1
  Au  Au1  1  0.57182857  0.37077943  0.85597536  1
  Au  Au2  1  0.42817143  0.62922057  0.35597536  1
  Au  Au3  1  0.92817143  0.87077943  0.64402464  1
  Au  Au4  1  0.92817143  0.87077943  0.85597536  1
  Au  Au5  1  0.42817143  0.62922057  0.14402464  1
  Au  Au6  1  0.57182857  0.37077943  0.64402464  1
  Au  Au7  1  0.07182857  0.12922057  0.35597536  1
  F  F8  1  0.25161133  0.02456377  0.05240385  1
  F  F9  1  0.75161133  0.47543623  0.94759615  1
  F  F10  1  0.24838867  0.52456377  0.44759615  1
  F  F11  1  0.74838867  0.97543623  0.55240385  1
  F  F12  1  0.74838867  0.97543623  0.94759615  1
  F  F13  1  0.24838867  0.52456377  0.05240385  1
  F  F14  1  0.75161133  0.47543623  0.55240385  1
  F  F15  1  0.25161133  0.02456377  0.44759615  1
  F  F16  1  0.37922843  0.26247570  0.35127537  1
  F  F17  1  0.87922943  0.23752430  0.64872463  1
  F  F18  1  0.12077057  0.76247570  0.14872463  1
  F  F19  1  0.62077057  0.73752430  0.85127537  1
  F  F20  1  0.62077057  0.73752430  0.64872463  1
  F  F21  1  0.12077057  0.76247570  0.35127537  1
  F  F22  1  0.87922943  0.23752430  0.85127537  1
  F  F23  1  0.37922843  0.26247570  0.14872463  1
  F  F24  1  0.89501377  0.23504086  0.25000000  1
  F  F25  1  0.39501377  0.26495914  0.75000000  1
  F  F26  1  0.60498623  0.73504086  0.25000000  1
  F  F27  1  0.10498623  0.76495914  0.75000000  1
  F  F28  1  0.24215971  0.02025301  0.25000000  1
  F  F29  1  0.74215971  0.47974699  0.75000000  1
  F  F30  1  0.25784029  0.52025301  0.25000000  1
  F  F31  1  0.75784029  0.97974699  0.75000000  1
  F  F32  1  0.76210850  -0.00283735  0.35529341  1
  F  F33  1  0.26210950  0.50283735  0.64470659  1
  F  F34  1  0.73789150  0.49716265  0.14470659  1
  F  F35  1  0.23789050  0.00283735  0.85529341  1
  F  F36  1  0.23789050  0.00283735  0.64470659  1
  F  F37  1  0.73789150  0.49716265  0.35529341  1
  F  F38  1  0.26210950  0.50283735  0.85529341  1
  F  F39  1  0.76210850  -0.00283735  0.14470659  1
  F  F40  1  0.90238274  0.24010950  0.44667491  1
  F  F41  1  0.40238274  0.25989050  0.55332509  1
  F  F42  1  0.59761726  0.74010950  0.05332509  1
  F  F43  1  0.09761726  0.75989050  0.94667491  1
  F  F44  1  0.09761726  0.75989050  0.55332509  1
  F  F45  1  0.59761726  0.74010950  0.44667491  1
  F  F46  1  0.40238274  0.25989050  0.94667491  1
  F  F47  1  0.90238274  0.24010950  0.05332509  1
