# generated using pymatgen
data_Ba6Mn5O16
_symmetry_space_group_name_H-M   'P 1'
_cell_length_a   7.21644903
_cell_length_b   7.21644903
_cell_length_c   20.07721471
_cell_angle_alpha   90.00000000
_cell_angle_beta   90.00000000
_cell_angle_gamma   133.18736301
_symmetry_Int_Tables_number   1
_chemical_formula_structural   Ba6Mn5O16
_chemical_formula_sum   'Ba12 Mn10 O32'
_cell_volume   762.34108940
_cell_formula_units_Z   2
loop_
 _symmetry_equiv_pos_site_id
 _symmetry_equiv_pos_as_xyz
  1  'x, y, z'
loop_
 _atom_site_type_symbol
 _atom_site_label
 _atom_site_symmetry_multiplicity
 _atom_site_fract_x
 _atom_site_fract_y
 _atom_site_fract_z
 _atom_site_occupancy
  Ba  Ba0  1  0.35473540  0.64526460  0.97996136  1
  Ba  Ba1  1  0.64526460  0.35473540  0.02003864  1
  Ba  Ba2  1  0.14526460  0.85473540  0.47996136  1
  Ba  Ba3  1  0.85473540  0.14526460  0.52003864  1
  Ba  Ba4  1  0.08509260  0.91490740  0.67835257  1
  Ba  Ba5  1  0.91490740  0.08509260  0.32164743  1
  Ba  Ba6  1  0.41490740  0.58509260  0.17835257  1
  Ba  Ba7  1  0.58509260  0.41490740  0.82164743  1
  Ba  Ba8  1  0.37754489  0.62245511  0.66162248  1
  Ba  Ba9  1  0.62245511  0.37754489  0.33837752  1
  Ba  Ba10  1  0.12245511  0.87754489  0.16162248  1
  Ba  Ba11  1  0.87754489  0.12245511  0.83837752  1
  Mn  Mn12  1  0.12257132  0.87742868  0.90653095  1
  Mn  Mn13  1  0.87742868  0.12257132  0.09346905  1
  Mn  Mn14  1  0.37742868  0.62257132  0.40653095  1
  Mn  Mn15  1  0.62257132  0.37742868  0.59346905  1
  Mn  Mn16  1  -0.00000000  0.00000000  -0.00000000  1
  Mn  Mn17  1  0.50000000  0.50000000  0.50000000  1
  Mn  Mn18  1  0.24853395  0.75146605  0.81117563  1
  Mn  Mn19  1  0.75146605  0.24853395  0.18882437  1
  Mn  Mn20  1  0.25146605  0.74853395  0.31117563  1
  Mn  Mn21  1  0.74853395  0.25146605  0.68882437  1
  O  O22  1  0.49093611  0.94044744  0.38492473  1
  O  O23  1  0.94044744  0.49093611  0.61507527  1
  O  O24  1  0.00906389  0.55955256  0.88492473  1
  O  O25  1  0.55955256  0.00906389  0.11507527  1
  O  O26  1  0.50906389  0.05955256  0.61507527  1
  O  O27  1  0.05955256  0.50906389  0.38492473  1
  O  O28  1  0.99093611  0.44044744  0.11507527  1
  O  O29  1  0.44044744  0.99093611  0.88492473  1
  O  O30  1  0.75849565  0.79685788  0.06907175  1
  O  O31  1  0.79685788  0.75849565  0.93092825  1
  O  O32  1  0.74150435  0.70314212  0.56907175  1
  O  O33  1  0.70314212  0.74150435  0.43092825  1
  O  O34  1  0.24150435  0.20314212  0.93092825  1
  O  O35  1  0.20314212  0.24150435  0.06907175  1
  O  O36  1  0.25849565  0.29685788  0.43092825  1
  O  O37  1  0.29685788  0.25849565  0.56907175  1
  O  O38  1  0.14433930  0.85566070  0.00198258  1
  O  O39  1  0.85566070  0.14433930  0.99801742  1
  O  O40  1  0.35566070  0.64433930  0.50198258  1
  O  O41  1  0.64433930  0.35566070  0.49801742  1
  O  O42  1  0.08959596  0.91040404  0.81619207  1
  O  O43  1  0.91040404  0.08959596  0.18380793  1
  O  O44  1  0.48871926  0.01128074  0.75000000  1
  O  O45  1  0.01128074  0.48871926  0.25000000  1
  O  O46  1  0.51128074  0.98871926  0.25000000  1
  O  O47  1  0.98871926  0.51128074  0.75000000  1
  O  O48  1  0.88342965  0.11657035  0.68476937  1
  O  O49  1  0.11657035  0.88342965  0.31523063  1
  O  O50  1  0.61657035  0.38342965  0.18476937  1
  O  O51  1  0.38342965  0.61657035  0.81523063  1
  O  O52  1  0.58959596  0.41040404  0.68380793  1
  O  O53  1  0.41040404  0.58959596  0.31619207  1
