# generated using pymatgen
data_La5TlSe8
_symmetry_space_group_name_H-M   'P 1'
_cell_length_a   7.94271641
_cell_length_b   7.94271739
_cell_length_c   7.94271682
_cell_angle_alpha   109.13238305
_cell_angle_beta   110.15101125
_cell_angle_gamma   109.13240385
_symmetry_Int_Tables_number   1
_chemical_formula_structural   La5TlSe8
_chemical_formula_sum   'La5 Tl1 Se8'
_cell_volume   385.69098763
_cell_formula_units_Z   1
loop_
 _symmetry_equiv_pos_site_id
 _symmetry_equiv_pos_as_xyz
  1  'x, y, z'
loop_
 _atom_site_type_symbol
 _atom_site_label
 _atom_site_symmetry_multiplicity
 _atom_site_fract_x
 _atom_site_fract_y
 _atom_site_fract_z
 _atom_site_occupancy
  La  La0  1  0.24264949  0.63015343  0.37792521  1
  La  La1  1  0.37500000  0.25000000  0.62500000  1
  La  La2  1  0.74777078  0.86984657  0.11249606  1
  La  La3  1  0.62207479  0.36472528  0.25222922  1
  La  La4  1  0.88750394  0.13527472  0.75735051  1
  Tl  Tl5  1  0.12500000  0.75000000  0.87500000  1
  Se  Se6  1  0.99534770  0.85816313  0.48879022  1
  Se  Se7  1  0.99625987  0.33709176  0.48818420  1
  Se  Se8  1  0.51181580  0.00807568  0.84890756  1
  Se  Se9  1  0.15109244  0.16290824  0.15916912  1
  Se  Se10  1  0.36281443  0.49344252  0.00465230  1
  Se  Se11  1  0.63062809  0.64183687  0.63718557  1
  Se  Se12  1  0.51120978  0.00655748  0.36937191  1
  Se  Se13  1  0.84083088  0.49192432  0.00374013  1
