# generated using pymatgen
data_Be4N6O19
_symmetry_space_group_name_H-M   'P 1'
_cell_length_a   13.45509469
_cell_length_b   13.45509456
_cell_length_c   6.42516006
_cell_angle_alpha   90.00000000
_cell_angle_beta   90.00000000
_cell_angle_gamma   120.00000031
_symmetry_Int_Tables_number   1
_chemical_formula_structural   Be4N6O19
_chemical_formula_sum   'Be12 N18 O57'
_cell_volume   1007.36786809
_cell_formula_units_Z   3
loop_
 _symmetry_equiv_pos_site_id
 _symmetry_equiv_pos_as_xyz
  1  'x, y, z'
loop_
 _atom_site_type_symbol
 _atom_site_label
 _atom_site_symmetry_multiplicity
 _atom_site_fract_x
 _atom_site_fract_y
 _atom_site_fract_z
 _atom_site_occupancy
  Be  Be0  1  0.66666700  0.33333300  0.00211365  1
  Be  Be1  1  0.76500241  0.30693928  0.33389014  1
  Be  Be2  1  0.69306072  0.45806313  0.33389014  1
  Be  Be3  1  0.54193687  0.23499759  0.33389014  1
  Be  Be4  1  0.33333300  0.66666700  0.17675979  1
  Be  Be5  1  0.38208953  0.58495647  0.50830368  1
  Be  Be6  1  0.41504353  0.79713306  0.50830368  1
  Be  Be7  1  0.20286694  0.61791047  0.50830368  1
  Be  Be8  1  0.00000000  0.00000000  0.85507347  1
  Be  Be9  1  0.12520042  0.09909103  0.52284443  1
  Be  Be10  1  0.90090897  0.02610939  0.52284443  1
  Be  Be11  1  0.97389061  0.87479958  0.52284443  1
  N  N12  1  0.69870674  0.53552353  0.96706439  1
  N  N13  1  0.46447647  0.16318321  0.96706439  1
  N  N14  1  0.83681679  0.30129326  0.96706439  1
  N  N15  1  0.62176755  0.12325618  0.53037120  1
  N  N16  1  0.87674382  0.49851138  0.53037120  1
  N  N17  1  0.50148862  0.37823245  0.53037120  1
  N  N18  1  0.43023350  0.54695231  0.14275195  1
  N  N19  1  0.45304769  0.88328120  0.14275195  1
  N  N20  1  0.11671880  0.56976650  0.14275195  1
  N  N21  1  0.55493062  0.75009367  0.69470798  1
  N  N22  1  0.24990633  0.80483695  0.69470798  1
  N  N23  1  0.19516305  0.44506938  0.69470798  1
  N  N24  1  0.19913866  0.17552836  0.89040454  1
  N  N25  1  0.82447164  0.02361030  0.89040454  1
  N  N26  1  0.97638970  0.80086134  0.89040454  1
  N  N27  1  0.04340745  0.21409671  0.33649801  1
  N  N28  1  0.78590329  0.82931074  0.33649801  1
  N  N29  1  0.17068926  0.95659255  0.33649801  1
  O  O30  1  0.66666700  0.33333300  0.25394664  1
  O  O31  1  0.33333300  0.66666700  0.42767526  1
  O  O32  1  0.00000000  0.00000000  0.60161822  1
  O  O33  1  0.64163346  0.42974550  0.90343397  1
  O  O34  1  0.57025450  0.21188797  0.90343397  1
  O  O35  1  0.78811203  0.35836654  0.90343397  1
  O  O36  1  0.74374151  0.55417903  0.15028113  1
  O  O37  1  0.44582097  0.18956247  0.15028113  1
  O  O38  1  0.81043753  0.25625849  0.15028113  1
  O  O39  1  0.70910586  0.61249988  0.85867126  1
  O  O40  1  0.38750012  0.09660598  0.85867126  1
  O  O41  1  0.90339402  0.29089414  0.85867126  1
  O  O42  1  0.54069517  0.12048282  0.41878074  1
  O  O43  1  0.87951718  0.42021235  0.41878074  1
  O  O44  1  0.57978765  0.45930483  0.41878074  1
  O  O45  1  0.72226475  0.21395191  0.52173200  1
  O  O46  1  0.78604809  0.50831284  0.52173200  1
  O  O47  1  0.49168716  0.27773525  0.52173200  1
  O  O48  1  0.60467168  0.04409202  0.63987496  1
  O  O49  1  0.95590798  0.56058066  0.63987496  1
  O  O50  1  0.43941934  0.39532832  0.63987496  1
  O  O51  1  0.42696596  0.63678394  0.07867774  1
  O  O52  1  0.36321606  0.79018202  0.07867774  1
  O  O53  1  0.20981798  0.57303404  0.07867774  1
  O  O54  1  0.49685150  0.87949671  0.31922761  1
  O  O55  1  0.12050329  0.61735479  0.31922761  1
  O  O56  1  0.38264521  0.50314850  0.31922761  1
  O  O57  1  0.47512579  0.50607532  0.03991981  1
  O  O58  1  0.49392468  0.96904947  0.03991981  1
  O  O59  1  0.03095053  0.52487421  0.03991981  1
  O  O60  1  0.51459993  0.65703245  0.58749243  1
  O  O61  1  0.34296755  0.85756649  0.58749243  1
  O  O62  1  0.14243351  0.48540007  0.58749243  1
  O  O63  1  0.49797721  0.80402832  0.69803758  1
  O  O64  1  0.19597168  0.69394889  0.69803758  1
  O  O65  1  0.30605111  0.50202279  0.69803758  1
  O  O66  1  0.64311208  0.78589702  0.79006156  1
  O  O67  1  0.21410298  0.85721506  0.79006156  1
  O  O68  1  0.14278494  0.35688792  0.79006156  1
  O  O69  1  0.09301684  0.12326725  0.95370342  1
  O  O70  1  0.87673275  0.96974959  0.95370342  1
  O  O71  1  0.03025041  0.90698316  0.95370342  1
  O  O72  1  0.21970902  0.14825308  0.70972066  1
  O  O73  1  0.85174692  0.07145594  0.70972066  1
  O  O74  1  0.92854406  0.78029098  0.70972066  1
  O  O75  1  0.27434460  0.24551252  0.99765156  1
  O  O76  1  0.75448748  0.02883307  0.99765156  1
  O  O77  1  0.97116693  0.72565540  0.99765156  1
  O  O78  1  0.12612475  0.21341810  0.43667819  1
  O  O79  1  0.78658190  0.91270765  0.43667819  1
  O  O80  1  0.08729235  0.87387525  0.43667819  1
  O  O81  1  0.94356075  0.12255124  0.33992615  1
  O  O82  1  0.87744876  0.82101051  0.33992615  1
  O  O83  1  0.17898949  0.05643925  0.33992615  1
  O  O84  1  0.05929557  0.29783109  0.24206323  1
  O  O85  1  0.70216891  0.76146449  0.24206323  1
  O  O86  1  0.23853551  0.94070443  0.24206323  1
