# generated using pymatgen
data_CdPbF6
_symmetry_space_group_name_H-M   'P 1'
_cell_length_a   5.95420278
_cell_length_b   5.95420411
_cell_length_c   5.95420322
_cell_angle_alpha   52.72488941
_cell_angle_beta   52.72488163
_cell_angle_gamma   52.72487560
_symmetry_Int_Tables_number   1
_chemical_formula_structural   CdPbF6
_chemical_formula_sum   'Cd1 Pb1 F6'
_cell_volume   123.78929985
_cell_formula_units_Z   1
loop_
 _symmetry_equiv_pos_site_id
 _symmetry_equiv_pos_as_xyz
  1  'x, y, z'
loop_
 _atom_site_type_symbol
 _atom_site_label
 _atom_site_symmetry_multiplicity
 _atom_site_fract_x
 _atom_site_fract_y
 _atom_site_fract_z
 _atom_site_occupancy
  Cd  Cd0  1  0.50000000  0.50000000  0.50000000  1
  Pb  Pb1  1  -0.00000000  0.00000000  -0.00000000  1
  F  F2  1  0.08452981  0.39573695  0.75996490  1
  F  F3  1  0.39573695  0.75996490  0.08452981  1
  F  F4  1  0.75996490  0.08452981  0.39573695  1
  F  F5  1  0.24003510  0.91547019  0.60426305  1
  F  F6  1  0.60426305  0.24003510  0.91547019  1
  F  F7  1  0.91547019  0.60426305  0.24003510  1
