# generated using pymatgen
data_Hg2Mo2O7
_symmetry_space_group_name_H-M   'P 1'
_cell_length_a   3.97265336
_cell_length_b   6.03324757
_cell_length_c   14.18200788
_cell_angle_alpha   99.67592448
_cell_angle_beta   90.00486297
_cell_angle_gamma   89.99650257
_symmetry_Int_Tables_number   1
_chemical_formula_structural   Hg2Mo2O7
_chemical_formula_sum   'Hg4 Mo4 O14'
_cell_volume   335.07882074
_cell_formula_units_Z   2
loop_
 _symmetry_equiv_pos_site_id
 _symmetry_equiv_pos_as_xyz
  1  'x, y, z'
loop_
 _atom_site_type_symbol
 _atom_site_label
 _atom_site_symmetry_multiplicity
 _atom_site_fract_x
 _atom_site_fract_y
 _atom_site_fract_z
 _atom_site_occupancy
  Hg  Hg0  1  0.33531231  0.58158099  0.93625745  1
  Hg  Hg1  1  0.33533064  0.91837647  0.56372089  1
  Hg  Hg2  1  0.66468738  0.41841932  0.06374315  1
  Hg  Hg3  1  0.66466873  0.08162406  0.43627902  1
  Mo  Mo4  1  0.96470111  0.49504276  0.68444146  1
  Mo  Mo5  1  0.96476465  0.00490833  0.81549785  1
  Mo  Mo6  1  0.03530066  0.50495655  0.31555895  1
  Mo  Mo7  1  0.03523665  0.99509202  0.18450230  1
  O  O8  1  0.04262657  0.24996462  0.74996228  1
  O  O9  1  0.95737366  0.75003603  0.25003765  1
  O  O10  1  0.52897331  0.50586102  0.69611765  1
  O  O11  1  0.52898807  0.99407975  0.80382039  1
  O  O12  1  0.47102670  0.49413919  0.30388250  1
  O  O13  1  0.47101115  0.00591985  0.19617957  1
  O  O14  1  0.02527688  0.36326633  0.56925386  1
  O  O15  1  0.02535733  0.13670443  0.93068065  1
  O  O16  1  0.96853206  0.19686447  0.33115146  1
  O  O17  1  0.96843379  0.30318947  0.16891112  1
  O  O18  1  0.03146716  0.80313477  0.66884896  1
  O  O19  1  0.97472310  0.63673376  0.43074655  1
  O  O20  1  0.97464257  0.86329547  0.06931951  1
  O  O21  1  0.03156653  0.69681035  0.83108879  1
