# generated using pymatgen
data_Na4(BSe)9
_symmetry_space_group_name_H-M   'P 1'
_cell_length_a   16.32321654
_cell_length_b   11.01719992
_cell_length_c   11.58600331
_cell_angle_alpha   61.93129141
_cell_angle_beta   90.00000000
_cell_angle_gamma   90.00000000
_symmetry_Int_Tables_number   1
_chemical_formula_structural   Na4(BSe)9
_chemical_formula_sum   'Na16 B36 Se36'
_cell_volume   1838.51946171
_cell_formula_units_Z   4
loop_
 _symmetry_equiv_pos_site_id
 _symmetry_equiv_pos_as_xyz
  1  'x, y, z'
loop_
 _atom_site_type_symbol
 _atom_site_label
 _atom_site_symmetry_multiplicity
 _atom_site_fract_x
 _atom_site_fract_y
 _atom_site_fract_z
 _atom_site_occupancy
  Na  Na0  1  0.57747771  0.81118628  0.20484924  1
  Na  Na1  1  0.07747771  0.18881372  0.29515076  1
  Na  Na2  1  0.42252229  0.18881372  0.79515076  1
  Na  Na3  1  0.92252229  0.81118628  0.70484924  1
  Na  Na4  1  0.33997158  0.53096581  0.43684673  1
  Na  Na5  1  0.83997158  0.46903419  0.06315327  1
  Na  Na6  1  0.66002842  0.46903419  0.56315327  1
  Na  Na7  1  0.16002842  0.53096581  0.93684673  1
  Na  Na8  1  0.75752096  0.06346088  0.23731480  1
  Na  Na9  1  0.25752096  0.93653912  0.26268520  1
  Na  Na10  1  0.24247904  0.93653912  0.76268520  1
  Na  Na11  1  0.74247904  0.06346088  0.73731480  1
  Na  Na12  1  0.37704878  0.03009146  0.46000012  1
  Na  Na13  1  0.87704878  0.96990854  0.03999988  1
  Na  Na14  1  0.62295122  0.96990854  0.53999988  1
  Na  Na15  1  0.12295122  0.03009146  0.96000012  1
  B  B16  1  0.51092771  0.49937527  0.85458506  1
  B  B17  1  0.01092771  0.50062473  0.64541494  1
  B  B18  1  0.48907229  0.50062473  0.14541494  1
  B  B19  1  0.98907229  0.49937527  0.35458506  1
  B  B20  1  0.86351817  0.17445336  0.49017893  1
  B  B21  1  0.36351817  0.82554664  0.00982107  1
  B  B22  1  0.13648183  0.82554664  0.50982107  1
  B  B23  1  0.63648183  0.17445336  0.99017893  1
  B  B24  1  0.56572233  0.61709040  0.89197537  1
  B  B25  1  0.06572233  0.38290960  0.60802463  1
  B  B26  1  0.43427767  0.38290960  0.10802463  1
  B  B27  1  0.93427767  0.61709040  0.39197537  1
  B  B28  1  0.72507649  0.72055442  0.94014887  1
  B  B29  1  0.22507649  0.27944558  0.55985113  1
  B  B30  1  0.27492351  0.27944558  0.05985113  1
  B  B31  1  0.77492351  0.72055442  0.44014887  1
  B  B32  1  0.58389785  0.53747459  0.06155115  1
  B  B33  1  0.08389785  0.46252541  0.43844885  1
  B  B34  1  0.41610215  0.46252541  0.93844885  1
  B  B35  1  0.91610215  0.53747459  0.56155115  1
  B  B36  1  0.50144537  0.65561357  0.99481322  1
  B  B37  1  0.00144537  0.34438643  0.50518678  1
  B  B38  1  0.49855463  0.34438643  0.00518678  1
  B  B39  1  0.99855463  0.65561357  0.49481322  1
  B  B40  1  0.54187587  0.36901607  0.13192722  1
  B  B41  1  0.04187587  0.63098393  0.36807278  1
  B  B42  1  0.45812413  0.63098393  0.86807278  1
  B  B43  1  0.95812413  0.36901607  0.63192722  1
  B  B44  1  0.58972237  0.43995211  0.97530704  1
  B  B45  1  0.08972237  0.56004789  0.52469296  1
  B  B46  1  0.41027763  0.56004789  0.02469296  1
  B  B47  1  0.91027763  0.43995211  0.47530704  1
  B  B48  1  0.55447225  0.30270418  0.41388167  1
  B  B49  1  0.05447225  0.69729582  0.08611833  1
  B  B50  1  0.44552775  0.69729582  0.58611833  1
  B  B51  1  0.94552775  0.30270418  0.91388167  1
  Se  Se52  1  0.57730957  0.20697561  0.59836490  1
  Se  Se53  1  0.07730957  0.79302439  0.90163510  1
  Se  Se54  1  0.42269043  0.79302439  0.40163510  1
  Se  Se55  1  0.92269043  0.20697561  0.09836490  1
  Se  Se56  1  0.69700044  0.01816696  0.00737240  1
  Se  Se57  1  0.19700044  0.98183304  0.49262760  1
  Se  Se58  1  0.30299956  0.98183304  0.99262760  1
  Se  Se59  1  0.80299956  0.01816696  0.50737240  1
  Se  Se60  1  0.50602930  0.51988121  0.67215920  1
  Se  Se61  1  0.00602930  0.48011879  0.82784080  1
  Se  Se62  1  0.49397070  0.48011879  0.32784080  1
  Se  Se63  1  0.99397070  0.51988121  0.17215920  1
  Se  Se64  1  0.66728216  0.79822623  0.41637028  1
  Se  Se65  1  0.16728216  0.20177377  0.08362972  1
  Se  Se66  1  0.33271784  0.20177377  0.58362972  1
  Se  Se67  1  0.83271784  0.79822623  0.91637028  1
  Se  Se68  1  0.69003858  0.34990878  0.95188729  1
  Se  Se69  1  0.19003858  0.65009122  0.54811271  1
  Se  Se70  1  0.30996142  0.65009122  0.04811271  1
  Se  Se71  1  0.80996142  0.34990878  0.45188729  1
  Se  Se72  1  0.68564270  0.59578723  0.11829118  1
  Se  Se73  1  0.18564270  0.40421277  0.38170882  1
  Se  Se74  1  0.31435730  0.40421277  0.88170882  1
  Se  Se75  1  0.81435730  0.59578723  0.61829118  1
  Se  Se76  1  0.58881329  0.22450337  0.29951125  1
  Se  Se77  1  0.08881329  0.77549663  0.20048875  1
  Se  Se78  1  0.41118671  0.77549663  0.70048875  1
  Se  Se79  1  0.91118671  0.22450337  0.79951125  1
  Se  Se80  1  0.65761926  0.74243114  0.79091023  1
  Se  Se81  1  0.15761926  0.25756886  0.70908977  1
  Se  Se82  1  0.34238074  0.25756886  0.20908977  1
  Se  Se83  1  0.84238074  0.74243114  0.29091023  1
  Se  Se84  1  0.51651849  0.15825407  0.01887600  1
  Se  Se85  1  0.01651849  0.84174593  0.48112400  1
  Se  Se86  1  0.48348151  0.84174593  0.98112400  1
  Se  Se87  1  0.98348151  0.15825407  0.51887600  1
