# generated using pymatgen
data_GdPO4
_symmetry_space_group_name_H-M   'P 1'
_cell_length_a   6.31757256
_cell_length_b   6.63731054
_cell_length_c   6.82707098
_cell_angle_alpha   90.00006629
_cell_angle_beta   89.99998325
_cell_angle_gamma   104.10934590
_symmetry_Int_Tables_number   1
_chemical_formula_structural   GdPO4
_chemical_formula_sum   'Gd4 P4 O16'
_cell_volume   277.63449399
_cell_formula_units_Z   4
loop_
 _symmetry_equiv_pos_site_id
 _symmetry_equiv_pos_as_xyz
  1  'x, y, z'
loop_
 _atom_site_type_symbol
 _atom_site_label
 _atom_site_symmetry_multiplicity
 _atom_site_fract_x
 _atom_site_fract_y
 _atom_site_fract_z
 _atom_site_occupancy
  Gd  Gd0  1  0.59656489  0.78185615  0.34524208  1
  Gd  Gd1  1  0.90343411  0.71814285  0.84524208  1
  Gd  Gd2  1  0.40343511  0.21814385  0.65475792  1
  Gd  Gd3  1  0.09656589  0.28185715  0.15475792  1
  P  P4  1  0.11287747  0.80218959  0.33914819  1
  P  P5  1  0.38712253  0.69781041  0.83914819  1
  P  P6  1  0.88712253  0.19781041  0.66085181  1
  P  P7  1  0.61287747  0.30218959  0.16085181  1
  O  O8  1  0.21154468  0.62004412  0.29071391  1
  O  O9  1  0.28845532  0.87995588  0.79071391  1
  O  O10  1  0.78845532  0.37995588  0.70928609  1
  O  O11  1  0.71154468  0.12004412  0.20928609  1
  O  O12  1  0.31379692  0.97191826  0.39918411  1
  O  O13  1  0.18620308  0.52808174  0.89918411  1
  O  O14  1  0.68620308  0.02808174  0.60081589  1
  O  O15  1  0.81379692  0.47191826  0.10081589  1
  O  O16  1  0.43603700  0.25148161  0.00236738  1
  O  O17  1  0.06396300  0.24851839  0.50236738  1
  O  O18  1  0.56396300  0.74851839  0.99763262  1
  O  O19  1  0.93603700  0.75148161  0.49763262  1
  O  O20  1  0.50345289  0.38368321  0.33592618  1
  O  O21  1  0.99654711  0.11631779  0.83592618  1
  O  O22  1  0.49654711  0.61631679  0.66407382  1
  O  O23  1  0.00345289  0.88368221  0.16407382  1
