# generated using pymatgen
data_Mg(AlS2)2
_symmetry_space_group_name_H-M   'P 1'
_cell_length_a   5.91733004
_cell_length_b   7.23175406
_cell_length_c   12.54836190
_cell_angle_alpha   90.00000000
_cell_angle_beta   90.00000000
_cell_angle_gamma   90.00000000
_symmetry_Int_Tables_number   1
_chemical_formula_structural   Mg(AlS2)2
_chemical_formula_sum   'Mg4 Al8 S16'
_cell_volume   536.97797936
_cell_formula_units_Z   4
loop_
 _symmetry_equiv_pos_site_id
 _symmetry_equiv_pos_as_xyz
  1  'x, y, z'
loop_
 _atom_site_type_symbol
 _atom_site_label
 _atom_site_symmetry_multiplicity
 _atom_site_fract_x
 _atom_site_fract_y
 _atom_site_fract_z
 _atom_site_occupancy
  Mg  Mg0  1  0.00198046  0.75000000  0.26459772  1
  Mg  Mg1  1  0.50198046  0.25000000  0.23540228  1
  Mg  Mg2  1  0.99801954  0.25000000  0.73540228  1
  Mg  Mg3  1  0.49801954  0.75000000  0.76459772  1
  Al  Al4  1  0.59061459  0.75000000  0.08488713  1
  Al  Al5  1  0.09061459  0.25000000  0.41511287  1
  Al  Al6  1  0.40938541  0.25000000  0.91511287  1
  Al  Al7  1  0.90938541  0.75000000  0.58488713  1
  Al  Al8  1  -0.00000000  0.00000000  0.00000000  1
  Al  Al9  1  0.50000000  0.00000000  0.50000000  1
  Al  Al10  1  -0.00000000  0.50000000  0.00000000  1
  Al  Al11  1  0.50000000  0.50000000  0.50000000  1
  S  S12  1  0.21404636  0.75000000  0.08394847  1
  S  S13  1  0.71404636  0.25000000  0.41605153  1
  S  S14  1  0.78595364  0.25000000  0.91605153  1
  S  S15  1  0.28595364  0.75000000  0.58394847  1
  S  S16  1  0.72856969  0.75000000  0.42609763  1
  S  S17  1  0.22856969  0.25000000  0.07390237  1
  S  S18  1  0.27143031  0.25000000  0.57390237  1
  S  S19  1  0.77143031  0.75000000  0.92609763  1
  S  S20  1  0.76057670  0.99520814  0.15780517  1
  S  S21  1  0.26057670  0.00479186  0.34219483  1
  S  S22  1  0.23942330  0.49520814  0.84219483  1
  S  S23  1  0.73942330  0.50479186  0.65780517  1
  S  S24  1  0.23942330  0.00479186  0.84219483  1
  S  S25  1  0.73942330  0.99520814  0.65780517  1
  S  S26  1  0.76057670  0.50479186  0.15780517  1
  S  S27  1  0.26057670  0.49520814  0.34219483  1
