# generated using pymatgen
data_La2W2O9
_symmetry_space_group_name_H-M   'P 1'
_cell_length_a   7.04368538
_cell_length_b   7.30092512
_cell_length_c   7.30949108
_cell_angle_alpha   70.42304441
_cell_angle_beta   84.94325653
_cell_angle_gamma   83.25511482
_symmetry_Int_Tables_number   1
_chemical_formula_structural   La2W2O9
_chemical_formula_sum   'La4 W4 O18'
_cell_volume   351.23445287
_cell_formula_units_Z   2
loop_
 _symmetry_equiv_pos_site_id
 _symmetry_equiv_pos_as_xyz
  1  'x, y, z'
loop_
 _atom_site_type_symbol
 _atom_site_label
 _atom_site_symmetry_multiplicity
 _atom_site_fract_x
 _atom_site_fract_y
 _atom_site_fract_z
 _atom_site_occupancy
  La  La0  1  0.84308394  0.74106785  0.84769194  1
  La  La1  1  0.15691572  0.25893401  0.15230763  1
  La  La2  1  0.37646240  0.72696891  0.59044305  1
  La  La3  1  0.62354183  0.27303635  0.40953907  1
  W  W4  1  0.15714949  0.20325161  0.64515907  1
  W  W5  1  0.84286057  0.79674238  0.35484293  1
  W  W6  1  0.72277852  0.26977832  0.93941626  1
  W  W7  1  0.27722299  0.73022556  0.06057338  1
  O  O8  1  0.34711814  0.35083549  0.64589939  1
  O  O9  1  0.65288320  0.64915612  0.35411223  1
  O  O10  1  0.01356904  0.27525615  0.84756462  1
  O  O11  1  0.98642918  0.72472651  0.15244724  1
  O  O12  1  0.49212753  0.76973618  0.90357847  1
  O  O13  1  0.50786942  0.23027333  0.09640865  1
  O  O14  1  0.65956161  0.49052729  0.74461577  1
  O  O15  1  0.34044528  0.50948631  0.25539282  1
  O  O16  1  0.27234015  0.91477313  0.17931725  1
  O  O17  1  0.72765290  0.08523144  0.82067573  1
  O  O18  1  0.81213607  0.41850291  0.08987802  1
  O  O19  1  0.18785725  0.58149562  0.91013198  1
  O  O20  1  0.97709445  0.29378684  0.46486630  1
  O  O21  1  0.02291216  0.70621533  0.53513719  1
  O  O22  1  0.85613088  0.05633108  0.19863832  1
  O  O23  1  0.14385523  0.94366059  0.80136011  1
  O  O24  1  0.31841431  0.09610804  0.47124736  1
  O  O25  1  0.68158775  0.90389264  0.52875524  1
