# generated using pymatgen
data_K2Ta3Cl9
_symmetry_space_group_name_H-M   'P 1'
_cell_length_a   9.75363789
_cell_length_b   9.75363789
_cell_length_c   9.58309723
_cell_angle_alpha   77.28918608
_cell_angle_beta   77.28918608
_cell_angle_gamma   117.80378537
_symmetry_Int_Tables_number   1
_chemical_formula_structural   K2Ta3Cl9
_chemical_formula_sum   'K4 Ta6 Cl18'
_cell_volume   729.58800840
_cell_formula_units_Z   2
loop_
 _symmetry_equiv_pos_site_id
 _symmetry_equiv_pos_as_xyz
  1  'x, y, z'
loop_
 _atom_site_type_symbol
 _atom_site_label
 _atom_site_symmetry_multiplicity
 _atom_site_fract_x
 _atom_site_fract_y
 _atom_site_fract_z
 _atom_site_occupancy
  K  K0  1  0.23006449  0.55123592  0.82543120  1
  K  K1  1  0.44876408  0.76993551  0.17456880  1
  K  K2  1  0.76993551  0.44876408  0.17456880  1
  K  K3  1  0.55123592  0.23006449  0.82543120  1
  Ta  Ta4  1  0.11992729  0.11992729  0.62675473  1
  Ta  Ta5  1  0.88007271  0.88007271  0.37324527  1
  Ta  Ta6  1  0.21953383  0.04709290  0.35975334  1
  Ta  Ta7  1  0.95290710  0.78046617  0.64024666  1
  Ta  Ta8  1  0.78046617  0.95290710  0.64024666  1
  Ta  Ta9  1  0.04709290  0.21953383  0.35975334  1
  Cl  Cl10  1  0.79296827  0.20703173  0.50000000  1
  Cl  Cl11  1  0.89128008  0.49806420  0.82357528  1
  Cl  Cl12  1  0.49806420  0.89128008  0.82357528  1
  Cl  Cl13  1  0.10871992  0.50193580  0.17642472  1
  Cl  Cl14  1  0.72784794  0.72784794  0.21488126  1
  Cl  Cl15  1  0.27215206  0.27215206  0.78511874  1
  Cl  Cl16  1  0.19820957  0.40683130  0.48372237  1
  Cl  Cl17  1  0.59316870  0.80179043  0.51627763  1
  Cl  Cl18  1  0.80179043  0.59316870  0.51627763  1
  Cl  Cl19  1  0.40683130  0.19820957  0.48372237  1
  Cl  Cl20  1  0.67825465  0.67825465  0.83434315  1
  Cl  Cl21  1  0.12031410  0.91367995  0.18211770  1
  Cl  Cl22  1  0.91367995  0.12031410  0.18211770  1
  Cl  Cl23  1  0.87968590  0.08632005  0.81788230  1
  Cl  Cl24  1  0.08632005  0.87968590  0.81788230  1
  Cl  Cl25  1  0.20703173  0.79296827  0.50000000  1
  Cl  Cl26  1  0.32174535  0.32174535  0.16565685  1
  Cl  Cl27  1  0.50193580  0.10871992  0.17642472  1
