# generated using pymatgen
data_Mn2CrO4
_symmetry_space_group_name_H-M   'P 1'
_cell_length_a   5.90625677
_cell_length_b   6.00423105
_cell_length_c   5.90665852
_cell_angle_alpha   118.48196447
_cell_angle_beta   90.85188829
_cell_angle_gamma   118.47497054
_symmetry_Int_Tables_number   1
_chemical_formula_structural   Mn2CrO4
_chemical_formula_sum   'Mn4 Cr2 O8'
_cell_volume   153.68047246
_cell_formula_units_Z   2
loop_
 _symmetry_equiv_pos_site_id
 _symmetry_equiv_pos_as_xyz
  1  'x, y, z'
loop_
 _atom_site_type_symbol
 _atom_site_label
 _atom_site_symmetry_multiplicity
 _atom_site_fract_x
 _atom_site_fract_y
 _atom_site_fract_z
 _atom_site_occupancy
  Mn  Mn0  1  0.37476748  0.74989433  0.12489020  1
  Mn  Mn1  1  0.75505204  0.50053531  0.24524069  1
  Mn  Mn2  1  0.87498601  0.24982917  0.62484133  1
  Mn  Mn3  1  0.99505902  0.00058311  0.00511984  1
  Cr  Cr4  1  0.37536820  0.25004099  0.62489624  1
  Cr  Cr5  1  0.37485363  0.75003905  0.62522969  1
  O  O6  1  0.59082206  0.74758546  0.36909959  1
  O  O7  1  0.63101888  0.25182362  0.40842138  1
  O  O8  1  0.15835727  0.75187505  0.88093781  1
  O  O9  1  0.11924875  0.24767169  0.84091833  1
  O  O10  1  0.16946397  0.79420363  0.39007117  1
  O  O11  1  0.14007836  0.29407220  0.41945958  1
  O  O12  1  0.58068848  0.70595605  0.86015162  1
  O  O13  1  0.61023787  0.20588734  0.83072352  1
