# generated using pymatgen
data_PtCl3
_symmetry_space_group_name_H-M   'P 1'
_cell_length_a   12.75579219
_cell_length_b   12.75579041
_cell_length_c   12.75579212
_cell_angle_alpha   115.00847505
_cell_angle_beta   115.00846962
_cell_angle_gamma   115.00846975
_symmetry_Int_Tables_number   1
_chemical_formula_structural   PtCl3
_chemical_formula_sum   'Pt12 Cl36'
_cell_volume   1160.67176001
_cell_formula_units_Z   12
loop_
 _symmetry_equiv_pos_site_id
 _symmetry_equiv_pos_as_xyz
  1  'x, y, z'
loop_
 _atom_site_type_symbol
 _atom_site_label
 _atom_site_symmetry_multiplicity
 _atom_site_fract_x
 _atom_site_fract_y
 _atom_site_fract_z
 _atom_site_occupancy
  Pt  Pt0  1  0.23090965  0.80250575  0.47731002  1
  Pt  Pt1  1  0.80250575  0.47731002  0.23090965  1
  Pt  Pt2  1  0.47731002  0.23090965  0.80250575  1
  Pt  Pt3  1  0.76909035  0.19749425  0.52268998  1
  Pt  Pt4  1  0.19749425  0.52268998  0.76909035  1
  Pt  Pt5  1  0.52268998  0.76909035  0.19749425  1
  Pt  Pt6  1  0.75384466  0.93419943  0.83425017  1
  Pt  Pt7  1  0.93419943  0.83425017  0.75384466  1
  Pt  Pt8  1  0.83425017  0.75384466  0.93419943  1
  Pt  Pt9  1  0.24615534  0.06580057  0.16574983  1
  Pt  Pt10  1  0.06580057  0.16574983  0.24615534  1
  Pt  Pt11  1  0.16574983  0.24615534  0.06580057  1
  Cl  Cl12  1  0.46484279  0.85485976  0.63086406  1
  Cl  Cl13  1  0.85485976  0.63086406  0.46484279  1
  Cl  Cl14  1  0.63086406  0.46484279  0.85485976  1
  Cl  Cl15  1  0.53515721  0.14514024  0.36913594  1
  Cl  Cl16  1  0.14514024  0.36913594  0.53515721  1
  Cl  Cl17  1  0.36913594  0.53515721  0.14514024  1
  Cl  Cl18  1  0.16929386  0.65107094  0.24023399  1
  Cl  Cl19  1  0.65107094  0.24023399  0.16929386  1
  Cl  Cl20  1  0.24023399  0.16929386  0.65107094  1
  Cl  Cl21  1  0.83070614  0.34892906  0.75976601  1
  Cl  Cl22  1  0.34892906  0.75976601  0.83070614  1
  Cl  Cl23  1  0.75976601  0.83070614  0.34892906  1
  Cl  Cl24  1  0.09666829  0.07791216  0.82435090  1
  Cl  Cl25  1  0.82435090  0.09666829  0.07791216  1
  Cl  Cl26  1  0.07791216  0.82435090  0.09666829  1
  Cl  Cl27  1  0.90333171  0.92208784  0.17564910  1
  Cl  Cl28  1  0.17564910  0.90333171  0.92208784  1
  Cl  Cl29  1  0.92208784  0.17564910  0.90333171  1
  Cl  Cl30  1  0.40006080  0.30249343  0.22406430  1
  Cl  Cl31  1  0.22406430  0.40006080  0.30249343  1
  Cl  Cl32  1  0.30249343  0.22406430  0.40006080  1
  Cl  Cl33  1  0.59993920  0.69750657  0.77593570  1
  Cl  Cl34  1  0.77593570  0.59993920  0.69750657  1
  Cl  Cl35  1  0.69750657  0.77593570  0.59993920  1
  Cl  Cl36  1  0.44433316  0.60035387  0.94811538  1
  Cl  Cl37  1  0.94811538  0.44433316  0.60035387  1
  Cl  Cl38  1  0.60035387  0.94811538  0.44433316  1
  Cl  Cl39  1  0.55566684  0.39964613  0.05188462  1
  Cl  Cl40  1  0.05188462  0.55566684  0.39964613  1
  Cl  Cl41  1  0.39964613  0.05188462  0.55566684  1
  Cl  Cl42  1  0.69155978  0.02587326  0.27048574  1
  Cl  Cl43  1  0.27048574  0.69155978  0.02587326  1
  Cl  Cl44  1  0.02587326  0.27048574  0.69155978  1
  Cl  Cl45  1  0.30844022  0.97412674  0.72951426  1
  Cl  Cl46  1  0.72951426  0.30844022  0.97412674  1
  Cl  Cl47  1  0.97412674  0.72951426  0.30844022  1
