# generated using pymatgen
data_BaTi4O9
_symmetry_space_group_name_H-M   'P 1'
_cell_length_a   3.79727545
_cell_length_b   6.33121322
_cell_length_c   14.59932148
_cell_angle_alpha   90.00000000
_cell_angle_beta   90.00000000
_cell_angle_gamma   90.00000000
_symmetry_Int_Tables_number   1
_chemical_formula_structural   BaTi4O9
_chemical_formula_sum   'Ba2 Ti8 O18'
_cell_volume   350.98755118
_cell_formula_units_Z   2
loop_
 _symmetry_equiv_pos_site_id
 _symmetry_equiv_pos_as_xyz
  1  'x, y, z'
loop_
 _atom_site_type_symbol
 _atom_site_label
 _atom_site_symmetry_multiplicity
 _atom_site_fract_x
 _atom_site_fract_y
 _atom_site_fract_z
 _atom_site_occupancy
  Ba  Ba0  1  0.00000000  0.71232821  0.50000000  1
  Ba  Ba1  1  0.50000000  0.28767179  -0.00000000  1
  Ti  Ti2  1  0.50000000  0.25393046  0.37801752  1
  Ti  Ti3  1  0.00000000  0.74606954  0.12198248  1
  Ti  Ti4  1  0.50000000  0.25393046  0.62198248  1
  Ti  Ti5  1  -0.00000000  0.74606954  0.87801752  1
  Ti  Ti6  1  0.50000000  0.80661442  0.28780987  1
  Ti  Ti7  1  0.00000000  0.19338558  0.21219013  1
  Ti  Ti8  1  0.50000000  0.80661442  0.71219013  1
  Ti  Ti9  1  -0.00000000  0.19338558  0.78780987  1
  O  O10  1  0.50000000  0.33923939  0.50000000  1
  O  O11  1  -0.00000000  0.66076061  -0.00000000  1
  O  O12  1  0.50000000  0.56190895  0.34567865  1
  O  O13  1  0.00000000  0.43809105  0.15432135  1
  O  O14  1  0.50000000  0.56190895  0.65432135  1
  O  O15  1  -0.00000000  0.43809105  0.84567865  1
  O  O16  1  0.50000000  0.95749611  0.40092110  1
  O  O17  1  0.00000000  0.04250389  0.09907890  1
  O  O18  1  0.50000000  0.95749611  0.59907890  1
  O  O19  1  -0.00000000  0.04250389  0.90092110  1
  O  O20  1  0.00000000  0.84926141  0.26041289  1
  O  O21  1  0.50000000  0.15073859  0.23958711  1
  O  O22  1  0.00000000  0.84926141  0.73958711  1
  O  O23  1  0.50000000  0.15073859  0.76041289  1
  O  O24  1  -0.00000000  0.25927428  0.34906810  1
  O  O25  1  0.50000000  0.74072572  0.15093190  1
  O  O26  1  -0.00000000  0.25927428  0.65093190  1
  O  O27  1  0.50000000  0.74072572  0.84906810  1
