# generated using pymatgen
data_Ca(PrS2)2
_symmetry_space_group_name_H-M   'P 1'
_cell_length_a   7.47326379
_cell_length_b   7.47326379
_cell_length_c   7.47326379
_cell_angle_alpha   109.68231757
_cell_angle_beta   109.68231757
_cell_angle_gamma   109.04984672
_symmetry_Int_Tables_number   1
_chemical_formula_structural   Ca(PrS2)2
_chemical_formula_sum   'Ca2 Pr4 S8'
_cell_volume   321.28573522
_cell_formula_units_Z   2
loop_
 _symmetry_equiv_pos_site_id
 _symmetry_equiv_pos_as_xyz
  1  'x, y, z'
loop_
 _atom_site_type_symbol
 _atom_site_label
 _atom_site_symmetry_multiplicity
 _atom_site_fract_x
 _atom_site_fract_y
 _atom_site_fract_z
 _atom_site_occupancy
  Ca  Ca0  1  0.00000000  -0.00000000  -0.00000000  1
  Ca  Ca1  1  0.75000000  0.25000000  0.50000000  1
  Pr  Pr2  1  0.37500000  0.75416572  0.87916572  1
  Pr  Pr3  1  0.24583428  0.12500000  0.62083428  1
  Pr  Pr4  1  0.87500000  0.49583428  0.12083428  1
  Pr  Pr5  1  0.50416572  0.62500000  0.37916572  1
  S  S6  1  0.48418683  0.23129356  0.10684417  1
  S  S7  1  0.62555061  0.01870644  0.75289327  1
  S  S8  1  0.76870644  0.87555061  0.25289327  1
  S  S9  1  0.12734267  0.37444939  0.39315583  1
  S  S10  1  0.26581317  0.87265733  0.24710673  1
  S  S11  1  0.62265733  0.51581317  0.74710673  1
  S  S12  1  0.12444939  0.37734267  0.89315583  1
  S  S13  1  0.98129356  0.73418683  0.60684417  1
