# generated using pymatgen
data_Rb2SO4
_symmetry_space_group_name_H-M   'P 1'
_cell_length_a   5.96313236
_cell_length_b   7.79130404
_cell_length_c   10.41385778
_cell_angle_alpha   90.00000000
_cell_angle_beta   90.00000000
_cell_angle_gamma   90.00000000
_symmetry_Int_Tables_number   1
_chemical_formula_structural   Rb2SO4
_chemical_formula_sum   'Rb8 S4 O16'
_cell_volume   483.83384383
_cell_formula_units_Z   4
loop_
 _symmetry_equiv_pos_site_id
 _symmetry_equiv_pos_as_xyz
  1  'x, y, z'
loop_
 _atom_site_type_symbol
 _atom_site_label
 _atom_site_symmetry_multiplicity
 _atom_site_fract_x
 _atom_site_fract_y
 _atom_site_fract_z
 _atom_site_occupancy
  Rb  Rb0  1  0.75000000  0.01090095  0.70120058  1
  Rb  Rb1  1  0.25000000  0.98909905  0.29879942  1
  Rb  Rb2  1  0.75000000  0.51090095  0.79879942  1
  Rb  Rb3  1  0.25000000  0.48909905  0.20120058  1
  Rb  Rb4  1  0.25000000  0.67192796  0.59010240  1
  Rb  Rb5  1  0.75000000  0.32807204  0.40989760  1
  Rb  Rb6  1  0.25000000  0.17192796  0.90989760  1
  Rb  Rb7  1  0.75000000  0.82807204  0.09010240  1
  S  S8  1  0.25000000  0.23597213  0.58192244  1
  S  S9  1  0.75000000  0.76402787  0.41807756  1
  S  S10  1  0.25000000  0.73597213  0.91807756  1
  S  S11  1  0.75000000  0.26402787  0.08192244  1
  O  O12  1  0.54718292  0.69801817  0.35212137  1
  O  O13  1  0.04718292  0.30198183  0.64787863  1
  O  O14  1  0.95281708  0.19801817  0.14787863  1
  O  O15  1  0.45281708  0.80198183  0.85212137  1
  O  O16  1  0.45281708  0.30198183  0.64787863  1
  O  O17  1  0.95281708  0.69801817  0.35212137  1
  O  O18  1  0.04718292  0.80198183  0.85212137  1
  O  O19  1  0.54718292  0.19801817  0.14787863  1
  O  O20  1  0.25000000  0.29940092  0.44740268  1
  O  O21  1  0.75000000  0.70059908  0.55259732  1
  O  O22  1  0.25000000  0.79940092  0.05259732  1
  O  O23  1  0.75000000  0.20059908  0.94740268  1
  O  O24  1  0.75000000  0.45327979  0.08478236  1
  O  O25  1  0.25000000  0.54672021  0.91521764  1
  O  O26  1  0.75000000  0.95327979  0.41521764  1
  O  O27  1  0.25000000  0.04672021  0.58478236  1
