# generated using pymatgen
data_Mg(IO3)2
_symmetry_space_group_name_H-M   'P 1'
_cell_length_a   5.50180822
_cell_length_b   10.91962798
_cell_length_c   5.06770566
_cell_angle_alpha   90.00000000
_cell_angle_beta   90.00000000
_cell_angle_gamma   119.97345242
_symmetry_Int_Tables_number   1
_chemical_formula_structural   Mg(IO3)2
_chemical_formula_sum   'Mg2 I4 O12'
_cell_volume   263.73721809
_cell_formula_units_Z   2
loop_
 _symmetry_equiv_pos_site_id
 _symmetry_equiv_pos_as_xyz
  1  'x, y, z'
loop_
 _atom_site_type_symbol
 _atom_site_label
 _atom_site_symmetry_multiplicity
 _atom_site_fract_x
 _atom_site_fract_y
 _atom_site_fract_z
 _atom_site_occupancy
  Mg  Mg0  1  0.98830596  0.50452554  0.92065102  1
  Mg  Mg1  1  0.01169404  0.99547446  0.42065102  1
  I  I2  1  0.36783372  0.84987160  0.00654082  1
  I  I3  1  0.63216628  0.65012840  0.50654082  1
  I  I4  1  0.30581068  0.31733114  0.98932436  1
  I  I5  1  0.69418932  0.18266886  0.48932436  1
  O  O6  1  0.30978106  0.97100131  0.20529932  1
  O  O7  1  0.08977433  0.68404111  0.13589187  1
  O  O8  1  0.34377226  0.64261670  0.69400496  1
  O  O9  1  0.65622774  0.85738330  0.19400496  1
  O  O10  1  0.22329876  0.44241982  0.14399389  1
  O  O11  1  0.08702959  0.16981982  0.20244796  1
  O  O12  1  0.91022567  0.81595889  0.63589187  1
  O  O13  1  0.69021894  0.52899869  0.70529932  1
  O  O14  1  0.36103545  0.12393852  0.65484879  1
  O  O15  1  0.63896455  0.37606148  0.15484879  1
  O  O16  1  0.91297041  0.33018018  0.70244796  1
  O  O17  1  0.77670124  0.05758018  0.64399389  1
