# generated using pymatgen
data_Li10Zn4O9
_symmetry_space_group_name_H-M   'P 1'
_cell_length_a   9.66072755
_cell_length_b   9.66072755
_cell_length_c   4.62300499
_cell_angle_alpha   90.00000000
_cell_angle_beta   90.00000000
_cell_angle_gamma   90.00000000
_symmetry_Int_Tables_number   1
_chemical_formula_structural   Li10Zn4O9
_chemical_formula_sum   'Li20 Zn8 O18'
_cell_volume   431.46346908
_cell_formula_units_Z   2
loop_
 _symmetry_equiv_pos_site_id
 _symmetry_equiv_pos_as_xyz
  1  'x, y, z'
loop_
 _atom_site_type_symbol
 _atom_site_label
 _atom_site_symmetry_multiplicity
 _atom_site_fract_x
 _atom_site_fract_y
 _atom_site_fract_z
 _atom_site_occupancy
  Li  Li0  1  0.64450587  0.18744805  0.29071241  1
  Li  Li1  1  0.35549413  0.81255195  0.29071241  1
  Li  Li2  1  0.31255195  0.14450587  0.79071241  1
  Li  Li3  1  0.68744805  0.85549413  0.79071241  1
  Li  Li4  1  0.18744805  0.64450587  0.70928759  1
  Li  Li5  1  0.14450587  0.31255195  0.20928759  1
  Li  Li6  1  0.85549413  0.68744805  0.20928759  1
  Li  Li7  1  0.81255195  0.35549413  0.70928759  1
  Li  Li8  1  0.18744805  0.35549413  0.70928759  1
  Li  Li9  1  0.81255195  0.64450587  0.70928759  1
  Li  Li10  1  0.31255195  0.85549413  0.79071241  1
  Li  Li11  1  0.35549413  0.18744805  0.29071241  1
  Li  Li12  1  0.64450587  0.81255195  0.29071241  1
  Li  Li13  1  0.68744805  0.14450587  0.79071241  1
  Li  Li14  1  -0.00000000  0.50000000  0.16911818  1
  Li  Li15  1  -0.00000000  0.50000000  0.66911818  1
  Li  Li16  1  0.50000000  -0.00000000  0.33088182  1
  Li  Li17  1  0.50000000  -0.00000000  0.83088182  1
  Li  Li18  1  0.14450587  0.68744805  0.20928759  1
  Li  Li19  1  0.85549413  0.31255195  0.20928759  1
  Zn  Zn20  1  0.66190559  0.50000000  0.23135998  1
  Zn  Zn21  1  0.33809441  0.50000000  0.23135998  1
  Zn  Zn22  1  -0.00000000  0.16190559  0.73135998  1
  Zn  Zn23  1  -0.00000000  0.83809441  0.73135998  1
  Zn  Zn24  1  0.50000000  0.66190559  0.76864002  1
  Zn  Zn25  1  0.16190559  -0.00000000  0.26864002  1
  Zn  Zn26  1  0.83809441  -0.00000000  0.26864002  1
  Zn  Zn27  1  0.50000000  0.33809441  0.76864002  1
  O  O28  1  0.17415350  0.17415350  0.50000000  1
  O  O29  1  0.32584650  0.67415350  0.00000000  1
  O  O30  1  0.82584650  0.17415350  0.50000000  1
  O  O31  1  0.67415350  0.67415350  0.00000000  1
  O  O32  1  0.32584650  0.32584650  0.00000000  1
  O  O33  1  0.17415350  0.82584650  0.50000000  1
  O  O34  1  0.50000000  0.50000000  0.50000000  1
  O  O35  1  -0.00000000  -0.00000000  0.00000000  1
  O  O36  1  0.65740603  -0.00000000  0.06956648  1
  O  O37  1  0.34259397  -0.00000000  0.06956648  1
  O  O38  1  0.50000000  0.15740603  0.56956648  1
  O  O39  1  0.50000000  0.84259397  0.56956648  1
  O  O40  1  -0.00000000  0.65740603  0.93043352  1
  O  O41  1  0.15740603  0.50000000  0.43043352  1
  O  O42  1  0.84259397  0.50000000  0.43043352  1
  O  O43  1  -0.00000000  0.34259397  0.93043352  1
  O  O44  1  0.67415350  0.32584650  0.00000000  1
  O  O45  1  0.82584650  0.82584650  0.50000000  1
