# generated using pymatgen
data_Ba2SnO4
_symmetry_space_group_name_H-M   'P 1'
_cell_length_a   4.17178727
_cell_length_b   4.17178703
_cell_length_c   7.31943990
_cell_angle_alpha   106.55763022
_cell_angle_beta   106.55764445
_cell_angle_gamma   89.99999889
_symmetry_Int_Tables_number   1
_chemical_formula_structural   Ba2SnO4
_chemical_formula_sum   'Ba2 Sn1 O4'
_cell_volume   116.58253493
_cell_formula_units_Z   1
loop_
 _symmetry_equiv_pos_site_id
 _symmetry_equiv_pos_as_xyz
  1  'x, y, z'
loop_
 _atom_site_type_symbol
 _atom_site_label
 _atom_site_symmetry_multiplicity
 _atom_site_fract_x
 _atom_site_fract_y
 _atom_site_fract_z
 _atom_site_occupancy
  Ba  Ba0  1  0.64604746  0.64604746  0.29209592  1
  Ba  Ba1  1  0.35395254  0.35395254  0.70790408  1
  Sn  Sn2  1  -0.00000000  -0.00000000  0.00000000  1
  O  O3  1  0.84533587  0.84533587  0.69067074  1
  O  O4  1  0.15466413  0.15466413  0.30932926  1
  O  O5  1  0.50000000  -0.00000000  0.00000000  1
  O  O6  1  -0.00000000  0.50000000  0.00000000  1
