# generated using pymatgen
data_Ca(NdS2)2
_symmetry_space_group_name_H-M   'P 1'
_cell_length_a   7.43014477
_cell_length_b   7.43014315
_cell_length_c   7.43014114
_cell_angle_alpha   109.64737482
_cell_angle_beta   109.64738761
_cell_angle_gamma   109.11942902
_symmetry_Int_Tables_number   1
_chemical_formula_structural   Ca(NdS2)2
_chemical_formula_sum   'Ca2 Nd4 S8'
_cell_volume   315.76034370
_cell_formula_units_Z   2
loop_
 _symmetry_equiv_pos_site_id
 _symmetry_equiv_pos_as_xyz
  1  'x, y, z'
loop_
 _atom_site_type_symbol
 _atom_site_label
 _atom_site_symmetry_multiplicity
 _atom_site_fract_x
 _atom_site_fract_y
 _atom_site_fract_z
 _atom_site_occupancy
  Ca  Ca0  1  0.50000027  0.50000064  0.00000018  1
  Ca  Ca1  1  0.25000037  0.75000034  0.49999998  1
  Nd  Nd2  1  0.37499988  0.99592577  0.12092548  1
  Nd  Nd3  1  0.00407455  0.12500018  0.37907457  1
  Nd  Nd4  1  0.87500005  0.25407442  0.87907472  1
  Nd  Nd5  1  0.74592571  0.62499980  0.62092553  1
  S  S6  1  0.62583929  0.87821593  0.89363701  1
  S  S7  1  0.62821610  0.87583917  0.39363705  1
  S  S8  1  0.12178351  0.01542019  0.74762288  1
  S  S9  1  0.48220270  0.23457944  0.60636328  1
  S  S10  1  0.76542035  0.37178350  0.24762301  1
  S  S11  1  0.12416048  0.51779731  0.75237656  1
  S  S12  1  0.26779740  0.37416069  0.25237657  1
  S  S13  1  0.98457932  0.73220262  0.10636318  1
