# generated using pymatgen
data_Bi4I2O5
_symmetry_space_group_name_H-M   'P 1'
_cell_length_a   5.73286331
_cell_length_b   11.37422436
_cell_length_c   15.04209565
_cell_angle_alpha   79.84467853
_cell_angle_beta   90.00000000
_cell_angle_gamma   90.00000000
_symmetry_Int_Tables_number   1
_chemical_formula_structural   Bi4I2O5
_chemical_formula_sum   'Bi16 I8 O20'
_cell_volume   965.48147168
_cell_formula_units_Z   4
loop_
 _symmetry_equiv_pos_site_id
 _symmetry_equiv_pos_as_xyz
  1  'x, y, z'
loop_
 _atom_site_type_symbol
 _atom_site_label
 _atom_site_symmetry_multiplicity
 _atom_site_fract_x
 _atom_site_fract_y
 _atom_site_fract_z
 _atom_site_occupancy
  Bi  Bi0  1  0.24880581  0.77304133  0.14511515  1
  Bi  Bi1  1  0.74880581  0.22695867  0.85488485  1
  Bi  Bi2  1  0.74983630  0.62525504  0.29728793  1
  Bi  Bi3  1  0.24983630  0.37474496  0.70271207  1
  Bi  Bi4  1  0.19715088  0.72958204  0.88453617  1
  Bi  Bi5  1  0.69715088  0.27041796  0.11546383  1
  Bi  Bi6  1  0.63617401  0.58919309  0.04266383  1
  Bi  Bi7  1  0.13617401  0.41080691  0.95733617  1
  Bi  Bi8  1  0.16510538  0.42952527  0.21330853  1
  Bi  Bi9  1  0.66510538  0.57047473  0.78669147  1
  Bi  Bi10  1  0.73617647  0.26700086  0.36370464  1
  Bi  Bi11  1  0.23617647  0.73299914  0.63629536  1
  Bi  Bi12  1  0.24641935  0.07385845  0.53997050  1
  Bi  Bi13  1  0.74641935  0.92614155  0.46002950  1
  Bi  Bi14  1  0.74374750  0.90697798  0.70495993  1
  Bi  Bi15  1  0.24374750  0.09302202  0.29504007  1
  I  I16  1  0.25220329  0.77533906  0.38400749  1
  I  I17  1  0.75220329  0.22466094  0.61599251  1
  I  I18  1  0.77415932  0.60422489  0.55897805  1
  I  I19  1  0.27415932  0.39577511  0.44102195  1
  I  I20  1  0.75013706  0.94453470  0.22121099  1
  I  I21  1  0.76214543  0.87907344  0.95373340  1
  I  I22  1  0.26214543  0.12092656  0.04626660  1
  I  I23  1  0.25013706  0.05546530  0.77878901  1
  O  O24  1  0.28279774  0.68257297  0.03431451  1
  O  O25  1  0.78279774  0.31742703  0.96568549  1
  O  O26  1  0.00679591  0.63844413  0.19414988  1
  O  O27  1  0.50679591  0.36155587  0.80585012  1
  O  O28  1  0.50609360  0.64003622  0.19002295  1
  O  O29  1  0.00609360  0.35996378  0.80997705  1
  O  O30  1  0.79847769  0.44590242  0.28123089  1
  O  O31  1  0.29847769  0.55409758  0.71876911  1
  O  O32  1  0.95702878  0.42096593  0.09343721  1
  O  O33  1  0.45702878  0.57903407  0.90656279  1
  O  O34  1  0.45392912  0.41999203  0.08867763  1
  O  O35  1  0.95392912  0.58000797  0.91132237  1
  O  O36  1  0.98733015  0.92414899  0.58019378  1
  O  O37  1  0.48733015  0.07585101  0.41980622  1
  O  O38  1  0.50625065  0.92214610  0.58101057  1
  O  O39  1  0.00625065  0.07785390  0.41898943  1
  O  O40  1  0.48221043  0.24733221  0.26000446  1
  O  O41  1  0.49582715  0.75569997  0.74391863  1
  O  O42  1  0.99582715  0.24430003  0.25608137  1
  O  O43  1  0.98221043  0.75266779  0.73999554  1
