# generated using pymatgen
data_KSb3O5
_symmetry_space_group_name_H-M   'P 1'
_cell_length_a   13.96369204
_cell_length_b   6.98414635
_cell_length_c   7.93191141
_cell_angle_alpha   60.10862630
_cell_angle_beta   90.00000000
_cell_angle_gamma   90.00000000
_symmetry_Int_Tables_number   1
_chemical_formula_structural   KSb3O5
_chemical_formula_sum   'K4 Sb12 O20'
_cell_volume   670.65075106
_cell_formula_units_Z   4
loop_
 _symmetry_equiv_pos_site_id
 _symmetry_equiv_pos_as_xyz
  1  'x, y, z'
loop_
 _atom_site_type_symbol
 _atom_site_label
 _atom_site_symmetry_multiplicity
 _atom_site_fract_x
 _atom_site_fract_y
 _atom_site_fract_z
 _atom_site_occupancy
  K  K0  1  0.24248229  0.94960113  0.95182818  1
  K  K1  1  0.74248229  0.05039887  0.54817182  1
  K  K2  1  0.75751771  0.05039887  0.04817182  1
  K  K3  1  0.25751771  0.94960113  0.45182818  1
  Sb  Sb4  1  0.60160945  0.53863482  0.63605513  1
  Sb  Sb5  1  0.10160945  0.46136518  0.86394487  1
  Sb  Sb6  1  0.39839055  0.46136518  0.36394487  1
  Sb  Sb7  1  0.89839055  0.53863482  0.13605513  1
  Sb  Sb8  1  0.01305609  0.98752412  0.21319971  1
  Sb  Sb9  1  0.51305609  0.01247588  0.28680029  1
  Sb  Sb10  1  0.98694391  0.01247588  0.78680029  1
  Sb  Sb11  1  0.48694391  0.98752412  0.71319971  1
  Sb  Sb12  1  0.64177676  0.51059168  0.07942659  1
  Sb  Sb13  1  0.14177676  0.48940832  0.42057341  1
  Sb  Sb14  1  0.35822324  0.48940832  0.92057341  1
  Sb  Sb15  1  0.85822324  0.51059168  0.57942659  1
  O  O16  1  0.13109180  0.17762611  0.10785241  1
  O  O17  1  0.63109180  0.82237389  0.39214759  1
  O  O18  1  0.86890820  0.82237389  0.89214759  1
  O  O19  1  0.36890820  0.17762611  0.60785241  1
  O  O20  1  0.15415855  0.33175686  0.71014873  1
  O  O21  1  0.65415855  0.66824314  0.78985127  1
  O  O22  1  0.84584145  0.66824314  0.28985127  1
  O  O23  1  0.34584145  0.33175686  0.21014873  1
  O  O24  1  0.09577500  0.74358175  0.43728824  1
  O  O25  1  0.59577500  0.25641825  0.06271176  1
  O  O26  1  0.90422500  0.25641825  0.56271176  1
  O  O27  1  0.40422500  0.74358175  0.93728824  1
  O  O28  1  0.46150898  0.80373687  0.59093410  1
  O  O29  1  0.96150898  0.19626313  0.90906590  1
  O  O30  1  0.53849102  0.19626313  0.40906590  1
  O  O31  1  0.03849102  0.80373687  0.09093410  1
  O  O32  1  0.27336110  0.60961530  0.36005250  1
  O  O33  1  0.77336110  0.39038470  0.13994750  1
  O  O34  1  0.72663890  0.39038470  0.63994750  1
  O  O35  1  0.22663890  0.60961530  0.86005250  1
