# generated using pymatgen
data_LaB5O9
_symmetry_space_group_name_H-M   'P 1'
_cell_length_a   11.71303473
_cell_length_b   6.44949588
_cell_length_c   8.18461678
_cell_angle_alpha   74.80175299
_cell_angle_beta   89.99889075
_cell_angle_gamma   89.99871502
_symmetry_Int_Tables_number   1
_chemical_formula_structural   LaB5O9
_chemical_formula_sum   'La4 B20 O36'
_cell_volume   596.66683157
_cell_formula_units_Z   4
loop_
 _symmetry_equiv_pos_site_id
 _symmetry_equiv_pos_as_xyz
  1  'x, y, z'
loop_
 _atom_site_type_symbol
 _atom_site_label
 _atom_site_symmetry_multiplicity
 _atom_site_fract_x
 _atom_site_fract_y
 _atom_site_fract_z
 _atom_site_occupancy
  La  La0  1  0.67431471  0.75024663  0.35870906  1
  La  La1  1  0.17430169  0.24974797  0.14131663  1
  La  La2  1  0.32562103  0.24977900  0.64134754  1
  La  La3  1  0.82572147  0.75024561  0.85871945  1
  B  B4  1  0.24855447  0.77447203  0.16959388  1
  B  B5  1  0.74853295  0.22553569  0.33039649  1
  B  B6  1  0.75144664  0.22552736  0.83039754  1
  B  B7  1  0.25147067  0.77447099  0.66959182  1
  B  B8  1  0.62935954  0.18781142  0.59114217  1
  B  B9  1  0.12938335  0.81218696  0.90886250  1
  B  B10  1  0.40222116  0.51789665  0.27486598  1
  B  B11  1  0.90220408  0.48208101  0.22513838  1
  B  B12  1  0.59777995  0.48209624  0.72513513  1
  B  B13  1  0.09779581  0.51791573  0.77486620  1
  B  B14  1  0.94535027  0.71038776  0.54538959  1
  B  B15  1  0.44534187  0.28960884  0.95462014  1
  B  B16  1  0.05464980  0.28961884  0.45461106  1
  B  B17  1  0.55466324  0.71039552  0.04538015  1
  B  B18  1  0.46541454  0.14624970  0.25578528  1
  B  B19  1  0.96540172  0.85374754  0.24421126  1
  B  B20  1  0.53458517  0.85375674  0.74421049  1
  B  B21  1  0.03459914  0.14625225  0.75578400  1
  B  B22  1  0.37064037  0.81218237  0.40885484  1
  B  B23  1  0.87061628  0.18780648  0.09113383  1
  O  O24  1  0.47532000  0.93287459  0.33904351  1
  O  O25  1  0.16726893  0.24128205  0.45248160  1
  O  O26  1  0.33271894  0.24125912  0.95251211  1
  O  O27  1  0.83273405  0.75872183  0.54752554  1
  O  O28  1  0.98696895  0.22056082  0.59700709  1
  O  O29  1  0.48696206  0.77943073  0.90299953  1
  O  O30  1  0.01303203  0.77944175  0.40299053  1
  O  O31  1  0.66728370  0.75874024  0.04749342  1
  O  O32  1  0.19879799  0.58736052  0.66366109  1
  O  O33  1  0.69878702  0.41264760  0.83633584  1
  O  O34  1  0.97529701  0.06711407  0.16094521  1
  O  O35  1  0.30121370  0.58735254  0.16365913  1
  O  O36  1  0.33982900  0.86281614  0.56610826  1
  O  O37  1  0.83981524  0.13718087  0.93388106  1
  O  O38  1  0.66017202  0.13718664  0.43388119  1
  O  O39  1  0.16018688  0.86281966  0.06611150  1
  O  O40  1  0.22149335  0.88991286  0.78185400  1
  O  O41  1  0.72147972  0.11007228  0.71814406  1
  O  O42  1  0.77850678  0.11008608  0.21813889  1
  O  O43  1  0.27852112  0.88992649  0.28184950  1
  O  O44  1  0.52467885  0.06712566  0.66094782  1
  O  O45  1  0.02470589  0.93288375  0.83904464  1
  O  O46  1  0.40094381  0.27929953  0.32555466  1
  O  O47  1  0.90093477  0.72069020  0.17444643  1
  O  O48  1  0.59905062  0.72069807  0.67443662  1
  O  O49  1  0.80120508  0.41264030  0.33633629  1
  O  O50  1  0.51006597  0.59926753  0.19845964  1
  O  O51  1  0.01004883  0.40072624  0.30153672  1
  O  O52  1  0.48993269  0.40073113  0.80154112  1
  O  O53  1  0.98995729  0.59926842  0.69846310  1
  O  O54  1  0.38741370  0.58428157  0.43115336  1
  O  O55  1  0.88740922  0.41570876  0.06884302  1
  O  O56  1  0.61258687  0.41571472  0.56884729  1
  O  O57  1  0.11259380  0.58428546  0.93115795  1
  O  O58  1  0.51304190  0.22057000  0.09699859  1
  O  O59  1  0.09907335  0.27930347  0.82554734  1
