# generated using pymatgen
data_Rb2PdSe16
_symmetry_space_group_name_H-M   'P 1'
_cell_length_a   12.82365406
_cell_length_b   12.82365406
_cell_length_c   7.03901255
_cell_angle_alpha   90.00000000
_cell_angle_beta   90.00000000
_cell_angle_gamma   90.00000000
_symmetry_Int_Tables_number   1
_chemical_formula_structural   Rb2PdSe16
_chemical_formula_sum   'Rb4 Pd2 Se32'
_cell_volume   1157.53818599
_cell_formula_units_Z   2
loop_
 _symmetry_equiv_pos_site_id
 _symmetry_equiv_pos_as_xyz
  1  'x, y, z'
loop_
 _atom_site_type_symbol
 _atom_site_label
 _atom_site_symmetry_multiplicity
 _atom_site_fract_x
 _atom_site_fract_y
 _atom_site_fract_z
 _atom_site_occupancy
  Rb  Rb0  1  0.50000000  0.00000000  0.00000000  1
  Rb  Rb1  1  -0.00000000  0.50000000  0.00000000  1
  Rb  Rb2  1  0.50000000  0.50000000  0.50000000  1
  Rb  Rb3  1  -0.00000000  0.00000000  0.50000000  1
  Pd  Pd4  1  -0.00000000  0.00000000  0.00000000  1
  Pd  Pd5  1  0.50000000  0.50000000  0.00000000  1
  Se  Se6  1  0.19073905  0.42247205  0.58686698  1
  Se  Se7  1  0.80926095  0.57752795  0.58686698  1
  Se  Se8  1  0.57752795  0.19073905  0.41313302  1
  Se  Se9  1  0.42247205  0.80926095  0.41313302  1
  Se  Se10  1  0.30926095  0.92247205  0.58686698  1
  Se  Se11  1  0.07752795  0.30926095  0.41313302  1
  Se  Se12  1  0.81258594  0.96550557  0.96671170  1
  Se  Se13  1  0.03449443  0.81258594  0.03328830  1
  Se  Se14  1  0.96550557  0.18741406  0.03328830  1
  Se  Se15  1  0.18741406  0.03449443  0.96671170  1
  Se  Se16  1  0.53449443  0.68741406  0.03328830  1
  Se  Se17  1  0.46550557  0.31258594  0.03328830  1
  Se  Se18  1  0.68741406  0.46550557  0.96671170  1
  Se  Se19  1  0.31258594  0.53449443  0.96671170  1
  Se  Se20  1  0.78980438  0.20418512  0.12799247  1
  Se  Se21  1  0.79581488  0.78980438  0.87200753  1
  Se  Se22  1  0.20418512  0.21019562  0.87200753  1
  Se  Se23  1  0.21019562  0.79581488  0.12799247  1
  Se  Se24  1  0.29581488  0.71019562  0.87200753  1
  Se  Se25  1  0.70418512  0.28980438  0.87200753  1
  Se  Se26  1  0.71019562  0.70418512  0.12799247  1
  Se  Se27  1  0.28980438  0.29581488  0.12799247  1
  Se  Se28  1  0.92007562  0.30881796  0.58923959  1
  Se  Se29  1  0.69118204  0.92007562  0.41076041  1
  Se  Se30  1  0.30881796  0.07992438  0.41076041  1
  Se  Se31  1  0.07992438  0.69118204  0.58923959  1
  Se  Se32  1  0.19118204  0.57992438  0.41076041  1
  Se  Se33  1  0.80881796  0.42007562  0.41076041  1
  Se  Se34  1  0.57992438  0.80881796  0.58923959  1
  Se  Se35  1  0.42007562  0.19118204  0.58923959  1
  Se  Se36  1  0.69073905  0.07752795  0.58686698  1
  Se  Se37  1  0.92247205  0.69073905  0.41313302  1
