# generated using pymatgen
data_In2PO5
_symmetry_space_group_name_H-M   'P 1'
_cell_length_a   5.25824974
_cell_length_b   6.37209476
_cell_length_c   6.82692063
_cell_angle_alpha   107.63543626
_cell_angle_beta   109.28087678
_cell_angle_gamma   95.74057379
_symmetry_Int_Tables_number   1
_chemical_formula_structural   In2PO5
_chemical_formula_sum   'In4 P2 O10'
_cell_volume   200.61276753
_cell_formula_units_Z   2
loop_
 _symmetry_equiv_pos_site_id
 _symmetry_equiv_pos_as_xyz
  1  'x, y, z'
loop_
 _atom_site_type_symbol
 _atom_site_label
 _atom_site_symmetry_multiplicity
 _atom_site_fract_x
 _atom_site_fract_y
 _atom_site_fract_z
 _atom_site_occupancy
  In  In0  1  0.56880499  0.78816110  0.01233258  1
  In  In1  1  0.43119501  0.21183890  0.98766642  1
  In  In2  1  0.16772267  0.63164259  0.27083223  1
  In  In3  1  0.83227733  0.36835741  0.72916777  1
  P  P4  1  0.16539134  0.18035181  0.39525225  1
  P  P5  1  0.83460866  0.81964819  0.60474775  1
  O  O6  1  0.39748107  0.19323621  0.60967531  1
  O  O7  1  0.60251893  0.80676379  0.39032469  1
  O  O8  1  0.92141598  0.26705726  0.43686033  1
  O  O9  1  0.07858402  0.73294274  0.56313967  1
  O  O10  1  0.29106652  0.32449754  0.28897352  1
  O  O11  1  0.70893348  0.67550246  0.71102648  1
  O  O12  1  0.05652295  0.93663889  0.22497476  1
  O  O13  1  0.94347705  0.06336111  0.77502524  1
  O  O14  1  0.24406505  0.51344066  0.96366338  1
  O  O15  1  0.75593495  0.48655934  0.03633662  1
