# generated using pymatgen
data_Co(NO3)2
_symmetry_space_group_name_H-M   'P 1'
_cell_length_a   7.36700151
_cell_length_b   7.33944675
_cell_length_c   7.38024412
_cell_angle_alpha   89.96687786
_cell_angle_beta   90.07723522
_cell_angle_gamma   90.07330487
_symmetry_Int_Tables_number   1
_chemical_formula_structural   Co(NO3)2
_chemical_formula_sum   'Co4 N8 O24'
_cell_volume   399.04694303
_cell_formula_units_Z   4
loop_
 _symmetry_equiv_pos_site_id
 _symmetry_equiv_pos_as_xyz
  1  'x, y, z'
loop_
 _atom_site_type_symbol
 _atom_site_label
 _atom_site_symmetry_multiplicity
 _atom_site_fract_x
 _atom_site_fract_y
 _atom_site_fract_z
 _atom_site_occupancy
  Co  Co0  1  0.00000000  -0.00000000  -0.00000000  1
  Co  Co1  1  0.00000000  0.50000000  0.50000000  1
  Co  Co2  1  0.50000000  0.50000000  -0.00000000  1
  Co  Co3  1  0.50000000  -0.00000000  0.50000000  1
  N  N4  1  0.33478898  0.33531952  0.33502908  1
  N  N5  1  0.83917664  0.15851932  0.65036835  1
  N  N6  1  0.15955550  0.65124531  0.83870151  1
  N  N7  1  0.64996955  0.84047627  0.15910926  1
  N  N8  1  0.16082336  0.84148068  0.34963165  1
  N  N9  1  0.66521102  0.66468048  0.66497092  1
  N  N10  1  0.35003045  0.15952373  0.84089074  1
  N  N11  1  0.84044450  0.34875469  0.16129849  1
  O  O12  1  0.98666739  0.24222694  0.62550873  1
  O  O13  1  0.01333261  0.75777306  0.37449127  1
  O  O14  1  0.62485877  0.98737190  0.24317219  1
  O  O15  1  0.24344055  0.62627302  0.98556596  1
  O  O16  1  0.32970894  0.21816064  0.45893374  1
  O  O17  1  0.45820403  0.32977938  0.21814262  1
  O  O18  1  0.21757241  0.45909903  0.32939139  1
  O  O19  1  0.67029106  0.78183936  0.54106626  1
  O  O20  1  0.54179597  0.67022062  0.78185738  1
  O  O21  1  0.78242759  0.54090097  0.67060861  1
  O  O22  1  0.71204331  0.17710552  0.53755179  1
  O  O23  1  0.53849348  0.71170034  0.17740881  1
  O  O24  1  0.17694994  0.53802305  0.71198390  1
  O  O25  1  0.28795669  0.82289448  0.46244821  1
  O  O26  1  0.46150652  0.28829966  0.82259119  1
  O  O27  1  0.82305006  0.46197695  0.28801610  1
  O  O28  1  0.18100690  0.94337231  0.21434507  1
  O  O29  1  0.21579954  0.17723407  0.94474644  1
  O  O30  1  0.94275200  0.21296662  0.18084932  1
  O  O31  1  0.81899310  0.05662769  0.78565493  1
  O  O32  1  0.78420046  0.82276593  0.05525356  1
  O  O33  1  0.05724800  0.78703338  0.81915068  1
  O  O34  1  0.37514123  0.01262810  0.75682781  1
  O  O35  1  0.75655945  0.37372698  0.01443404  1
