# generated using pymatgen
data_Ba(PrSe2)2
_symmetry_space_group_name_H-M   'P 1'
_cell_length_a   8.01594619
_cell_length_b   8.01589880
_cell_length_c   8.01597170
_cell_angle_alpha   109.38486750
_cell_angle_beta   109.38419247
_cell_angle_gamma   109.64471320
_symmetry_Int_Tables_number   1
_chemical_formula_structural   Ba(PrSe2)2
_chemical_formula_sum   'Ba2 Pr4 Se8'
_cell_volume   396.49568603
_cell_formula_units_Z   2
loop_
 _symmetry_equiv_pos_site_id
 _symmetry_equiv_pos_as_xyz
  1  'x, y, z'
loop_
 _atom_site_type_symbol
 _atom_site_label
 _atom_site_symmetry_multiplicity
 _atom_site_fract_x
 _atom_site_fract_y
 _atom_site_fract_z
 _atom_site_occupancy
  Ba  Ba0  1  0.24999311  0.74999288  0.49999730  1
  Ba  Ba1  1  -0.00000309  -0.00000221  0.00000248  1
  Pr  Pr2  1  0.74849747  0.37495879  0.87351875  1
  Pr  Pr3  1  0.62503477  0.49855652  0.37354238  1
  Pr  Pr4  1  0.50143954  0.87498235  0.12648569  1
  Pr  Pr5  1  0.12501728  0.25150077  0.62646112  1
  Se  Se6  1  0.39036136  0.14427220  0.90801551  1
  Se  Se7  1  0.73233133  0.98618602  0.59208845  1
  Se  Se8  1  0.51770466  0.60964392  0.75391932  1
  Se  Se9  1  0.23624273  0.48232783  0.09196566  1
  Se  Se10  1  0.39408996  0.14024601  0.40791427  1
  Se  Se11  1  0.85976335  0.26766282  0.25383795  1
  Se  Se12  1  0.01381704  0.60591936  0.74616118  1
  Se  Se13  1  0.85571047  0.76375273  0.24608995  1
