# generated using pymatgen
data_Cd2Te2O7
_symmetry_space_group_name_H-M   'P 1'
_cell_length_a   7.43607704
_cell_length_b   8.35684742
_cell_length_c   10.01980846
_cell_angle_alpha   87.01042318
_cell_angle_beta   78.91009836
_cell_angle_gamma   77.22066207
_symmetry_Int_Tables_number   1
_chemical_formula_structural   Cd2Te2O7
_chemical_formula_sum   'Cd8 Te8 O28'
_cell_volume   595.85987429
_cell_formula_units_Z   4
loop_
 _symmetry_equiv_pos_site_id
 _symmetry_equiv_pos_as_xyz
  1  'x, y, z'
loop_
 _atom_site_type_symbol
 _atom_site_label
 _atom_site_symmetry_multiplicity
 _atom_site_fract_x
 _atom_site_fract_y
 _atom_site_fract_z
 _atom_site_occupancy
  Cd  Cd0  1  0.18998638  0.34741450  0.89169729  1
  Cd  Cd1  1  0.81001362  0.65258550  0.10830271  1
  Cd  Cd2  1  0.25623419  0.49071142  0.49241737  1
  Cd  Cd3  1  0.74376581  0.50928858  0.50758263  1
  Cd  Cd4  1  0.30854258  0.62485997  0.11344618  1
  Cd  Cd5  1  0.69145742  0.37514003  0.88655382  1
  Cd  Cd6  1  0.50000000  -0.00000000  -0.00000000  1
  Cd  Cd7  1  0.00000000  -0.00000000  -0.00000000  1
  Te  Te8  1  0.04260484  0.16583045  0.64559137  1
  Te  Te9  1  0.95739516  0.83416955  0.35440863  1
  Te  Te10  1  0.12054584  0.26799220  0.23433576  1
  Te  Te11  1  0.87945416  0.73200780  0.76566424  1
  Te  Te12  1  0.55955463  0.10308766  0.65031390  1
  Te  Te13  1  0.44044537  0.89691234  0.34968610  1
  Te  Te14  1  0.62406369  0.27513732  0.22754770  1
  Te  Te15  1  0.37593631  0.72486268  0.77245230  1
  O  O16  1  0.11422139  0.80402746  0.75531802  1
  O  O17  1  0.88577861  0.19597254  0.24468198  1
  O  O18  1  0.31760307  0.84590827  0.93464764  1
  O  O19  1  0.68239693  0.15409173  0.06535236  1
  O  O20  1  0.36776440  0.53330289  0.88702482  1
  O  O21  1  0.63223560  0.46669711  0.11297518  1
  O  O22  1  0.41111192  0.93785972  0.66764320  1
  O  O23  1  0.58888808  0.06214028  0.33235680  1
  O  O24  1  0.42985645  0.61424567  0.60747049  1
  O  O25  1  0.57014355  0.38575433  0.39252951  1
  O  O26  1  0.49624372  0.18385913  0.82628748  1
  O  O27  1  0.50375628  0.81614087  0.17371252  1
  O  O28  1  0.64073150  0.67003984  0.77634733  1
  O  O29  1  0.35926850  0.32996016  0.22365267  1
  O  O30  1  0.76786213  0.71209054  0.35588882  1
  O  O31  1  0.23213787  0.28790946  0.64411118  1
  O  O32  1  0.00343992  0.82105837  0.16296244  1
  O  O33  1  0.99656008  0.17894163  0.83703756  1
  O  O34  1  0.04383034  0.35317084  0.41102715  1
  O  O35  1  0.95616966  0.64682916  0.58897285  1
  O  O36  1  0.06289973  0.46335655  0.13406506  1
  O  O37  1  0.93710027  0.53664345  0.86593494  1
  O  O38  1  0.19927819  0.69311462  0.34275522  1
  O  O39  1  0.80072181  0.30688538  0.65724478  1
  O  O40  1  0.20562125  0.15342253  0.06746578  1
  O  O41  1  0.79437875  0.84657747  0.93253422  1
  O  O42  1  0.21199536  0.05014723  0.32514167  1
  O  O43  1  0.78800464  0.94985277  0.67485833  1
