# generated using pymatgen
data_LuPS4
_symmetry_space_group_name_H-M   'P 1'
_cell_length_a   6.47738939
_cell_length_b   8.39409187
_cell_length_c   12.48859919
_cell_angle_alpha   58.49614896
_cell_angle_beta   90.00164253
_cell_angle_gamma   90.00094968
_symmetry_Int_Tables_number   1
_chemical_formula_structural   LuPS4
_chemical_formula_sum   'Lu4 P4 S16'
_cell_volume   578.94238835
_cell_formula_units_Z   4
loop_
 _symmetry_equiv_pos_site_id
 _symmetry_equiv_pos_as_xyz
  1  'x, y, z'
loop_
 _atom_site_type_symbol
 _atom_site_label
 _atom_site_symmetry_multiplicity
 _atom_site_fract_x
 _atom_site_fract_y
 _atom_site_fract_z
 _atom_site_occupancy
  Lu  Lu0  1  0.32156695  0.55759507  0.83493343  1
  Lu  Lu1  1  0.82155487  0.44240936  0.66506246  1
  Lu  Lu2  1  0.67842936  0.44238675  0.16506566  1
  Lu  Lu3  1  0.17847382  0.55758825  0.33493910  1
  P  P4  1  0.22974917  0.69080793  0.03707547  1
  P  P5  1  0.72976969  0.30920254  0.46292491  1
  P  P6  1  0.77023883  0.30921405  0.96290947  1
  P  P7  1  0.27024107  0.69078801  0.53708942  1
  S  S8  1  0.22967901  0.41621375  0.58822881  1
  S  S9  1  0.72968068  0.58379403  0.91176537  1
  S  S10  1  0.77030813  0.58376902  0.41178679  1
  S  S11  1  0.27030518  0.41622539  0.08821635  1
  S  S12  1  0.25572567  0.85550219  0.35058098  1
  S  S13  1  0.75567973  0.14448311  0.14942412  1
  S  S14  1  0.74428379  0.14446796  0.64944434  1
  S  S15  1  0.24428990  0.85553936  0.85055223  1
  S  S16  1  0.53805916  0.72306383  0.61241739  1
  S  S17  1  0.03805519  0.27694035  0.88758285  1
  S  S18  1  0.46196124  0.27691117  0.38760527  1
  S  S19  1  0.96195121  0.72307283  0.11240822  1
  S  S20  1  0.05091917  0.74342688  0.63276961  1
  S  S21  1  0.55091102  0.25658188  0.86721615  1
  S  S22  1  0.94908718  0.25658230  0.36723380  1
  S  S23  1  0.44907996  0.74343601  0.13276681  1
