# generated using pymatgen
data_K6Si2O7
_symmetry_space_group_name_H-M   'P 1'
_cell_length_a   8.87109369
_cell_length_b   6.43813627
_cell_length_c   10.86522046
_cell_angle_alpha   55.12052617
_cell_angle_beta   90.00000000
_cell_angle_gamma   90.00000000
_symmetry_Int_Tables_number   1
_chemical_formula_structural   K6Si2O7
_chemical_formula_sum   'K12 Si4 O14'
_cell_volume   509.07134631
_cell_formula_units_Z   2
loop_
 _symmetry_equiv_pos_site_id
 _symmetry_equiv_pos_as_xyz
  1  'x, y, z'
loop_
 _atom_site_type_symbol
 _atom_site_label
 _atom_site_symmetry_multiplicity
 _atom_site_fract_x
 _atom_site_fract_y
 _atom_site_fract_z
 _atom_site_occupancy
  K  K0  1  0.02659015  0.79274577  0.45565036  1
  K  K1  1  0.47340985  0.79274577  0.95565036  1
  K  K2  1  0.97340985  0.20725423  0.54434964  1
  K  K3  1  0.85096986  0.97090347  0.91392048  1
  K  K4  1  0.35096986  0.02909653  0.58607952  1
  K  K5  1  0.14903014  0.02909653  0.08607952  1
  K  K6  1  0.64903014  0.97090347  0.41392048  1
  K  K7  1  0.78180520  0.60323383  0.77730893  1
  K  K8  1  0.28180520  0.39676617  0.72269107  1
  K  K9  1  0.21819480  0.39676617  0.22269107  1
  K  K10  1  0.71819480  0.60323383  0.27730893  1
  K  K11  1  0.52659015  0.20725423  0.04434964  1
  Si  Si12  1  0.13605891  0.67419644  0.87415001  1
  Si  Si13  1  0.36394109  0.67419644  0.37415001  1
  Si  Si14  1  0.86394109  0.32580356  0.12584999  1
  Si  Si15  1  0.63605891  0.32580356  0.62584999  1
  O  O16  1  -0.00000000  0.50000000  -0.00000000  1
  O  O17  1  0.58172722  0.25956756  0.78755848  1
  O  O18  1  0.08172722  0.74043244  0.71244152  1
  O  O19  1  0.41827278  0.74043244  0.21244152  1
  O  O20  1  0.50000000  0.50000000  0.50000000  1
  O  O21  1  0.84106510  0.07261855  0.12732593  1
  O  O22  1  0.34106510  0.92738145  0.37267407  1
  O  O23  1  0.15893490  0.92738145  0.87267407  1
  O  O24  1  0.65893490  0.07261855  0.62732593  1
  O  O25  1  0.71456548  0.50542903  0.06516674  1
  O  O26  1  0.21456548  0.49457097  0.43483326  1
  O  O27  1  0.28543452  0.49457097  0.93483326  1
  O  O28  1  0.78543452  0.50542903  0.56516674  1
  O  O29  1  0.91827278  0.25956756  0.28755848  1
