# generated using pymatgen
data_BaPdCl4
_symmetry_space_group_name_H-M   'P 1'
_cell_length_a   6.93646274
_cell_length_b   7.57213190
_cell_length_c   12.64068115
_cell_angle_alpha   90.00000000
_cell_angle_beta   90.00000000
_cell_angle_gamma   90.00000000
_symmetry_Int_Tables_number   1
_chemical_formula_structural   BaPdCl4
_chemical_formula_sum   'Ba4 Pd4 Cl16'
_cell_volume   663.93674494
_cell_formula_units_Z   4
loop_
 _symmetry_equiv_pos_site_id
 _symmetry_equiv_pos_as_xyz
  1  'x, y, z'
loop_
 _atom_site_type_symbol
 _atom_site_label
 _atom_site_symmetry_multiplicity
 _atom_site_fract_x
 _atom_site_fract_y
 _atom_site_fract_z
 _atom_site_occupancy
  Ba  Ba0  1  0.50000000  0.75000000  0.14807111  1
  Ba  Ba1  1  -0.00000000  0.25000000  0.35192889  1
  Ba  Ba2  1  0.50000000  0.25000000  0.85192889  1
  Ba  Ba3  1  -0.00000000  0.75000000  0.64807111  1
  Pd  Pd4  1  -0.00000000  0.50000000  0.00000000  1
  Pd  Pd5  1  0.50000000  0.50000000  0.50000000  1
  Pd  Pd6  1  0.50000000  -0.00000000  0.50000000  1
  Pd  Pd7  1  -0.00000000  -0.00000000  0.00000000  1
  Cl  Cl8  1  0.88895057  0.47103701  0.82810739  1
  Cl  Cl9  1  0.38895057  0.52896299  0.67189261  1
  Cl  Cl10  1  0.61104943  0.97103701  0.67189261  1
  Cl  Cl11  1  0.11104943  0.02896299  0.82810739  1
  Cl  Cl12  1  0.11104943  0.52896299  0.17189261  1
  Cl  Cl13  1  0.61104943  0.47103701  0.32810739  1
  Cl  Cl14  1  0.38895057  0.02896299  0.32810739  1
  Cl  Cl15  1  0.88895057  0.97103701  0.17189261  1
  Cl  Cl16  1  0.79258987  0.89826430  0.43675823  1
  Cl  Cl17  1  0.29258987  0.10173570  0.06324177  1
  Cl  Cl18  1  0.70741013  0.39826430  0.06324177  1
  Cl  Cl19  1  0.20741013  0.60173570  0.43675823  1
  Cl  Cl20  1  0.20741013  0.10173570  0.56324177  1
  Cl  Cl21  1  0.70741013  0.89826430  0.93675823  1
  Cl  Cl22  1  0.29258987  0.60173570  0.93675823  1
  Cl  Cl23  1  0.79258987  0.39826430  0.56324177  1
