# generated using pymatgen
data_La2Te4O11
_symmetry_space_group_name_H-M   'P 1'
_cell_length_a   6.93762169
_cell_length_b   6.93762169
_cell_length_c   16.48551715
_cell_angle_alpha   75.76556983
_cell_angle_beta   75.76556983
_cell_angle_gamma   44.95065810
_symmetry_Int_Tables_number   1
_chemical_formula_structural   La2Te4O11
_chemical_formula_sum   'La4 Te8 O22'
_cell_volume   540.36435483
_cell_formula_units_Z   2
loop_
 _symmetry_equiv_pos_site_id
 _symmetry_equiv_pos_as_xyz
  1  'x, y, z'
loop_
 _atom_site_type_symbol
 _atom_site_label
 _atom_site_symmetry_multiplicity
 _atom_site_fract_x
 _atom_site_fract_y
 _atom_site_fract_z
 _atom_site_occupancy
  La  La0  1  0.13618683  0.62685616  0.53800808  1
  La  La1  1  0.37314384  0.86381317  0.96199192  1
  La  La2  1  0.86381317  0.37314384  0.46199192  1
  La  La3  1  0.62685616  0.13618683  0.03800808  1
  Te  Te4  1  0.60936810  0.15321048  0.70265251  1
  Te  Te5  1  0.84678952  0.39063190  0.79734749  1
  Te  Te6  1  0.39063190  0.84678952  0.29734749  1
  Te  Te7  1  0.15321048  0.60936810  0.20265251  1
  Te  Te8  1  0.14843633  0.58858954  0.87124364  1
  Te  Te9  1  0.41141046  0.85156367  0.62875636  1
  Te  Te10  1  0.85156367  0.41141046  0.12875636  1
  Te  Te11  1  0.58858954  0.14843633  0.37124364  1
  O  O12  1  0.85209016  0.14790984  0.75000000  1
  O  O13  1  0.14790984  0.85209016  0.25000000  1
  O  O14  1  0.19558132  0.09529774  0.82779243  1
  O  O15  1  0.90470226  0.80441868  0.67220757  1
  O  O16  1  0.80441868  0.90470226  0.17220757  1
  O  O17  1  0.09529774  0.19558132  0.32779243  1
  O  O18  1  0.62365747  0.42909184  0.89717768  1
  O  O19  1  0.57090816  0.37634253  0.60282232  1
  O  O20  1  0.37634253  0.57090816  0.10282232  1
  O  O21  1  0.42909184  0.62365747  0.39717768  1
  O  O22  1  0.04926741  0.80172088  0.95202472  1
  O  O23  1  0.19827912  0.95073259  0.54797528  1
  O  O24  1  0.67811853  0.82046917  0.37115045  1
  O  O25  1  0.17953083  0.32188147  0.12884955  1
  O  O26  1  0.32188147  0.17953083  0.62884955  1
  O  O27  1  0.82046917  0.67811853  0.87115045  1
  O  O28  1  0.25612787  0.33066323  0.44112299  1
  O  O29  1  0.66933677  0.74387213  0.05887701  1
  O  O30  1  0.74387213  0.66933677  0.55887701  1
  O  O31  1  0.33066323  0.25612787  0.94112299  1
  O  O32  1  0.80172088  0.04926741  0.45202472  1
  O  O33  1  0.95073259  0.19827912  0.04797528  1
