# generated using pymatgen
data_Cs2PdCl4
_symmetry_space_group_name_H-M   'P 1'
_cell_length_a   7.52019762
_cell_length_b   7.52019755
_cell_length_c   9.32622894
_cell_angle_alpha   90.00000000
_cell_angle_beta   90.00000000
_cell_angle_gamma   90.01760129
_symmetry_Int_Tables_number   1
_chemical_formula_structural   Cs2PdCl4
_chemical_formula_sum   'Cs4 Pd2 Cl8'
_cell_volume   527.42966722
_cell_formula_units_Z   2
loop_
 _symmetry_equiv_pos_site_id
 _symmetry_equiv_pos_as_xyz
  1  'x, y, z'
loop_
 _atom_site_type_symbol
 _atom_site_label
 _atom_site_symmetry_multiplicity
 _atom_site_fract_x
 _atom_site_fract_y
 _atom_site_fract_z
 _atom_site_occupancy
  Cs  Cs0  1  0.00559813  0.49667202  0.75000000  1
  Cs  Cs1  1  0.99440187  0.50332898  0.25000000  1
  Cs  Cs2  1  0.49667202  0.00559813  0.75000000  1
  Cs  Cs3  1  0.50332898  0.99440187  0.25000000  1
  Pd  Pd4  1  0.00000000  -0.00000000  0.50000000  1
  Pd  Pd5  1  0.00000000  -0.00000000  0.00000000  1
  Cl  Cl6  1  0.78172953  0.78172953  0.99397033  1
  Cl  Cl7  1  0.21827047  0.21827047  0.49397033  1
  Cl  Cl8  1  0.78172953  0.78172953  0.50602967  1
  Cl  Cl9  1  0.21827047  0.21827047  0.00602967  1
  Cl  Cl10  1  0.21828052  0.78171948  0.50000000  1
  Cl  Cl11  1  0.78171948  0.21828052  0.00000000  1
  Cl  Cl12  1  0.21828052  0.78171948  -0.00000000  1
  Cl  Cl13  1  0.78171948  0.21828052  0.50000000  1
