# generated using pymatgen
data_K2PSe3
_symmetry_space_group_name_H-M   'P 1'
_cell_length_a   12.48146539
_cell_length_b   8.81836477
_cell_length_c   13.81773725
_cell_angle_alpha   88.76095627
_cell_angle_beta   90.00000000
_cell_angle_gamma   90.00000000
_symmetry_Int_Tables_number   1
_chemical_formula_structural   K2PSe3
_chemical_formula_sum   'K16 P8 Se24'
_cell_volume   1520.50904430
_cell_formula_units_Z   8
loop_
 _symmetry_equiv_pos_site_id
 _symmetry_equiv_pos_as_xyz
  1  'x, y, z'
loop_
 _atom_site_type_symbol
 _atom_site_label
 _atom_site_symmetry_multiplicity
 _atom_site_fract_x
 _atom_site_fract_y
 _atom_site_fract_z
 _atom_site_occupancy
  K  K0  1  0.26484322  0.72489451  0.07896917  1
  K  K1  1  0.56501277  0.32307524  0.18707372  1
  K  K2  1  0.93498723  0.82307524  0.18707372  1
  K  K3  1  0.78973133  0.66837147  0.56218241  1
  K  K4  1  0.06501277  0.17692476  0.81292628  1
  K  K5  1  0.76484322  0.77510549  0.92103083  1
  K  K6  1  0.73515678  0.27510549  0.92103083  1
  K  K7  1  0.23515678  0.22489451  0.07896917  1
  K  K8  1  0.28973133  0.83162853  0.43781759  1
  K  K9  1  0.21026867  0.33162853  0.43781759  1
  K  K10  1  0.71026867  0.16837147  0.56218241  1
  K  K11  1  0.89641979  0.28501424  0.29325722  1
  K  K12  1  0.39641979  0.21498576  0.70674278  1
  K  K13  1  0.10358021  0.71498576  0.70674278  1
  K  K14  1  0.43498723  0.67692476  0.81292628  1
  K  K15  1  0.60358021  0.78501424  0.29325722  1
  P  P16  1  0.99212275  0.92883479  0.43184743  1
  P  P17  1  0.00787725  0.07116521  0.56815257  1
  P  P18  1  0.50787725  0.42883479  0.43184743  1
  P  P19  1  0.52809878  0.93723679  0.06917559  1
  P  P20  1  0.02809878  0.56276321  0.93082441  1
  P  P21  1  0.47190122  0.06276321  0.93082441  1
  P  P22  1  0.97190122  0.43723679  0.06917559  1
  P  P23  1  0.49212275  0.57116521  0.56815257  1
  Se  Se24  1  0.67661279  0.45275473  0.38997478  1
  Se  Se25  1  0.17661279  0.04724527  0.61002522  1
  Se  Se26  1  0.32338721  0.54724527  0.61002522  1
  Se  Se27  1  0.82338721  0.95275473  0.38997478  1
  Se  Se28  1  0.46557370  0.19528449  0.46830332  1
  Se  Se29  1  0.96557370  0.30471551  0.53169668  1
  Se  Se30  1  0.53442630  0.80471551  0.53169668  1
  Se  Se31  1  0.03442630  0.69528449  0.46830332  1
  Se  Se32  1  0.40099061  0.53185677  0.32279905  1
  Se  Se33  1  0.90099061  0.96814323  0.67720095  1
  Se  Se34  1  0.59900939  0.46814323  0.67720095  1
  Se  Se35  1  0.09900939  0.03185677  0.32279905  1
  Se  Se36  1  0.08454339  0.49815134  0.18357684  1
  Se  Se37  1  0.58454339  0.00184866  0.81642316  1
  Se  Se38  1  0.91545661  0.50184866  0.81642316  1
  Se  Se39  1  0.41545661  0.99815134  0.18357684  1
  Se  Se40  1  0.97099035  0.19401149  0.04016497  1
  Se  Se41  1  0.47099035  0.30598851  0.95983503  1
  Se  Se42  1  0.02900965  0.80598851  0.95983503  1
  Se  Se43  1  0.52900965  0.69401149  0.04016497  1
  Se  Se44  1  0.80957062  0.51928401  0.09853282  1
  Se  Se45  1  0.30957062  0.98071599  0.90146718  1
  Se  Se46  1  0.19042938  0.48071599  0.90146718  1
  Se  Se47  1  0.69042938  0.01928401  0.09853282  1
