# generated using pymatgen
data_H2S
_symmetry_space_group_name_H-M   'P 1'
_cell_length_a   5.46185437
_cell_length_b   5.89018238
_cell_length_c   5.73548933
_cell_angle_alpha   88.65343852
_cell_angle_beta   91.76117640
_cell_angle_gamma   92.08455594
_symmetry_Int_Tables_number   1
_chemical_formula_structural   H2S
_chemical_formula_sum   'H8 S4'
_cell_volume   184.26276421
_cell_formula_units_Z   4
loop_
 _symmetry_equiv_pos_site_id
 _symmetry_equiv_pos_as_xyz
  1  'x, y, z'
loop_
 _atom_site_type_symbol
 _atom_site_label
 _atom_site_symmetry_multiplicity
 _atom_site_fract_x
 _atom_site_fract_y
 _atom_site_fract_z
 _atom_site_occupancy
  H  H0  1  0.29175250  0.08164304  0.39396085  1
  H  H1  1  0.42618515  0.22400688  0.11357015  1
  H  H2  1  0.38582322  0.58532962  0.71641474  1
  H  H3  1  0.63931055  0.05433476  0.76054434  1
  H  H4  1  0.92581714  0.21314595  0.90176372  1
  H  H5  1  0.90389238  0.91798121  0.21269875  1
  H  H6  1  0.81377207  0.60784361  0.13018545  1
  H  H7  1  0.07661342  0.71055297  0.60230970  1
  S  S8  1  0.25387333  0.27198142  0.26578907  1
  S  S9  1  0.23354417  0.74293819  0.78584942  1
  S  S10  1  0.76507355  0.25207022  0.72366139  1
  S  S11  1  0.72634552  0.76417113  0.26925443  1
