# generated using pymatgen
data_AsI5F6
_symmetry_space_group_name_H-M   'P 1'
_cell_length_a   10.53976004
_cell_length_b   10.53976004
_cell_length_c   8.53263736
_cell_angle_alpha   71.77845833
_cell_angle_beta   71.77845833
_cell_angle_gamma   119.97692704
_symmetry_Int_Tables_number   1
_chemical_formula_structural   AsI5F6
_chemical_formula_sum   'As2 I10 F12'
_cell_volume   640.83260064
_cell_formula_units_Z   2
loop_
 _symmetry_equiv_pos_site_id
 _symmetry_equiv_pos_as_xyz
  1  'x, y, z'
loop_
 _atom_site_type_symbol
 _atom_site_label
 _atom_site_symmetry_multiplicity
 _atom_site_fract_x
 _atom_site_fract_y
 _atom_site_fract_z
 _atom_site_occupancy
  As  As0  1  0.40836523  0.59163477  0.75000000  1
  As  As1  1  0.59163477  0.40836523  0.25000000  1
  I  I2  1  0.66572076  0.88660128  0.05446959  1
  I  I3  1  -0.00000000  -0.00000000  0.50000000  1
  I  I4  1  0.33427924  0.11339872  0.94553041  1
  I  I5  1  0.88660128  0.66572076  0.55446959  1
  I  I6  1  -0.00000000  -0.00000000  0.00000000  1
  I  I7  1  0.11339872  0.33427924  0.44553041  1
  I  I8  1  0.29669017  0.84396594  0.94061883  1
  I  I9  1  0.15603406  0.70330983  0.55938117  1
  I  I10  1  0.70330983  0.15603406  0.05938117  1
  I  I11  1  0.84396594  0.29669017  0.44061883  1
  F  F12  1  0.77516245  0.45458653  0.06796443  1
  F  F13  1  0.54541347  0.22483755  0.43203557  1
  F  F14  1  0.22483755  0.54541347  0.93203557  1
  F  F15  1  0.45458653  0.77516245  0.56796443  1
  F  F16  1  0.64181343  0.59358523  0.06807966  1
  F  F17  1  0.40641477  0.35818657  0.43192034  1
  F  F18  1  0.27447439  0.45995497  0.69450954  1
  F  F19  1  0.59358523  0.64181343  0.56807966  1
  F  F20  1  0.45995497  0.27447439  0.19450954  1
  F  F21  1  0.72552561  0.54004503  0.30549046  1
  F  F22  1  0.54004503  0.72552561  0.80549046  1
  F  F23  1  0.35818657  0.40641477  0.93192034  1
