# generated using pymatgen
data_MgPSe3
_symmetry_space_group_name_H-M   'P 1'
_cell_length_a   7.91053879
_cell_length_b   7.91053861
_cell_length_c   7.91053921
_cell_angle_alpha   47.91244771
_cell_angle_beta   47.91244183
_cell_angle_gamma   47.91244234
_symmetry_Int_Tables_number   1
_chemical_formula_structural   MgPSe3
_chemical_formula_sum   'Mg2 P2 Se6'
_cell_volume   249.71224882
_cell_formula_units_Z   2
loop_
 _symmetry_equiv_pos_site_id
 _symmetry_equiv_pos_as_xyz
  1  'x, y, z'
loop_
 _atom_site_type_symbol
 _atom_site_label
 _atom_site_symmetry_multiplicity
 _atom_site_fract_x
 _atom_site_fract_y
 _atom_site_fract_z
 _atom_site_occupancy
  Mg  Mg0  1  0.16655728  0.16655728  0.16655728  1
  Mg  Mg1  1  0.83344272  0.83344272  0.83344272  1
  P  P2  1  0.44710674  0.44710674  0.44710674  1
  P  P3  1  0.55289326  0.55289326  0.55289326  1
  Se  Se4  1  0.41793640  0.74656916  0.09027973  1
  Se  Se5  1  0.09027973  0.41793640  0.74656916  1
  Se  Se6  1  0.74656916  0.09027973  0.41793640  1
  Se  Se7  1  0.58206360  0.25343084  0.90972027  1
  Se  Se8  1  0.90972027  0.58206360  0.25343084  1
  Se  Se9  1  0.25343084  0.90972027  0.58206360  1
