# generated using pymatgen
data_HgSO4
_symmetry_space_group_name_H-M   'P 1'
_cell_length_a   4.78768090
_cell_length_b   4.83552278
_cell_length_c   6.64964392
_cell_angle_alpha   90.00000000
_cell_angle_beta   90.00000000
_cell_angle_gamma   90.00000000
_symmetry_Int_Tables_number   1
_chemical_formula_structural   HgSO4
_chemical_formula_sum   'Hg2 S2 O8'
_cell_volume   153.94550778
_cell_formula_units_Z   2
loop_
 _symmetry_equiv_pos_site_id
 _symmetry_equiv_pos_as_xyz
  1  'x, y, z'
loop_
 _atom_site_type_symbol
 _atom_site_label
 _atom_site_symmetry_multiplicity
 _atom_site_fract_x
 _atom_site_fract_y
 _atom_site_fract_z
 _atom_site_occupancy
  Hg  Hg0  1  0.82263299  0.74816984  0.50000000  1
  Hg  Hg1  1  0.17736701  0.24816984  -0.00000000  1
  S  S2  1  0.32300030  0.23901924  0.50000000  1
  S  S3  1  0.67699970  0.73901924  -0.00000000  1
  O  O4  1  0.81353149  0.60684606  0.82362988  1
  O  O5  1  0.18646851  0.10684606  0.67637012  1
  O  O6  1  0.18646851  0.10684606  0.32362988  1
  O  O7  1  0.81353149  0.60684606  0.17637012  1
  O  O8  1  0.37342865  0.68580971  -0.00000000  1
  O  O9  1  0.62657135  0.18580971  0.50000000  1
  O  O10  1  0.71487029  0.04120809  -0.00000000  1
  O  O11  1  0.28512971  0.54120809  0.50000000  1
