# generated using pymatgen
data_NaP5
_symmetry_space_group_name_H-M   'P 1'
_cell_length_a   6.52865109
_cell_length_b   7.00711307
_cell_length_c   10.99345085
_cell_angle_alpha   90.00000000
_cell_angle_beta   90.00000000
_cell_angle_gamma   90.00000000
_symmetry_Int_Tables_number   1
_chemical_formula_structural   NaP5
_chemical_formula_sum   'Na4 P20'
_cell_volume   502.91735626
_cell_formula_units_Z   4
loop_
 _symmetry_equiv_pos_site_id
 _symmetry_equiv_pos_as_xyz
  1  'x, y, z'
loop_
 _atom_site_type_symbol
 _atom_site_label
 _atom_site_symmetry_multiplicity
 _atom_site_fract_x
 _atom_site_fract_y
 _atom_site_fract_z
 _atom_site_occupancy
  Na  Na0  1  0.25000000  0.09297248  0.42581468  1
  Na  Na1  1  0.75000000  0.90702752  0.57418532  1
  Na  Na2  1  0.75000000  0.59297248  0.07418532  1
  Na  Na3  1  0.25000000  0.40702752  0.92581468  1
  P  P4  1  0.01272769  0.09224748  0.08230042  1
  P  P5  1  0.51272769  0.90775252  0.91769958  1
  P  P6  1  0.98727231  0.59224748  0.41769958  1
  P  P7  1  0.48727231  0.40775252  0.58230042  1
  P  P8  1  0.98727231  0.90775252  0.91769958  1
  P  P9  1  0.48727231  0.09224748  0.08230042  1
  P  P10  1  0.01272769  0.40775252  0.58230042  1
  P  P11  1  0.51272769  0.59224748  0.41769958  1
  P  P12  1  0.25000000  0.63310432  0.14085440  1
  P  P13  1  0.75000000  0.36689568  0.85914560  1
  P  P14  1  0.75000000  0.13310432  0.35914560  1
  P  P15  1  0.25000000  0.86689568  0.64085440  1
  P  P16  1  0.25000000  0.47970436  0.31075075  1
  P  P17  1  0.75000000  0.52029564  0.68924925  1
  P  P18  1  0.75000000  0.97970436  0.18924925  1
  P  P19  1  0.25000000  0.02029564  0.81075075  1
  P  P20  1  0.25000000  0.56509140  0.68577858  1
  P  P21  1  0.75000000  0.43490860  0.31422142  1
  P  P22  1  0.75000000  0.06509140  0.81422142  1
  P  P23  1  0.25000000  0.93490860  0.18577858  1
