# generated using pymatgen
data_La5AgSe8
_symmetry_space_group_name_H-M   'P 1'
_cell_length_a   7.85651445
_cell_length_b   7.85649127
_cell_length_c   7.85655676
_cell_angle_alpha   109.82172291
_cell_angle_beta   109.82303267
_cell_angle_gamma   108.77036296
_symmetry_Int_Tables_number   1
_chemical_formula_structural   La5AgSe8
_chemical_formula_sum   'La5 Ag1 Se8'
_cell_volume   373.27130094
_cell_formula_units_Z   1
loop_
 _symmetry_equiv_pos_site_id
 _symmetry_equiv_pos_as_xyz
  1  'x, y, z'
loop_
 _atom_site_type_symbol
 _atom_site_label
 _atom_site_symmetry_multiplicity
 _atom_site_fract_x
 _atom_site_fract_y
 _atom_site_fract_z
 _atom_site_occupancy
  La  La0  1  0.63289981  0.75080778  0.62017276  1
  La  La1  1  0.98728251  0.36710927  0.11791826  1
  La  La2  1  0.13062942  0.01272349  0.37985127  1
  La  La3  1  0.50001100  0.50000970  0.00000358  1
  La  La4  1  0.24920696  0.86937325  0.88209452  1
  Ag  Ag5  1  0.75001410  0.25003994  0.49997862  1
  Se  Se6  1  0.24709644  0.48841216  0.60537250  1
  Se  Se7  1  0.86441095  0.61396894  0.88544827  1
  Se  Se8  1  0.51162882  0.11700062  0.75868526  1
  Se  Se9  1  0.88291880  0.64163582  0.39460131  1
  Se  Se10  1  0.72852648  0.97897390  0.11455572  1
  Se  Se11  1  0.38602381  0.27146207  0.25047034  1
  Se  Se12  1  0.02103570  0.13558245  0.74956420  1
  Se  Se13  1  0.35831520  0.75290063  0.24128439  1
