# generated using pymatgen
data_Hg3TeO6
_symmetry_space_group_name_H-M   'P 1'
_cell_length_a   11.73400904
_cell_length_b   11.73405019
_cell_length_c   11.73401757
_cell_angle_alpha   109.47213298
_cell_angle_beta   109.47075754
_cell_angle_gamma   109.47064208
_symmetry_Int_Tables_number   1
_chemical_formula_structural   Hg3TeO6
_chemical_formula_sum   'Hg24 Te8 O48'
_cell_volume   1243.71220587
_cell_formula_units_Z   8
loop_
 _symmetry_equiv_pos_site_id
 _symmetry_equiv_pos_as_xyz
  1  'x, y, z'
loop_
 _atom_site_type_symbol
 _atom_site_label
 _atom_site_symmetry_multiplicity
 _atom_site_fract_x
 _atom_site_fract_y
 _atom_site_fract_z
 _atom_site_occupancy
  Hg  Hg0  1  0.16784435  0.83089020  0.74800226  1
  Hg  Hg1  1  0.91713310  0.66909532  0.83699535  1
  Hg  Hg2  1  0.33211123  0.08014887  0.66302513  1
  Hg  Hg3  1  0.41985072  0.75199158  0.58287732  1
  Hg  Hg4  1  0.75196469  0.58288677  0.41986293  1
  Hg  Hg5  1  0.74801813  0.16787722  0.83089095  1
  Hg  Hg6  1  0.66909227  0.83697791  0.91712119  1
  Hg  Hg7  1  0.66302292  0.33212631  0.08014371  1
  Hg  Hg8  1  0.83090721  0.74801489  0.16787949  1
  Hg  Hg9  1  0.83697985  0.91712874  0.66912351  1
  Hg  Hg10  1  0.08013396  0.66299610  0.33210005  1
  Hg  Hg11  1  0.58288995  0.41986088  0.75199664  1
  Hg  Hg12  1  0.83209714  0.16909890  0.25197015  1
  Hg  Hg13  1  0.08289124  0.33088644  0.16303992  1
  Hg  Hg14  1  0.66785289  0.91985409  0.33697052  1
  Hg  Hg15  1  0.58013685  0.24801804  0.41711438  1
  Hg  Hg16  1  0.24799814  0.41712682  0.58015023  1
  Hg  Hg17  1  0.25198792  0.83213075  0.16910692  1
  Hg  Hg18  1  0.33088479  0.16303042  0.08288646  1
  Hg  Hg19  1  0.33698282  0.66787453  0.91985972  1
  Hg  Hg20  1  0.16911765  0.25198963  0.83213504  1
  Hg  Hg21  1  0.16302298  0.08288798  0.33091162  1
  Hg  Hg22  1  0.91985403  0.33695308  0.66784447  1
  Hg  Hg23  1  0.41713030  0.58014955  0.24803299  1
  Te  Te24  1  0.49996284  -0.00000246  0.99994562  1
  Te  Te25  1  0.99997970  0.00001090  0.50001926  1
  Te  Te26  1  0.00012356  0.49995709  -0.00003307  1
  Te  Te27  1  0.49999251  0.50000232  0.50001535  1
  Te  Te28  1  0.49999854  0.00002115  0.50001057  1
  Te  Te29  1  -0.00000387  -0.00000018  0.00001416  1
  Te  Te30  1  0.99996491  0.49998969  0.49999061  1
  Te  Te31  1  0.49999466  0.50000712  0.00002179  1
  O  O32  1  0.48962833  0.85115029  0.85193195  1
  O  O33  1  0.00087359  0.64884028  0.13846807  1
  O  O34  1  0.01036413  0.86232637  0.36151334  1
  O  O35  1  0.63766576  0.64804106  0.49920354  1
  O  O36  1  0.64803602  0.49918750  0.63768321  1
  O  O37  1  0.85203426  0.48961235  0.85113868  1
  O  O38  1  0.64882833  0.13848435  0.00077593  1
  O  O39  1  0.36149012  0.01035504  0.86228936  1
  O  O40  1  0.85113564  0.85196423  0.48963583  1
  O  O41  1  0.13847043  0.00080875  0.64884334  1
  O  O42  1  0.86240688  0.36151819  0.01037322  1
  O  O43  1  0.49917273  0.63767911  0.64804901  1
  O  O44  1  0.51035820  0.14885313  0.14801626  1
  O  O45  1  0.99925989  0.35114601  0.86149679  1
  O  O46  1  0.98963034  0.13767184  0.63848846  1
  O  O47  1  0.36232154  0.35196006  0.50082480  1
  O  O48  1  0.35195787  0.50080977  0.36233822  1
  O  O49  1  0.14811112  0.51033653  0.14883305  1
  O  O50  1  0.35113399  0.86151919  0.99916183  1
  O  O51  1  0.50088661  0.64891629  0.13810322  1
  O  O52  1  0.63846152  0.98962473  0.13763424  1
  O  O53  1  0.86150311  0.99918929  0.35114543  1
  O  O54  1  0.13776053  0.63848848  0.98964775  1
  O  O55  1  0.50081043  0.36233742  0.35197250  1
  O  O56  1  0.13805883  0.50087580  0.64888820  1
  O  O57  1  0.14803015  0.99912218  0.13722479  1
  O  O58  1  0.36189990  0.01082771  0.36279102  1
  O  O59  1  0.48917397  0.85110977  0.35197874  1
  O  O60  1  0.85106835  0.35197481  0.48916245  1
  O  O61  1  0.64889185  0.13809050  0.50087996  1
  O  O62  1  0.99911458  0.13720126  0.14804704  1
  O  O63  1  0.36280971  0.36193184  0.01083513  1
  O  O64  1  0.64804438  0.51083077  0.14892383  1
  O  O65  1  0.98915520  0.63720518  0.63807383  1
  O  O66  1  0.86278062  0.85196408  0.00089685  1
  O  O67  1  0.49913856  0.35110794  0.86193228  1
  O  O68  1  0.63722583  0.63809914  0.98919902  1
  O  O69  1  0.00086713  0.86278030  0.85199104  1
  O  O70  1  0.35108658  0.86192599  0.49913053  1
  O  O71  1  0.14887712  0.64802184  0.51079742  1
  O  O72  1  0.51081146  0.14892168  0.64803637  1
  O  O73  1  0.63807009  0.98918892  0.63720602  1
  O  O74  1  0.85197004  0.00086892  0.86280912  1
  O  O75  1  0.86188958  0.49912099  0.35107758  1
  O  O76  1  0.35199005  0.48919373  0.85111708  1
  O  O77  1  0.01079437  0.36278309  0.36190693  1
  O  O78  1  0.13719278  0.14801330  0.99913397  1
  O  O79  1  0.14884052  0.14804034  0.51037057  1
