# generated using pymatgen
data_Cl2O7
_symmetry_space_group_name_H-M   'P 1'
_cell_length_a   4.61646247
_cell_length_b   7.25637522
_cell_length_c   8.72920486
_cell_angle_alpha   110.39832708
_cell_angle_beta   90.00000000
_cell_angle_gamma   108.54787884
_symmetry_Int_Tables_number   1
_chemical_formula_structural   Cl2O7
_chemical_formula_sum   'Cl4 O14'
_cell_volume   257.81411611
_cell_formula_units_Z   2
loop_
 _symmetry_equiv_pos_site_id
 _symmetry_equiv_pos_as_xyz
  1  'x, y, z'
loop_
 _atom_site_type_symbol
 _atom_site_label
 _atom_site_symmetry_multiplicity
 _atom_site_fract_x
 _atom_site_fract_y
 _atom_site_fract_z
 _atom_site_occupancy
  Cl  Cl0  1  0.48905215  0.77650465  0.72920352  1
  Cl  Cl1  1  0.71254550  0.22349535  0.77079648  1
  Cl  Cl2  1  0.51094785  0.22349535  0.27079648  1
  Cl  Cl3  1  0.28745450  0.77650465  0.22920352  1
  O  O4  1  0.18504234  0.63933112  0.70636165  1
  O  O5  1  0.54571221  0.36066888  0.79363835  1
  O  O6  1  0.81495766  0.36066888  0.29363835  1
  O  O7  1  0.45428779  0.63933112  0.20636165  1
  O  O8  1  0.59584873  0.00000000  0.25000000  1
  O  O9  1  0.40415127  0.00000000  0.75000000  1
  O  O10  1  0.09320603  0.74146232  0.09028329  1
  O  O11  1  0.35174471  0.25853768  0.40971671  1
  O  O12  1  0.90679397  0.25853768  0.90971671  1
  O  O13  1  0.64825529  0.74146232  0.59028329  1
  O  O14  1  0.16280214  0.82625062  0.37927705  1
  O  O15  1  0.33655052  0.17374938  0.12072295  1
  O  O16  1  0.83719786  0.17374938  0.62072295  1
  O  O17  1  0.66344948  0.82625062  0.87927705  1
