# generated using pymatgen
data_Nd2S3
_symmetry_space_group_name_H-M   'P 1'
_cell_length_a   22.32496321
_cell_length_b   8.60282978
_cell_length_c   8.60283588
_cell_angle_alpha   89.99940259
_cell_angle_beta   54.68742301
_cell_angle_gamma   54.68744462
_symmetry_Int_Tables_number   1
_chemical_formula_structural   Nd2S3
_chemical_formula_sum   'Nd16 S24'
_cell_volume   951.66044684
_cell_formula_units_Z   8
loop_
 _symmetry_equiv_pos_site_id
 _symmetry_equiv_pos_as_xyz
  1  'x, y, z'
loop_
 _atom_site_type_symbol
 _atom_site_label
 _atom_site_symmetry_multiplicity
 _atom_site_fract_x
 _atom_site_fract_y
 _atom_site_fract_z
 _atom_site_occupancy
  Nd  Nd0  1  0.99445067  0.39738552  0.24935667  1
  Nd  Nd1  1  0.08607614  0.62086395  0.37087183  1
  Nd  Nd2  1  0.16662987  0.25003508  0.63042605  1
  Nd  Nd3  1  0.24726061  0.87909169  0.12909980  1
  Nd  Nd4  1  0.33886378  0.38075900  0.25064878  1
  Nd  Nd5  1  0.33887328  0.10263544  0.73272701  1
  Nd  Nd6  1  0.16669680  0.74995147  0.86956493  1
  Nd  Nd7  1  0.49448044  0.26725392  0.61923087  1
  Nd  Nd8  1  0.66669680  0.36956493  0.24995147  1
  Nd  Nd9  1  0.58607614  0.87087183  0.12086395  1
  Nd  Nd10  1  0.49445067  0.74935667  0.89738552  1
  Nd  Nd11  1  0.66662987  0.13042605  0.75003508  1
  Nd  Nd12  1  0.74726061  0.62909980  0.37909169  1
  Nd  Nd13  1  0.83887328  0.23272701  0.60263544  1
  Nd  Nd14  1  0.99448044  0.11922987  0.76725392  1
  Nd  Nd15  1  0.83886378  0.75064878  0.88075900  1
  S  S16  1  0.12738489  0.48646485  0.99129862  1
  S  S17  1  0.04977511  0.35253184  0.49533201  1
  S  S18  1  0.28357377  0.14739166  0.14453957  1
  S  S19  1  0.04978311  0.99809608  0.35544457  1
  S  S20  1  0.28359614  0.50176693  0.00469088  1
  S  S21  1  0.12737998  0.63136549  0.62648768  1
  S  S22  1  0.20597338  0.86860163  0.50868534  1
  S  S23  1  0.44974351  0.49552038  0.99588783  1
  S  S24  1  0.38353234  0.34525755  0.50456026  1
  S  S25  1  0.20592440  0.01356933  0.87354169  1
  S  S26  1  0.38354610  0.00421822  0.34481446  1
  S  S27  1  0.62737998  0.12648768  0.13136649  1
  S  S28  1  0.62738489  0.49129862  0.98646485  1
  S  S29  1  0.44978767  0.65520577  0.65482736  1
  S  S30  1  0.54978411  0.85544357  0.49809608  1
  S  S31  1  0.78359714  0.50469088  0.00176693  1
  S  S32  1  0.70592440  0.37354169  0.51356933  1
  S  S33  1  0.54977511  0.99533201  0.85253184  1
  S  S34  1  0.94978867  0.15482736  0.15520577  1
  S  S35  1  0.70597338  0.00868534  0.36860163  1
  S  S36  1  0.94974351  0.49588783  0.99552038  1
  S  S37  1  0.78357377  0.64453957  0.64739166  1
  S  S38  1  0.88354710  0.84481446  0.50421822  1
  S  S39  1  0.88353234  0.00456026  0.84525755  1
