# generated using pymatgen
data_Mg3TeO6
_symmetry_space_group_name_H-M   'P 1'
_cell_length_a   6.03576828
_cell_length_b   6.03576808
_cell_length_c   6.03576806
_cell_angle_alpha   90.71429111
_cell_angle_beta   90.71428142
_cell_angle_gamma   90.71426651
_symmetry_Int_Tables_number   1
_chemical_formula_structural   Mg3TeO6
_chemical_formula_sum   'Mg6 Te2 O12'
_cell_volume   219.83434368
_cell_formula_units_Z   2
loop_
 _symmetry_equiv_pos_site_id
 _symmetry_equiv_pos_as_xyz
  1  'x, y, z'
loop_
 _atom_site_type_symbol
 _atom_site_label
 _atom_site_symmetry_multiplicity
 _atom_site_fract_x
 _atom_site_fract_y
 _atom_site_fract_z
 _atom_site_occupancy
  Mg  Mg0  1  0.44657687  0.75187758  0.93704174  1
  Mg  Mg1  1  0.93704174  0.44657687  0.75187758  1
  Mg  Mg2  1  0.24812242  0.06295826  0.55342313  1
  Mg  Mg3  1  0.06295826  0.55342313  0.24812242  1
  Mg  Mg4  1  0.55342313  0.24812242  0.06295826  1
  Mg  Mg5  1  0.75187758  0.93704174  0.44657687  1
  Te  Te6  1  -0.00000000  0.00000000  0.00000000  1
  Te  Te7  1  0.50000000  0.50000000  0.50000000  1
  O  O8  1  0.40981868  0.54504459  0.19879840  1
  O  O9  1  0.54504459  0.19879840  0.40981868  1
  O  O10  1  0.19879840  0.40981868  0.54504459  1
  O  O11  1  0.59018132  0.45495541  0.80120160  1
  O  O12  1  0.45495541  0.80120160  0.59018132  1
  O  O13  1  0.80120160  0.59018132  0.45495541  1
  O  O14  1  0.93007524  0.07318342  0.69917501  1
  O  O15  1  0.07318342  0.69917501  0.93007524  1
  O  O16  1  0.30082499  0.06992476  0.92681658  1
  O  O17  1  0.92681658  0.30082499  0.06992476  1
  O  O18  1  0.06992476  0.92681658  0.30082499  1
  O  O19  1  0.69917501  0.93007524  0.07318342  1
