# generated using pymatgen
data_CaTa4O11
_symmetry_space_group_name_H-M   'P 1'
_cell_length_a   6.22997260
_cell_length_b   6.22997187
_cell_length_c   12.30478874
_cell_angle_alpha   89.99999973
_cell_angle_beta   89.99999913
_cell_angle_gamma   119.99987750
_symmetry_Int_Tables_number   1
_chemical_formula_structural   CaTa4O11
_chemical_formula_sum   'Ca2 Ta8 O22'
_cell_volume   413.59716361
_cell_formula_units_Z   2
loop_
 _symmetry_equiv_pos_site_id
 _symmetry_equiv_pos_as_xyz
  1  'x, y, z'
loop_
 _atom_site_type_symbol
 _atom_site_label
 _atom_site_symmetry_multiplicity
 _atom_site_fract_x
 _atom_site_fract_y
 _atom_site_fract_z
 _atom_site_occupancy
  Ca  Ca0  1  0.33333359  0.66666593  0.75000083  1
  Ca  Ca1  1  0.66666627  0.33333391  0.24999877  1
  Ta  Ta2  1  0.66666684  0.33333330  0.74999576  1
  Ta  Ta3  1  0.33333319  0.66666672  0.25000042  1
  Ta  Ta4  1  0.64154308  0.00000096  0.50002078  1
  Ta  Ta5  1  0.64155179  0.64154951  -0.00001966  1
  Ta  Ta6  1  -0.00000131  0.35845102  -0.00001954  1
  Ta  Ta7  1  -0.00000225  0.64154142  0.50002102  1
  Ta  Ta8  1  0.35845585  0.35845427  0.50002080  1
  Ta  Ta9  1  0.35845288  0.00000283  -0.00001982  1
  O  O10  1  0.33333333  0.66666658  0.53412460  1
  O  O11  1  0.66666666  0.33333341  0.03412751  1
  O  O12  1  0.66666661  0.33333348  0.46587412  1
  O  O13  1  0.33333350  0.66666661  0.96587361  1
  O  O14  1  0.24597605  0.00000023  0.50000039  1
  O  O15  1  0.24598008  0.24597944  -0.00000039  1
  O  O16  1  0.00000013  0.75401863  -0.00000045  1
  O  O17  1  -0.00000142  0.24597537  0.50000032  1
  O  O18  1  0.75402609  0.75402519  0.50000033  1
  O  O19  1  0.75401960  0.00000119  -0.00000039  1
  O  O20  1  0.37938906  0.94542560  0.15576213  1
  O  O21  1  0.43394956  0.37938535  0.65574804  1
  O  O22  1  0.94543571  0.56605020  0.65574815  1
  O  O23  1  0.05457457  0.43396371  0.15576215  1
  O  O24  1  0.56603654  0.62061102  0.15576215  1
  O  O25  1  0.43395205  0.05456443  0.84425212  1
  O  O26  1  0.62061265  0.56604827  0.84425227  1
  O  O27  1  0.62061477  0.05456410  0.65574809  1
  O  O28  1  0.94543571  0.37938742  0.84425216  1
  O  O29  1  0.05457340  0.62061304  0.34423757  1
  O  O30  1  0.56603935  0.94542646  0.34423755  1
  O  O31  1  0.37938707  0.43396040  0.34423760  1
