# generated using pymatgen
data_BaY2O4
_symmetry_space_group_name_H-M   'P 1'
_cell_length_a   3.46103049
_cell_length_b   10.43624599
_cell_length_c   12.14046317
_cell_angle_alpha   90.00000000
_cell_angle_beta   90.00000000
_cell_angle_gamma   90.00000000
_symmetry_Int_Tables_number   1
_chemical_formula_structural   BaY2O4
_chemical_formula_sum   'Ba4 Y8 O16'
_cell_volume   438.51553983
_cell_formula_units_Z   4
loop_
 _symmetry_equiv_pos_site_id
 _symmetry_equiv_pos_as_xyz
  1  'x, y, z'
loop_
 _atom_site_type_symbol
 _atom_site_label
 _atom_site_symmetry_multiplicity
 _atom_site_fract_x
 _atom_site_fract_y
 _atom_site_fract_z
 _atom_site_occupancy
  Ba  Ba0  1  0.25000000  0.75327753  0.35060365  1
  Ba  Ba1  1  0.75000000  0.24672247  0.64939635  1
  Ba  Ba2  1  0.25000000  0.25327753  0.14939635  1
  Ba  Ba3  1  0.75000000  0.74672247  0.85060365  1
  Y  Y4  1  0.25000000  0.42670308  0.38900139  1
  Y  Y5  1  0.75000000  0.57329692  0.61099861  1
  Y  Y6  1  0.25000000  0.92670308  0.11099861  1
  Y  Y7  1  0.75000000  0.07329692  0.88900139  1
  Y  Y8  1  0.75000000  0.07796146  0.39119812  1
  Y  Y9  1  0.25000000  0.92203854  0.60880188  1
  Y  Y10  1  0.75000000  0.57796146  0.10880188  1
  Y  Y11  1  0.25000000  0.42203854  0.89119812  1
  O  O12  1  0.75000000  0.29069647  0.34116120  1
  O  O13  1  0.25000000  0.70930353  0.65883880  1
  O  O14  1  0.75000000  0.79069647  0.15883880  1
  O  O15  1  0.25000000  0.20930353  0.84116120  1
  O  O16  1  0.75000000  0.38476684  0.01777092  1
  O  O17  1  0.25000000  0.61523316  0.98222908  1
  O  O18  1  0.75000000  0.88476684  0.48222908  1
  O  O19  1  0.25000000  0.11523316  0.51777092  1
  O  O20  1  0.75000000  0.98111040  0.71710761  1
  O  O21  1  0.25000000  0.01888960  0.28289239  1
  O  O22  1  0.75000000  0.48111040  0.78289239  1
  O  O23  1  0.25000000  0.51888960  0.21710761  1
  O  O24  1  0.75000000  0.07019002  0.07398702  1
  O  O25  1  0.25000000  0.92980998  0.92601298  1
  O  O26  1  0.75000000  0.57019002  0.42601298  1
  O  O27  1  0.25000000  0.42980998  0.57398702  1
