# generated using pymatgen
data_Mg2PN3
_symmetry_space_group_name_H-M   'P 1'
_cell_length_a   4.70687708
_cell_length_b   5.61704675
_cell_length_c   5.61704662
_cell_angle_alpha   119.64451761
_cell_angle_beta   90.00000000
_cell_angle_gamma   90.00000000
_symmetry_Int_Tables_number   1
_chemical_formula_structural   Mg2PN3
_chemical_formula_sum   'Mg4 P2 N6'
_cell_volume   129.06964409
_cell_formula_units_Z   2
loop_
 _symmetry_equiv_pos_site_id
 _symmetry_equiv_pos_as_xyz
  1  'x, y, z'
loop_
 _atom_site_type_symbol
 _atom_site_label
 _atom_site_symmetry_multiplicity
 _atom_site_fract_x
 _atom_site_fract_y
 _atom_site_fract_z
 _atom_site_occupancy
  Mg  Mg0  1  0.47103202  0.82940177  0.50305494  1
  Mg  Mg1  1  0.47103202  0.50305494  0.82940177  1
  Mg  Mg2  1  0.97103202  0.17059823  0.49694506  1
  Mg  Mg3  1  0.97103202  0.49694506  0.17059823  1
  P  P4  1  0.49199859  0.16167916  0.16167916  1
  P  P5  1  0.99199859  0.83832084  0.83832084  1
  N  N6  1  0.34555525  0.89062901  0.89062901  1
  N  N7  1  0.84555525  0.10937099  0.10937099  1
  N  N8  1  0.42014056  0.16254093  0.44309403  1
  N  N9  1  0.92014056  0.83745907  0.55690597  1
  N  N10  1  0.42014056  0.44309403  0.16254093  1
  N  N11  1  0.92014056  0.55690597  0.83745907  1
