# generated using pymatgen
data_Cd2GeO4
_symmetry_space_group_name_H-M   'P 1'
_cell_length_a   5.23014732
_cell_length_b   6.60498817
_cell_length_c   11.23333233
_cell_angle_alpha   90.00000000
_cell_angle_beta   90.00000000
_cell_angle_gamma   90.00000000
_symmetry_Int_Tables_number   1
_chemical_formula_structural   Cd2GeO4
_chemical_formula_sum   'Cd8 Ge4 O16'
_cell_volume   388.05615255
_cell_formula_units_Z   4
loop_
 _symmetry_equiv_pos_site_id
 _symmetry_equiv_pos_as_xyz
  1  'x, y, z'
loop_
 _atom_site_type_symbol
 _atom_site_label
 _atom_site_symmetry_multiplicity
 _atom_site_fract_x
 _atom_site_fract_y
 _atom_site_fract_z
 _atom_site_occupancy
  Cd  Cd0  1  0.48946966  0.75000000  0.78015533  1
  Cd  Cd1  1  0.98946966  0.25000000  0.71984467  1
  Cd  Cd2  1  0.51053034  0.25000000  0.21984467  1
  Cd  Cd3  1  0.01053034  0.75000000  0.28015533  1
  Cd  Cd4  1  0.50000000  0.50000000  0.50000000  1
  Cd  Cd5  1  -0.00000000  0.50000000  0.00000000  1
  Cd  Cd6  1  0.50000000  -0.00000000  0.50000000  1
  Cd  Cd7  1  -0.00000000  -0.00000000  0.00000000  1
  Ge  Ge8  1  0.93345107  0.75000000  0.59814527  1
  Ge  Ge9  1  0.43345107  0.25000000  0.90185473  1
  Ge  Ge10  1  0.06654893  0.25000000  0.40185473  1
  Ge  Ge11  1  0.56654893  0.75000000  0.09814527  1
  O  O12  1  0.22015130  0.46119154  0.33522393  1
  O  O13  1  0.72015130  0.53880846  0.16477607  1
  O  O14  1  0.77984870  0.96119154  0.66477607  1
  O  O15  1  0.27984870  0.03880846  0.83522393  1
  O  O16  1  0.77984870  0.53880846  0.66477607  1
  O  O17  1  0.27984870  0.46119154  0.83522393  1
  O  O18  1  0.22015130  0.03880846  0.33522393  1
  O  O19  1  0.72015130  0.96119154  0.16477607  1
  O  O20  1  0.79057427  0.75000000  0.45299085  1
  O  O21  1  0.29057427  0.25000000  0.04700915  1
  O  O22  1  0.20942573  0.25000000  0.54700915  1
  O  O23  1  0.70942573  0.75000000  0.95299085  1
  O  O24  1  0.23274179  0.75000000  0.09685435  1
  O  O25  1  0.73274179  0.25000000  0.40314565  1
  O  O26  1  0.76725821  0.25000000  0.90314565  1
  O  O27  1  0.26725821  0.75000000  0.59685435  1
