# generated using pymatgen
data_Nb2SnO6
_symmetry_space_group_name_H-M   'P 1'
_cell_length_a   4.92971756
_cell_length_b   5.62897132
_cell_length_c   8.97164736
_cell_angle_alpha   91.40233330
_cell_angle_beta   105.94645179
_cell_angle_gamma   90.00000521
_symmetry_Int_Tables_number   1
_chemical_formula_structural   Nb2SnO6
_chemical_formula_sum   'Nb4 Sn2 O12'
_cell_volume   239.29871615
_cell_formula_units_Z   2
loop_
 _symmetry_equiv_pos_site_id
 _symmetry_equiv_pos_as_xyz
  1  'x, y, z'
loop_
 _atom_site_type_symbol
 _atom_site_label
 _atom_site_symmetry_multiplicity
 _atom_site_fract_x
 _atom_site_fract_y
 _atom_site_fract_z
 _atom_site_occupancy
  Nb  Nb0  1  0.41028449  0.17448039  0.33925574  1
  Nb  Nb1  1  0.07102776  0.32551961  0.66074426  1
  Nb  Nb2  1  0.58971551  0.82551961  0.66074426  1
  Nb  Nb3  1  0.92897224  0.67448039  0.33925574  1
  Sn  Sn4  1  0.77369147  0.25000000  -0.00000000  1
  Sn  Sn5  1  0.22630853  0.75000000  0.00000000  1
  O  O6  1  0.71898503  0.14837977  0.56134447  1
  O  O7  1  0.15764056  0.35162023  0.43865553  1
  O  O8  1  0.28101497  0.85162023  0.43865553  1
  O  O9  1  0.84235944  0.64837977  0.56134447  1
  O  O10  1  0.60305539  0.42762383  0.28515119  1
  O  O11  1  0.31790519  0.07237617  0.71484881  1
  O  O12  1  0.99333827  0.59066582  0.14432563  1
  O  O13  1  0.84901163  0.90933418  0.85567437  1
  O  O14  1  0.00666173  0.40933418  0.85567437  1
  O  O15  1  0.15098837  0.09066582  0.14432563  1
  O  O16  1  0.68209481  0.92762383  0.28515119  1
  O  O17  1  0.39694461  0.57237617  0.71484881  1
