# generated using pymatgen
data_NaTlO2
_symmetry_space_group_name_H-M   'P 1'
_cell_length_a   5.79187948
_cell_length_b   5.79187979
_cell_length_c   5.79188012
_cell_angle_alpha   33.81171718
_cell_angle_beta   33.81170642
_cell_angle_gamma   33.81171451
_symmetry_Int_Tables_number   1
_chemical_formula_structural   NaTlO2
_chemical_formula_sum   'Na1 Tl1 O2'
_cell_volume   53.61179234
_cell_formula_units_Z   1
loop_
 _symmetry_equiv_pos_site_id
 _symmetry_equiv_pos_as_xyz
  1  'x, y, z'
loop_
 _atom_site_type_symbol
 _atom_site_label
 _atom_site_symmetry_multiplicity
 _atom_site_fract_x
 _atom_site_fract_y
 _atom_site_fract_z
 _atom_site_occupancy
  Na  Na0  1  0.50000000  0.50000000  0.50000000  1
  Tl  Tl1  1  0.00000000  0.00000000  -0.00000000  1
  O  O2  1  0.74245535  0.74245535  0.74245535  1
  O  O3  1  0.25754465  0.25754465  0.25754465  1
