# generated using pymatgen
data_HoNbO4
_symmetry_space_group_name_H-M   'P 1'
_cell_length_a   6.51756693
_cell_length_b   6.51756693
_cell_length_c   5.09950485
_cell_angle_alpha   68.76971337
_cell_angle_beta   68.76971337
_cell_angle_gamma   114.25916960
_symmetry_Int_Tables_number   1
_chemical_formula_structural   HoNbO4
_chemical_formula_sum   'Ho2 Nb2 O8'
_cell_volume   147.10724946
_cell_formula_units_Z   2
loop_
 _symmetry_equiv_pos_site_id
 _symmetry_equiv_pos_as_xyz
  1  'x, y, z'
loop_
 _atom_site_type_symbol
 _atom_site_label
 _atom_site_symmetry_multiplicity
 _atom_site_fract_x
 _atom_site_fract_y
 _atom_site_fract_z
 _atom_site_occupancy
  Ho  Ho0  1  0.37139082  0.62860918  0.25000000  1
  Ho  Ho1  1  0.62860918  0.37139082  0.75000000  1
  Nb  Nb2  1  0.89183699  0.10816301  0.25000000  1
  Nb  Nb3  1  0.10816301  0.89183699  0.75000000  1
  O  O4  1  0.62431383  0.04855822  0.16237495  1
  O  O5  1  0.95144178  0.37568617  0.33762505  1
  O  O6  1  0.37568617  0.95144178  0.83762505  1
  O  O7  1  0.04855822  0.62431383  0.66237495  1
  O  O8  1  0.78259745  0.71919959  0.20857816  1
  O  O9  1  0.28080041  0.21740255  0.29142184  1
  O  O10  1  0.21740255  0.28080041  0.79142184  1
  O  O11  1  0.71919959  0.78259745  0.70857816  1
