# generated using pymatgen
data_Ba4Ga2O7
_symmetry_space_group_name_H-M   'P 1'
_cell_length_a   10.77175705
_cell_length_b   7.34326578
_cell_length_c   17.86847447
_cell_angle_alpha   81.25349426
_cell_angle_beta   90.00000000
_cell_angle_gamma   90.00000000
_symmetry_Int_Tables_number   1
_chemical_formula_structural   Ba4Ga2O7
_chemical_formula_sum   'Ba24 Ga12 O42'
_cell_volume   1396.95743320
_cell_formula_units_Z   6
loop_
 _symmetry_equiv_pos_site_id
 _symmetry_equiv_pos_as_xyz
  1  'x, y, z'
loop_
 _atom_site_type_symbol
 _atom_site_label
 _atom_site_symmetry_multiplicity
 _atom_site_fract_x
 _atom_site_fract_y
 _atom_site_fract_z
 _atom_site_occupancy
  Ba  Ba0  1  0.78687738  0.03862830  0.74306036  1
  Ba  Ba1  1  0.28687738  0.46137170  0.25693964  1
  Ba  Ba2  1  0.21312262  0.96137170  0.25693964  1
  Ba  Ba3  1  0.71312262  0.53862830  0.74306036  1
  Ba  Ba4  1  0.26701736  0.45544340  0.90716330  1
  Ba  Ba5  1  0.76701736  0.04455660  0.09283670  1
  Ba  Ba6  1  0.73298264  0.54455660  0.09283670  1
  Ba  Ba7  1  0.23298264  0.95544340  0.90716330  1
  Ba  Ba8  1  0.28834825  0.49814232  0.59133795  1
  Ba  Ba9  1  0.78834825  0.00185768  0.40866205  1
  Ba  Ba10  1  0.71165175  0.50185768  0.40866205  1
  Ba  Ba11  1  0.21165175  -0.00185768  0.59133795  1
  Ba  Ba12  1  0.89556302  0.33803185  0.91807059  1
  Ba  Ba13  1  0.39556302  0.16196815  0.08192941  1
  Ba  Ba14  1  0.10443698  0.66196815  0.08192941  1
  Ba  Ba15  1  0.60443698  0.83803185  0.91807059  1
  Ba  Ba16  1  0.44825670  0.19806125  0.75084987  1
  Ba  Ba17  1  0.94825670  0.30193875  0.24915013  1
  Ba  Ba18  1  0.55174330  0.80193875  0.24915013  1
  Ba  Ba19  1  0.05174330  0.69806125  0.75084987  1
  Ba  Ba20  1  0.92362365  0.33696045  0.58561289  1
  Ba  Ba21  1  0.42362365  0.16303955  0.41438711  1
  Ba  Ba22  1  0.07637635  0.66303955  0.41438711  1
  Ba  Ba23  1  0.57637635  0.83696045  0.58561289  1
  Ga  Ga24  1  0.56954000  0.29550718  0.56586438  1
  Ga  Ga25  1  0.06954000  0.20449282  0.43413562  1
  Ga  Ga26  1  0.43046000  0.70449282  0.43413562  1
  Ga  Ga27  1  0.93046000  0.79550718  0.56586438  1
  Ga  Ga28  1  0.92813295  0.81237636  0.90888682  1
  Ga  Ga29  1  0.42813295  0.68762364  0.09111318  1
  Ga  Ga30  1  0.07186705  0.18762364  0.09111318  1
  Ga  Ga31  1  0.57186705  0.31237636  0.90888682  1
  Ga  Ga32  1  0.05883867  0.19588233  0.76702225  1
  Ga  Ga33  1  0.55883867  0.30411767  0.23297775  1
  Ga  Ga34  1  0.94116133  0.80411767  0.23297775  1
  Ga  Ga35  1  0.44116133  0.69588233  0.76702225  1
  O  O36  1  0.50000000  0.50000000  0.50000000  1
  O  O37  1  0.00000000  -0.00000000  0.50000000  1
  O  O38  1  0.43630841  0.15450575  0.92628929  1
  O  O39  1  0.93630841  0.34549425  0.07371071  1
  O  O40  1  0.56369159  0.84549425  0.07371071  1
  O  O41  1  0.06369159  0.65450575  0.92628929  1
  O  O42  1  0.14465763  0.32495576  0.50712697  1
  O  O43  1  0.64465763  0.17504424  0.49287303  1
  O  O44  1  0.85534237  0.67504424  0.49287303  1
  O  O45  1  0.35534237  0.82495576  0.50712697  1
  O  O46  1  0.93632009  0.37568016  0.75250547  1
  O  O47  1  0.43632009  0.12431984  0.24749453  1
  O  O48  1  0.06367991  0.62431984  0.24749453  1
  O  O49  1  0.56367991  0.87568016  0.75250547  1
  O  O50  1  0.42762465  0.16596314  0.60249304  1
  O  O51  1  0.92762465  0.33403686  0.39750696  1
  O  O52  1  0.57237535  0.83403686  0.39750696  1
  O  O53  1  0.07237535  0.66596314  0.60249304  1
  O  O54  1  0.21321247  0.27327331  0.79008287  1
  O  O55  1  0.71321247  0.22672669  0.20991713  1
  O  O56  1  0.78678753  0.72672669  0.20991713  1
  O  O57  1  0.28678753  0.77327331  0.79008287  1
  O  O58  1  0.68395898  0.31500236  0.63963072  1
  O  O59  1  0.18395898  0.18499764  0.36036928  1
  O  O60  1  0.31604102  0.68499764  0.36036928  1
  O  O61  1  0.81604102  0.81500236  0.63963072  1
  O  O62  1  0.99354892  0.03743318  0.85551498  1
  O  O63  1  0.49354892  0.46256682  0.14448502  1
  O  O64  1  0.00645108  0.96256682  0.14448502  1
  O  O65  1  0.50645108  0.53743318  0.85551498  1
  O  O66  1  0.67126036  0.21212986  0.84076698  1
  O  O67  1  0.17126036  0.28787014  0.15923302  1
  O  O68  1  0.32873964  0.78787014  0.15923302  1
  O  O69  1  0.82873964  0.71212986  0.84076698  1
  O  O70  1  0.33315240  0.65928057  0.00875369  1
  O  O71  1  0.83315240  0.84071943  0.99124631  1
  O  O72  1  0.66684760  0.34071943  0.99124631  1
  O  O73  1  0.16684760  0.15928057  0.00875369  1
  O  O74  1  0.04040002  0.06683506  0.68713375  1
  O  O75  1  0.54040002  0.43316494  0.31286625  1
  O  O76  1  0.95959998  0.93316494  0.31286625  1
  O  O77  1  0.45959998  0.56683506  0.68713375  1
