# generated using pymatgen
data_NaTlO2
_symmetry_space_group_name_H-M   'P 1'
_cell_length_a   5.77044513
_cell_length_b   5.77044513
_cell_length_c   5.77044513
_cell_angle_alpha   130.98243390
_cell_angle_beta   130.98243390
_cell_angle_gamma   71.84098937
_symmetry_Int_Tables_number   1
_chemical_formula_structural   NaTlO2
_chemical_formula_sum   'Na2 Tl2 O4'
_cell_volume   107.10970307
_cell_formula_units_Z   2
loop_
 _symmetry_equiv_pos_site_id
 _symmetry_equiv_pos_as_xyz
  1  'x, y, z'
loop_
 _atom_site_type_symbol
 _atom_site_label
 _atom_site_symmetry_multiplicity
 _atom_site_fract_x
 _atom_site_fract_y
 _atom_site_fract_z
 _atom_site_occupancy
  Na  Na0  1  0.25000000  0.75000000  0.50000000  1
  Na  Na1  1  0.50000000  0.50000000  -0.00000000  1
  Tl  Tl2  1  0.00000000  -0.00000000  -0.00000000  1
  Tl  Tl3  1  0.75000000  0.25000000  0.50000000  1
  O  O4  1  0.98109056  0.48109056  0.50000000  1
  O  O5  1  0.76890944  0.76890944  0.00000000  1
  O  O6  1  0.51890944  0.01890944  0.50000000  1
  O  O7  1  0.23109056  0.23109056  -0.00000000  1
