# generated using pymatgen
data_Hg2SeO5
_symmetry_space_group_name_H-M   'P 1'
_cell_length_a   7.18484319
_cell_length_b   9.70544370
_cell_length_c   14.93304450
_cell_angle_alpha   70.38842719
_cell_angle_beta   90.00000000
_cell_angle_gamma   90.00000000
_symmetry_Int_Tables_number   1
_chemical_formula_structural   Hg2SeO5
_chemical_formula_sum   'Hg16 Se8 O40'
_cell_volume   980.90555036
_cell_formula_units_Z   8
loop_
 _symmetry_equiv_pos_site_id
 _symmetry_equiv_pos_as_xyz
  1  'x, y, z'
loop_
 _atom_site_type_symbol
 _atom_site_label
 _atom_site_symmetry_multiplicity
 _atom_site_fract_x
 _atom_site_fract_y
 _atom_site_fract_z
 _atom_site_occupancy
  Hg  Hg0  1  0.88048993  0.66458870  0.14408933  1
  Hg  Hg1  1  0.38048993  0.33541130  0.35591067  1
  Hg  Hg2  1  0.11951007  0.33541130  0.85591067  1
  Hg  Hg3  1  0.61951007  0.66458870  0.64408933  1
  Hg  Hg4  1  0.63017826  0.36221295  0.11763107  1
  Hg  Hg5  1  0.13017826  0.63778705  0.38236893  1
  Hg  Hg6  1  0.36982174  0.63778705  0.88236893  1
  Hg  Hg7  1  0.86982174  0.36221295  0.61763107  1
  Hg  Hg8  1  0.87857321  0.33548746  0.35235235  1
  Hg  Hg9  1  0.37857321  0.66451254  0.14764765  1
  Hg  Hg10  1  0.12142679  0.66451254  0.64764765  1
  Hg  Hg11  1  0.62142679  0.33548746  0.85235235  1
  Hg  Hg12  1  0.63491918  0.00703230  0.37547282  1
  Hg  Hg13  1  0.13491918  0.99296770  0.12452718  1
  Hg  Hg14  1  0.36508082  0.99296770  0.62452718  1
  Hg  Hg15  1  0.86508082  0.00703230  0.87547282  1
  Se  Se16  1  0.64960622  0.65821281  0.38088556  1
  Se  Se17  1  0.14960622  0.34178719  0.11911444  1
  Se  Se18  1  0.35039378  0.34178719  0.61911444  1
  Se  Se19  1  0.85039378  0.65821281  0.88088556  1
  Se  Se20  1  0.65316408  0.03819523  0.11158090  1
  Se  Se21  1  0.15316408  0.96180477  0.38841910  1
  Se  Se22  1  0.34683592  0.96180477  0.88841910  1
  Se  Se23  1  0.84683592  0.03819523  0.61158090  1
  O  O24  1  0.81209613  0.73380378  0.30130391  1
  O  O25  1  0.31209613  0.26619622  0.19869609  1
  O  O26  1  0.18790387  0.26619622  0.69869609  1
  O  O27  1  0.68790387  0.73380378  0.80130391  1
  O  O28  1  0.62934788  0.55717264  0.15177879  1
  O  O29  1  0.12934788  0.44282736  0.34822121  1
  O  O30  1  0.37065212  0.44282736  0.84822121  1
  O  O31  1  0.87065212  0.55717264  0.65177879  1
  O  O32  1  0.72567668  0.50075232  0.45471363  1
  O  O33  1  0.22567668  0.49924768  0.04528637  1
  O  O34  1  0.27432332  0.49924768  0.54528637  1
  O  O35  1  0.77432332  0.50075232  0.95471363  1
  O  O36  1  0.95738009  0.37037947  0.17135746  1
  O  O37  1  0.45738009  0.62962053  0.32864254  1
  O  O38  1  0.04261991  0.62962053  0.82864254  1
  O  O39  1  0.59028041  0.20921436  0.04183940  1
  O  O40  1  0.54261991  0.37037947  0.67135746  1
  O  O41  1  0.12749080  0.75537978  0.16701186  1
  O  O42  1  0.37250920  0.75537978  0.66701186  1
  O  O43  1  0.87250920  0.24462022  0.83298814  1
  O  O44  1  0.10088005  0.22930203  0.05709945  1
  O  O45  1  0.60088005  0.77069797  0.44290055  1
  O  O46  1  0.89911995  0.77069797  0.94290055  1
  O  O47  1  0.39911995  0.22930203  0.55709945  1
  O  O48  1  0.18369354  0.02595699  0.94261375  1
  O  O49  1  0.68369354  0.97404301  0.55738625  1
  O  O50  1  0.81630646  0.97404301  0.05738625  1
  O  O51  1  0.31630646  0.02595699  0.44261375  1
  O  O52  1  0.76154462  0.05936257  0.70842644  1
  O  O53  1  0.26154462  0.94063743  0.79157356  1
  O  O54  1  0.23845538  0.94063743  0.29157356  1
  O  O55  1  0.73845538  0.05936257  0.20842644  1
  O  O56  1  0.53032685  0.06822435  0.87306295  1
  O  O57  1  0.03032685  0.93177565  0.62693705  1
  O  O58  1  0.46967315  0.93177565  0.12693705  1
  O  O59  1  0.96967315  0.06822435  0.37306295  1
  O  O60  1  0.90971959  0.20921436  0.54183940  1
  O  O61  1  0.40971959  0.79078564  0.95816060  1
  O  O62  1  0.09028041  0.79078564  0.45816060  1
  O  O63  1  0.62749080  0.24462022  0.33298814  1
