# generated using pymatgen
data_Nd(C2N3)3
_symmetry_space_group_name_H-M   'P 1'
_cell_length_a   6.99209925
_cell_length_b   6.99209925
_cell_length_c   10.25048161
_cell_angle_alpha   90.00000000
_cell_angle_beta   90.00000000
_cell_angle_gamma   111.53836173
_symmetry_Int_Tables_number   1
_chemical_formula_structural   Nd(C2N3)3
_chemical_formula_sum   'Nd2 C12 N18'
_cell_volume   466.14678023
_cell_formula_units_Z   2
loop_
 _symmetry_equiv_pos_site_id
 _symmetry_equiv_pos_as_xyz
  1  'x, y, z'
loop_
 _atom_site_type_symbol
 _atom_site_label
 _atom_site_symmetry_multiplicity
 _atom_site_fract_x
 _atom_site_fract_y
 _atom_site_fract_z
 _atom_site_occupancy
  Nd  Nd0  1  0.71566718  0.28433282  0.75000000  1
  Nd  Nd1  1  0.28433282  0.71566718  0.25000000  1
  C  C2  1  0.72673857  0.55876653  0.25000000  1
  C  C3  1  -0.00138829  0.28862208  0.44932628  1
  C  C4  1  0.00138829  0.71137792  0.94932628  1
  C  C5  1  0.27326143  0.44123347  0.75000000  1
  C  C6  1  0.55876653  0.72673857  0.75000000  1
  C  C7  1  0.44123347  0.27326143  0.25000000  1
  C  C8  1  0.28862208  -0.00138829  0.94932628  1
  C  C9  1  0.71137792  0.00138829  0.44932628  1
  C  C10  1  -0.00138829  0.28862208  0.05067372  1
  C  C11  1  0.00138829  0.71137792  0.55067372  1
  C  C12  1  0.71137792  0.00138829  0.05067372  1
  C  C13  1  0.28862208  -0.00138829  0.55067372  1
  N  N14  1  0.14194483  0.41573866  0.40291779  1
  N  N15  1  0.85805517  0.58426134  0.90291779  1
  N  N16  1  0.52758646  0.47241354  0.25000000  1
  N  N17  1  0.47241354  0.52758646  0.75000000  1
  N  N18  1  0.90486161  0.64662633  0.25000000  1
  N  N19  1  0.09513839  0.35337367  0.75000000  1
  N  N20  1  0.64662633  0.90486161  0.75000000  1
  N  N21  1  0.35337367  0.09513839  0.25000000  1
  N  N22  1  0.15783139  0.84216861  0.01004977  1
  N  N23  1  0.84216861  0.15783139  0.51004977  1
  N  N24  1  0.84216861  0.15783139  0.98995023  1
  N  N25  1  0.15783139  0.84216861  0.48995023  1
  N  N26  1  0.41573866  0.14194483  0.90291779  1
  N  N27  1  0.58426134  0.85805517  0.40291779  1
  N  N28  1  0.14194483  0.41573866  0.09708221  1
  N  N29  1  0.85805517  0.58426134  0.59708221  1
  N  N30  1  0.58426134  0.85805517  0.09708221  1
  N  N31  1  0.41573866  0.14194483  0.59708221  1
