# generated using pymatgen
data_HfBrN
_symmetry_space_group_name_H-M   'P 1'
_cell_length_a   10.27869937
_cell_length_b   10.27869937
_cell_length_c   10.27869978
_cell_angle_alpha   20.19675384
_cell_angle_beta   20.19675384
_cell_angle_gamma   20.19675007
_symmetry_Int_Tables_number   1
_chemical_formula_structural   HfBrN
_chemical_formula_sum   'Hf2 Br2 N2'
_cell_volume   113.25894879
_cell_formula_units_Z   2
loop_
 _symmetry_equiv_pos_site_id
 _symmetry_equiv_pos_as_xyz
  1  'x, y, z'
loop_
 _atom_site_type_symbol
 _atom_site_label
 _atom_site_symmetry_multiplicity
 _atom_site_fract_x
 _atom_site_fract_y
 _atom_site_fract_z
 _atom_site_occupancy
  Hf  Hf0  1  0.79076912  0.79076912  0.79076912  1
  Hf  Hf1  1  0.20923088  0.20923088  0.20923088  1
  Br  Br2  1  0.60799852  0.60799852  0.60799852  1
  Br  Br3  1  0.39200148  0.39200148  0.39200148  1
  N  N4  1  0.86176824  0.86176824  0.86176824  1
  N  N5  1  0.13823176  0.13823176  0.13823176  1
