# generated using pymatgen
data_K2(NbBr3)3
_symmetry_space_group_name_H-M   'P 1'
_cell_length_a   10.26177042
_cell_length_b   10.26350349
_cell_length_c   10.12557814
_cell_angle_alpha   77.42342230
_cell_angle_beta   77.43330213
_cell_angle_gamma   117.64800288
_symmetry_Int_Tables_number   1
_chemical_formula_structural   K2(NbBr3)3
_chemical_formula_sum   'K4 Nb6 Br18'
_cell_volume   857.10998947
_cell_formula_units_Z   2
loop_
 _symmetry_equiv_pos_site_id
 _symmetry_equiv_pos_as_xyz
  1  'x, y, z'
loop_
 _atom_site_type_symbol
 _atom_site_label
 _atom_site_symmetry_multiplicity
 _atom_site_fract_x
 _atom_site_fract_y
 _atom_site_fract_z
 _atom_site_occupancy
  K  K0  1  0.72962197  0.05247925  0.82908889  1
  K  K1  1  0.94802107  0.27109069  0.16924268  1
  K  K2  1  0.27039466  0.94885288  0.16911252  1
  K  K3  1  0.05141821  0.72950193  0.82964603  1
  Nb  Nb4  1  0.45460111  0.28593048  0.63557342  1
  Nb  Nb5  1  0.71415843  0.54589983  0.36372333  1
  Nb  Nb6  1  0.54498176  0.71480051  0.36406741  1
  Nb  Nb7  1  0.28529325  0.45480545  0.63594711  1
  Nb  Nb8  1  0.61710126  0.61752936  0.62430680  1
  Nb  Nb9  1  0.38225792  0.38307914  0.37545841  1
  Br  Br10  1  0.00664170  0.60841101  0.17542109  1
  Br  Br11  1  0.39237160  0.99301865  0.82304240  1
  Br  Br12  1  0.82067915  0.82171101  0.16735100  1
  Br  Br13  1  0.17892715  0.17911829  0.83254860  1
  Br  Br14  1  0.62010441  0.41442275  0.18149254  1
  Br  Br15  1  0.58665574  0.37974028  0.81765377  1
  Br  Br16  1  0.37928847  0.58602212  0.81833618  1
  Br  Br17  1  0.41306167  0.62085176  0.18210891  1
  Br  Br18  1  0.30219009  0.09349673  0.51382073  1
  Br  Br19  1  0.90680722  0.69789241  0.48555882  1
  Br  Br20  1  0.69719971  0.90724433  0.48592598  1
  Br  Br21  1  0.09242699  0.30245525  0.51440051  1
  Br  Br22  1  0.29174053  0.70834819  0.50028514  1
  Br  Br23  1  0.70800676  0.29258705  0.49910044  1
  Br  Br24  1  0.77386411  0.77438708  0.79011763  1
  Br  Br25  1  0.22508260  0.22601718  0.20993225  1
  Br  Br26  1  0.60714940  0.00740882  0.17606845  1
  Br  Br27  1  0.99248908  0.39243057  0.82365196  1
