# generated using pymatgen
data_NaTaO3
_symmetry_space_group_name_H-M   'P 1'
_cell_length_a   5.45388623
_cell_length_b   5.51999928
_cell_length_c   7.77470694
_cell_angle_alpha   90.00000000
_cell_angle_beta   90.00000000
_cell_angle_gamma   90.00000000
_symmetry_Int_Tables_number   1
_chemical_formula_structural   NaTaO3
_chemical_formula_sum   'Na4 Ta4 O12'
_cell_volume   234.06103599
_cell_formula_units_Z   4
loop_
 _symmetry_equiv_pos_site_id
 _symmetry_equiv_pos_as_xyz
  1  'x, y, z'
loop_
 _atom_site_type_symbol
 _atom_site_label
 _atom_site_symmetry_multiplicity
 _atom_site_fract_x
 _atom_site_fract_y
 _atom_site_fract_z
 _atom_site_occupancy
  Na  Na0  1  0.99508298  0.97516632  0.75000000  1
  Na  Na1  1  0.00491702  0.02483368  0.25000000  1
  Na  Na2  1  0.50491702  0.47516632  0.75000000  1
  Na  Na3  1  0.49508298  0.52483368  0.25000000  1
  Ta  Ta4  1  0.50000000  0.00000000  0.50000000  1
  Ta  Ta5  1  0.50000000  0.00000000  0.00000000  1
  Ta  Ta6  1  0.00000000  0.50000000  0.50000000  1
  Ta  Ta7  1  0.00000000  0.50000000  0.00000000  1
  O  O8  1  0.20971814  0.78914525  0.46390975  1
  O  O9  1  0.79028186  0.21085475  0.96390975  1
  O  O10  1  0.29028186  0.28914525  0.46390975  1
  O  O11  1  0.70971814  0.71085475  0.96390975  1
  O  O12  1  0.20971814  0.78914525  0.03609025  1
  O  O13  1  0.79028186  0.21085475  0.53609025  1
  O  O14  1  0.29028186  0.28914525  0.03609025  1
  O  O15  1  0.70971814  0.71085475  0.53609025  1
  O  O16  1  0.07063552  0.51470510  0.75000000  1
  O  O17  1  0.92936448  0.48529490  0.25000000  1
  O  O18  1  0.42936448  0.01470510  0.75000000  1
  O  O19  1  0.57063552  0.98529490  0.25000000  1
