# generated using pymatgen
data_PHN2
_symmetry_space_group_name_H-M   'P 1'
_cell_length_a   4.71098786
_cell_length_b   4.72047029
_cell_length_c   4.83391434
_cell_angle_alpha   119.20573695
_cell_angle_beta   119.14010404
_cell_angle_gamma   89.99850180
_symmetry_Int_Tables_number   1
_chemical_formula_structural   PHN2
_chemical_formula_sum   'P2 H2 N4'
_cell_volume   77.87432506
_cell_formula_units_Z   2
loop_
 _symmetry_equiv_pos_site_id
 _symmetry_equiv_pos_as_xyz
  1  'x, y, z'
loop_
 _atom_site_type_symbol
 _atom_site_label
 _atom_site_symmetry_multiplicity
 _atom_site_fract_x
 _atom_site_fract_y
 _atom_site_fract_z
 _atom_site_occupancy
  P  P0  1  0.98979108  0.98962963  0.97960327  1
  P  P1  1  0.26025736  0.76001233  0.52039501  1
  H  H2  1  0.48642705  0.37481823  0.24874539  1
  H  H3  1  0.76334575  0.87606169  0.25128029  1
  N  N4  1  0.12543684  0.72849798  0.75043765  1
  N  N5  1  0.27110838  0.37483191  0.24974059  1
  N  N6  1  0.62497525  0.02104425  0.74954211  1
  N  N7  1  0.97865729  0.87510299  0.25025669  1
