# generated using pymatgen
data_Na3AgO2
_symmetry_space_group_name_H-M   'P 1'
_cell_length_a   5.42130979
_cell_length_b   5.86537206
_cell_length_c   6.72426420
_cell_angle_alpha   115.85753028
_cell_angle_beta   113.77308845
_cell_angle_gamma   89.99999597
_symmetry_Int_Tables_number   1
_chemical_formula_structural   Na3AgO2
_chemical_formula_sum   'Na6 Ag2 O4'
_cell_volume   172.02520760
_cell_formula_units_Z   2
loop_
 _symmetry_equiv_pos_site_id
 _symmetry_equiv_pos_as_xyz
  1  'x, y, z'
loop_
 _atom_site_type_symbol
 _atom_site_label
 _atom_site_symmetry_multiplicity
 _atom_site_fract_x
 _atom_site_fract_y
 _atom_site_fract_z
 _atom_site_occupancy
  Na  Na0  1  0.76045912  0.01045912  0.52091924  1
  Na  Na1  1  0.50000000  0.25000000  -0.00000000  1
  Na  Na2  1  0.76045912  0.51045912  0.52091924  1
  Na  Na3  1  0.23954088  0.98954088  0.47908076  1
  Na  Na4  1  0.50000000  0.75000000  -0.00000000  1
  Na  Na5  1  0.23954088  0.48954088  0.47908076  1
  Ag  Ag6  1  0.00000000  0.50000000  -0.00000000  1
  Ag  Ag7  1  0.00000000  -0.00000000  -0.00000000  1
  O  O8  1  0.13902757  0.36436403  0.72872605  1
  O  O9  1  0.41030152  0.13563597  0.27127395  1
  O  O10  1  0.86097243  0.63563597  0.27127395  1
  O  O11  1  0.58969848  0.86436403  0.72872605  1
