# generated using pymatgen
data_Cs3BS3
_symmetry_space_group_name_H-M   'P 1'
_cell_length_a   6.68219775
_cell_length_b   10.65143667
_cell_length_c   13.76263299
_cell_angle_alpha   77.97086948
_cell_angle_beta   90.00000000
_cell_angle_gamma   90.00000000
_symmetry_Int_Tables_number   1
_chemical_formula_structural   Cs3BS3
_chemical_formula_sum   'Cs12 B4 S12'
_cell_volume   958.04618001
_cell_formula_units_Z   4
loop_
 _symmetry_equiv_pos_site_id
 _symmetry_equiv_pos_as_xyz
  1  'x, y, z'
loop_
 _atom_site_type_symbol
 _atom_site_label
 _atom_site_symmetry_multiplicity
 _atom_site_fract_x
 _atom_site_fract_y
 _atom_site_fract_z
 _atom_site_occupancy
  Cs  Cs0  1  0.65147839  0.25286843  0.50923674  1
  Cs  Cs1  1  0.15147839  0.74713157  0.99076326  1
  Cs  Cs2  1  0.34852161  0.74713157  0.49076326  1
  Cs  Cs3  1  0.84852161  0.25286843  0.00923674  1
  Cs  Cs4  1  0.28270863  0.03706125  0.14225619  1
  Cs  Cs5  1  0.78270863  0.96293875  0.35774381  1
  Cs  Cs6  1  0.71729137  0.96293875  0.85774381  1
  Cs  Cs7  1  0.21729137  0.03706125  0.64225619  1
  Cs  Cs8  1  0.44991379  0.40104797  0.19960699  1
  Cs  Cs9  1  0.94991379  0.59895203  0.30039301  1
  Cs  Cs10  1  0.55008621  0.59895203  0.80039301  1
  Cs  Cs11  1  0.05008621  0.40104797  0.69960699  1
  B  B12  1  0.12801902  0.23374594  0.37279395  1
  B  B13  1  0.62801902  0.76625406  0.12720605  1
  B  B14  1  0.87198098  0.76625406  0.62720605  1
  B  B15  1  0.37198098  0.23374594  0.87279395  1
  S  S16  1  0.94653892  0.27596223  0.27032001  1
  S  S17  1  0.44653892  0.72403777  0.22967999  1
  S  S18  1  0.05346108  0.72403777  0.72967999  1
  S  S19  1  0.55346108  0.27596223  0.77032001  1
  S  S20  1  0.28670835  0.09103236  0.38283558  1
  S  S21  1  0.78670835  0.90896764  0.11716442  1
  S  S22  1  0.71329165  0.90896764  0.61716442  1
  S  S23  1  0.21329165  0.09103236  0.88283558  1
  S  S24  1  0.34445610  0.33791565  0.96243789  1
  S  S25  1  0.84445610  0.66208435  0.53756211  1
  S  S26  1  0.65554390  0.66208435  0.03756211  1
  S  S27  1  0.15554390  0.33791565  0.46243789  1
