# generated using pymatgen
data_Ga2CoO4
_symmetry_space_group_name_H-M   'P 1'
_cell_length_a   5.70089071
_cell_length_b   8.51017508
_cell_length_c   5.81850556
_cell_angle_alpha   90.00003789
_cell_angle_beta   89.99985147
_cell_angle_gamma   89.99986402
_symmetry_Int_Tables_number   1
_chemical_formula_structural   Ga2CoO4
_chemical_formula_sum   'Ga8 Co4 O16'
_cell_volume   282.28816061
_cell_formula_units_Z   4
loop_
 _symmetry_equiv_pos_site_id
 _symmetry_equiv_pos_as_xyz
  1  'x, y, z'
loop_
 _atom_site_type_symbol
 _atom_site_label
 _atom_site_symmetry_multiplicity
 _atom_site_fract_x
 _atom_site_fract_y
 _atom_site_fract_z
 _atom_site_occupancy
  Ga  Ga0  1  -0.00000060  0.01165591  0.00000106  1
  Ga  Ga1  1  0.50000100  0.51165287  0.49999986  1
  Ga  Ga2  1  0.49999997  0.23834460  0.00000068  1
  Ga  Ga3  1  -0.00000118  0.73834727  0.50000096  1
  Ga  Ga4  1  -0.00022468  0.37499722  0.25000055  1
  Ga  Ga5  1  0.50022382  0.87500303  0.74999912  1
  Ga  Ga6  1  0.00022504  0.37499586  0.74999849  1
  Ga  Ga7  1  0.49977500  0.87500246  0.25000107  1
  Co  Co8  1  0.25000163  0.12500242  0.50000020  1
  Co  Co9  1  0.24999915  0.62500200  0.00000155  1
  Co  Co10  1  0.75000124  0.62500008  -0.00000157  1
  Co  Co11  1  0.75000013  0.12499983  0.50000010  1
  O  O12  1  0.76415391  0.36913284  -0.00013298  1
  O  O13  1  0.26415029  0.86913106  0.50013104  1
  O  O14  1  0.23584650  0.36913149  0.00013067  1
  O  O15  1  0.73584904  0.86913152  0.49986953  1
  O  O16  1  0.26415253  0.88086804  -0.00013021  1
  O  O17  1  0.76415116  0.38086901  0.50013044  1
  O  O18  1  0.73584565  0.88086836  0.00013207  1
  O  O19  1  0.23584983  0.38086851  0.49986837  1
  O  O20  1  0.00143068  0.60984059  0.23526901  1
  O  O21  1  0.49856357  0.10984292  0.73527064  1
  O  O22  1  0.99856649  0.60984164  0.76473118  1
  O  O23  1  0.50143650  0.10984455  0.26473108  1
  O  O24  1  0.50143539  0.64015730  0.23526805  1
  O  O25  1  0.99856431  0.14015492  0.73526846  1
  O  O26  1  0.49856551  0.64015799  0.76473139  1
  O  O27  1  0.00143712  0.14015671  0.26473019  1
