# generated using pymatgen
data_La5TlTe8
_symmetry_space_group_name_H-M   'P 1'
_cell_length_a   8.47889645
_cell_length_b   8.47889593
_cell_length_c   8.47889763
_cell_angle_alpha   109.26502298
_cell_angle_beta   109.88441332
_cell_angle_gamma   109.26502844
_symmetry_Int_Tables_number   1
_chemical_formula_structural   La5TlTe8
_chemical_formula_sum   'La5 Tl1 Te8'
_cell_volume   469.22281854
_cell_formula_units_Z   1
loop_
 _symmetry_equiv_pos_site_id
 _symmetry_equiv_pos_as_xyz
  1  'x, y, z'
loop_
 _atom_site_type_symbol
 _atom_site_label
 _atom_site_symmetry_multiplicity
 _atom_site_fract_x
 _atom_site_fract_y
 _atom_site_fract_z
 _atom_site_occupancy
  La  La0  1  0.24270707  0.62742845  0.37623288  1
  La  La1  1  0.37500000  0.25000000  0.62500000  1
  La  La2  1  0.62376712  0.36647319  0.25119557  1
  La  La3  1  0.74880443  0.87257155  0.11527861  1
  La  La4  1  0.88472139  0.13352681  0.75729293  1
  Tl  Tl5  1  0.12500000  0.75000000  0.87500000  1
  Te  Te6  1  0.99459769  0.85514785  0.49045880  1
  Te  Te7  1  0.15247851  0.15930673  0.15767888  1
  Te  Te8  1  0.36054916  0.49585911  0.00540231  1
  Te  Te9  1  0.63531095  0.64485215  0.63945084  1
  Te  Te10  1  0.50682822  0.00520037  0.84752149  1
  Te  Te11  1  0.50954120  0.00414089  0.36468905  1
  Te  Te12  1  0.84232112  0.49479963  0.00162785  1
  Te  Te13  1  0.99837215  0.34069327  0.49317178  1
