# generated using pymatgen
data_KAuI3
_symmetry_space_group_name_H-M   'P 1'
_cell_length_a   9.46142359
_cell_length_b   7.36852376
_cell_length_c   13.45476131
_cell_angle_alpha   59.10163995
_cell_angle_beta   90.00000000
_cell_angle_gamma   90.00000000
_symmetry_Int_Tables_number   1
_chemical_formula_structural   KAuI3
_chemical_formula_sum   'K4 Au4 I12'
_cell_volume   804.89745073
_cell_formula_units_Z   4
loop_
 _symmetry_equiv_pos_site_id
 _symmetry_equiv_pos_as_xyz
  1  'x, y, z'
loop_
 _atom_site_type_symbol
 _atom_site_label
 _atom_site_symmetry_multiplicity
 _atom_site_fract_x
 _atom_site_fract_y
 _atom_site_fract_z
 _atom_site_occupancy
  K  K0  1  0.11715102  0.18907745  0.25109476  1
  K  K1  1  0.61715102  0.81092255  0.24890524  1
  K  K2  1  0.88284898  0.81092255  0.74890524  1
  K  K3  1  0.38284898  0.18907745  0.75109476  1
  Au  Au4  1  0.50000000  0.50000000  0.00000000  1
  Au  Au5  1  -0.00000000  0.50000000  0.50000000  1
  Au  Au6  1  0.50000000  -0.00000000  0.50000000  1
  Au  Au7  1  -0.00000000  -0.00000000  0.00000000  1
  I  I8  1  0.15274716  0.74396210  0.96529594  1
  I  I9  1  0.65274716  0.25603790  0.53470406  1
  I  I10  1  0.84725284  0.25603790  0.03470406  1
  I  I11  1  0.34725284  0.74396210  0.46529594  1
  I  I12  1  0.99271523  0.34077492  0.73090939  1
  I  I13  1  0.49271523  0.65922508  0.76909061  1
  I  I14  1  0.00728477  0.65922508  0.26909061  1
  I  I15  1  0.50728477  0.34077492  0.23090939  1
  I  I16  1  0.15983377  0.17541239  0.53211594  1
  I  I17  1  0.65983377  0.82458761  0.96788406  1
  I  I18  1  0.84016623  0.82458761  0.46788406  1
  I  I19  1  0.34016623  0.17541239  0.03211594  1
