# generated using pymatgen
data_Ho6Se11
_symmetry_space_group_name_H-M   'P 1'
_cell_length_a   11.49117976
_cell_length_b   11.53621901
_cell_length_c   11.98498951
_cell_angle_alpha   89.95367979
_cell_angle_beta   89.70093410
_cell_angle_gamma   88.36745503
_symmetry_Int_Tables_number   1
_chemical_formula_structural   Ho6Se11
_chemical_formula_sum   'Ho24 Se44'
_cell_volume   1588.12045516
_cell_formula_units_Z   4
loop_
 _symmetry_equiv_pos_site_id
 _symmetry_equiv_pos_as_xyz
  1  'x, y, z'
loop_
 _atom_site_type_symbol
 _atom_site_label
 _atom_site_symmetry_multiplicity
 _atom_site_fract_x
 _atom_site_fract_y
 _atom_site_fract_z
 _atom_site_occupancy
  Ho  Ho0  1  0.00971708  0.75258937  0.49869473  1
  Ho  Ho1  1  0.13941253  0.14082267  0.33273362  1
  Ho  Ho2  1  0.13951944  0.13768064  0.66349637  1
  Ho  Ho3  1  0.15623984  0.15750222  0.00065078  1
  Ho  Ho4  1  0.24056629  0.48718163  0.49995710  1
  Ho  Ho5  1  0.24753032  0.50480989  0.16923666  1
  Ho  Ho6  1  0.25642848  0.50123331  0.82857060  1
  Ho  Ho7  1  0.38843163  0.88094445  0.66673020  1
  Ho  Ho8  1  0.38536530  0.88083488  0.33127968  1
  Ho  Ho9  1  0.38794659  0.89375856  0.00053423  1
  Ho  Ho10  1  0.48284302  0.22383896  0.49622067  1
  Ho  Ho11  1  0.49566947  0.24102790  0.83501396  1
  Ho  Ho12  1  0.50317430  0.24895632  0.17204124  1
  Ho  Ho13  1  0.62550204  0.62750903  0.99935738  1
  Ho  Ho14  1  0.65519160  0.66005005  0.67139230  1
  Ho  Ho15  1  0.64774560  0.64626854  0.33608403  1
  Ho  Ho16  1  0.75081257  0.00894143  0.49891667  1
  Ho  Ho17  1  0.73961317  0.98695691  0.16283696  1
  Ho  Ho18  1  0.74012925  0.99161911  0.83675699  1
  Ho  Ho19  1  0.89605577  0.39235296  0.66876045  1
  Ho  Ho20  1  0.88052760  0.38586679  0.33753280  1
  Ho  Ho21  1  0.89235491  0.38828099  0.00062627  1
  Ho  Ho22  1  0.98560446  0.73711015  0.16236992  1
  Ho  Ho23  1  0.99166970  0.73972435  0.83784307  1
  Se  Se24  1  0.00444658  0.00715071  0.49478366  1
  Se  Se25  1  0.05979214  0.31189714  0.49960512  1
  Se  Se26  1  0.07122596  0.31427322  0.83339173  1
  Se  Se27  1  0.06732339  0.31543649  0.16670441  1
  Se  Se28  1  0.07039730  0.56921267  0.99950752  1
  Se  Se29  1  0.07577807  0.57073537  0.66759965  1
  Se  Se30  1  0.06817499  0.56893993  0.33410278  1
  Se  Se31  1  0.06514191  0.92023789  0.99969357  1
  Se  Se32  1  0.12149322  0.88730802  0.30160724  1
  Se  Se33  1  0.12654096  0.88485880  0.69262665  1
  Se  Se34  1  0.24631662  0.76816173  0.83665019  1
  Se  Se35  1  0.23723581  0.77445759  0.15986015  1
  Se  Se36  1  0.27144231  0.73819816  0.50087402  1
  Se  Se37  1  0.30881794  0.05263709  0.49848511  1
  Se  Se38  1  0.31542383  0.06958354  0.16592497  1
  Se  Se39  1  0.31237197  0.06646199  0.83452581  1
  Se  Se40  1  0.31922288  0.31750412  0.33534785  1
  Se  Se41  1  0.32355190  0.31440857  0.66199639  1
  Se  Se42  1  0.33040635  0.33091488  0.00063235  1
  Se  Se43  1  0.37052070  0.63983650  0.99413602  1
  Se  Se44  1  0.41214314  0.59659913  0.64998258  1
  Se  Se45  1  0.39234441  0.61689622  0.34909843  1
  Se  Se46  1  0.52766095  0.48590010  0.78947475  1
  Se  Se47  1  0.50580574  0.50309225  0.19061748  1
  Se  Se48  1  0.56734755  0.06772497  0.66865567  1
  Se  Se49  1  0.56946727  0.06644225  0.33186795  1
  Se  Se50  1  0.57046257  0.06959934  0.00101912  1
  Se  Se51  1  0.56051295  0.81370519  0.83428790  1
  Se  Se52  1  0.55943809  0.81102502  0.16701684  1
  Se  Se53  1  0.57201282  0.81859417  0.50058843  1
  Se  Se54  1  0.61941832  0.39150415  0.37654218  1
  Se  Se55  1  0.63633889  0.37316898  0.99583204  1
  Se  Se56  1  0.72540604  0.28198640  0.52434319  1
  Se  Se57  1  0.76214582  0.25136147  0.82913480  1
  Se  Se58  1  0.76753273  0.24303080  0.16472715  1
  Se  Se59  1  0.81597340  0.56097244  0.83247676  1
  Se  Se60  1  0.81088012  0.55725110  0.16913834  1
  Se  Se61  1  0.80382683  0.80411732  0.99984599  1
  Se  Se62  1  0.81675578  0.57029863  0.50618861  1
  Se  Se63  1  0.82977475  0.83079428  0.67068428  1
  Se  Se64  1  0.82373224  0.82403943  0.33136848  1
  Se  Se65  1  0.88109738  0.12828589  0.30938050  1
  Se  Se66  1  0.88006318  0.13176520  0.68753155  1
  Se  Se67  1  0.91402924  0.07081975  0.99870408  1
