# generated using pymatgen
data_PNO
_symmetry_space_group_name_H-M   'P 1'
_cell_length_a   4.48981655
_cell_length_b   7.00406994
_cell_length_c   9.48630004
_cell_angle_alpha   90.90876641
_cell_angle_beta   90.08047763
_cell_angle_gamma   90.72970826
_symmetry_Int_Tables_number   1
_chemical_formula_structural   PNO
_chemical_formula_sum   'P8 N8 O8'
_cell_volume   298.25347637
_cell_formula_units_Z   8
loop_
 _symmetry_equiv_pos_site_id
 _symmetry_equiv_pos_as_xyz
  1  'x, y, z'
loop_
 _atom_site_type_symbol
 _atom_site_label
 _atom_site_symmetry_multiplicity
 _atom_site_fract_x
 _atom_site_fract_y
 _atom_site_fract_z
 _atom_site_occupancy
  P  P0  1  0.99566795  0.99071966  0.00198874  1
  P  P1  1  0.99583646  0.75920748  0.75017142  1
  P  P2  1  0.00489157  0.98842871  0.50261046  1
  P  P3  1  0.02464647  0.75263184  0.24841808  1
  P  P4  1  0.49585581  0.48229352  0.74879579  1
  P  P5  1  0.49191490  0.49592219  0.25659969  1
  P  P6  1  0.50391891  0.26315170  0.49432616  1
  P  P7  1  0.49665531  0.26811532  0.00172556  1
  N  N8  1  0.85980989  0.87198306  0.87581451  1
  N  N9  1  0.63675845  0.37647975  0.87431463  1
  N  N10  1  0.65119780  0.36633449  0.37008236  1
  N  N11  1  0.35735302  0.36604497  0.62274554  1
  N  N12  1  0.35903118  0.38040030  0.12632904  1
  N  N13  1  0.26010198  0.63518084  0.32749446  1
  N  N14  1  0.13286082  0.86927378  0.62218376  1
  N  N15  1  0.13383021  0.88827433  0.13015432  1
  O  O16  1  0.86528527  0.88085795  0.37284587  1
  O  O17  1  0.74632664  0.11776185  0.55632846  1
  O  O18  1  0.74551855  0.12906854  0.05958989  1
  O  O19  1  0.74539754  0.62123457  0.68596013  1
  O  O20  1  0.75308389  0.63076942  0.19158125  1
  O  O21  1  0.24658259  0.62283857  0.80747601  1
  O  O22  1  0.24591403  0.12697473  0.93812831  1
  O  O23  1  0.25156377  0.11605043  0.43433557  1
