# generated using pymatgen
data_LiNbO2
_symmetry_space_group_name_H-M   'P 1'
_cell_length_a   2.92178487
_cell_length_b   2.92178461
_cell_length_c   10.45103486
_cell_angle_alpha   90.00000000
_cell_angle_beta   90.00000000
_cell_angle_gamma   119.99999154
_symmetry_Int_Tables_number   1
_chemical_formula_structural   LiNbO2
_chemical_formula_sum   'Li2 Nb2 O4'
_cell_volume   77.26563847
_cell_formula_units_Z   2
loop_
 _symmetry_equiv_pos_site_id
 _symmetry_equiv_pos_as_xyz
  1  'x, y, z'
loop_
 _atom_site_type_symbol
 _atom_site_label
 _atom_site_symmetry_multiplicity
 _atom_site_fract_x
 _atom_site_fract_y
 _atom_site_fract_z
 _atom_site_occupancy
  Li  Li0  1  0.00000000  -0.00000000  0.00000000  1
  Li  Li1  1  0.00000000  -0.00000000  0.50000000  1
  Nb  Nb2  1  0.33333300  0.66666700  0.75000000  1
  Nb  Nb3  1  0.66666700  0.33333300  0.25000000  1
  O  O4  1  0.33333300  0.66666700  0.12182659  1
  O  O5  1  0.33333300  0.66666700  0.37817341  1
  O  O6  1  0.66666700  0.33333300  0.62182659  1
  O  O7  1  0.66666700  0.33333300  0.87817341  1
