# generated using pymatgen
data_P2S2O3
_symmetry_space_group_name_H-M   'P 1'
_cell_length_a   9.40009831
_cell_length_b   9.40011863
_cell_length_c   9.39812990
_cell_angle_alpha   122.18345093
_cell_angle_beta   122.18437124
_cell_angle_gamma   86.26995945
_symmetry_Int_Tables_number   1
_chemical_formula_structural   P2S2O3
_chemical_formula_sum   'P8 S8 O12'
_cell_volume   566.44933857
_cell_formula_units_Z   4
loop_
 _symmetry_equiv_pos_site_id
 _symmetry_equiv_pos_as_xyz
  1  'x, y, z'
loop_
 _atom_site_type_symbol
 _atom_site_label
 _atom_site_symmetry_multiplicity
 _atom_site_fract_x
 _atom_site_fract_y
 _atom_site_fract_z
 _atom_site_occupancy
  P  P0  1  0.02495257  0.71965495  0.39197365  1
  P  P1  1  0.32767076  0.63297792  0.60802420  1
  P  P2  1  0.52490214  0.13288359  0.30521793  1
  P  P3  1  0.28031202  0.67233631  0.30522473  1
  P  P4  1  0.36711529  0.97508319  0.69477043  1
  P  P5  1  0.78034631  0.47505364  0.60802833  1
  P  P6  1  0.86702529  0.17232522  0.39197247  1
  P  P7  1  0.82767038  0.21968804  0.69478723  1
  S  S8  1  0.78585819  0.68691421  0.27653084  1
  S  S9  1  0.91044533  0.18705608  0.90125382  1
  S  S10  1  0.31294510  0.58955803  0.09874785  1
  S  S11  1  0.49082878  0.21418958  0.90125811  1
  S  S12  1  0.81308657  0.71413307  0.72346168  1
  S  S13  1  0.99067288  0.08963511  0.27654105  1
  S  S14  1  0.28580534  0.00918284  0.09874990  1
  S  S15  1  0.41036843  0.50932541  0.72346288  1
  O  O16  1  0.12144087  0.62145038  0.49999518  1
  O  O17  1  0.84252172  0.41918397  0.76293684  1
  O  O18  1  0.65625333  0.07959026  0.23707149  1
  O  O19  1  0.58082044  0.34365493  0.42330599  1
  O  O20  1  0.34248391  0.57964868  0.42330932  1
  O  O21  1  0.15634538  0.91917638  0.57668625  1
  O  O22  1  0.92035198  0.15751469  0.57669176  1
  O  O23  1  0.42040730  0.84374167  0.76292639  1
  O  O24  1  0.37860605  0.87860124  0.49999565  1
  O  O25  1  0.87854874  0.37855652  0.50000339  1
  O  O26  1  0.62139840  0.12140393  0.50000808  1
  O  O27  1  0.08081549  0.65748016  0.23706357  1
