# generated using pymatgen
data_Na3B7O12
_symmetry_space_group_name_H-M   'P 1'
_cell_length_a   6.65067604
_cell_length_b   8.20260016
_cell_length_c   8.86059834
_cell_angle_alpha   95.59616918
_cell_angle_beta   100.59848097
_cell_angle_gamma   99.54486388
_symmetry_Int_Tables_number   1
_chemical_formula_structural   Na3B7O12
_chemical_formula_sum   'Na6 B14 O24'
_cell_volume   464.44300922
_cell_formula_units_Z   2
loop_
 _symmetry_equiv_pos_site_id
 _symmetry_equiv_pos_as_xyz
  1  'x, y, z'
loop_
 _atom_site_type_symbol
 _atom_site_label
 _atom_site_symmetry_multiplicity
 _atom_site_fract_x
 _atom_site_fract_y
 _atom_site_fract_z
 _atom_site_occupancy
  Na  Na0  1  0.76642350  0.22926895  0.97867607  1
  Na  Na1  1  0.23357650  0.77073105  0.02132393  1
  Na  Na2  1  0.45068077  0.92035268  0.71277560  1
  Na  Na3  1  0.54931923  0.07964732  0.28722440  1
  Na  Na4  1  0.93314354  0.26776816  0.66425508  1
  Na  Na5  1  0.06685646  0.73223184  0.33574492  1
  B  B6  1  0.77179216  0.87044137  0.04779550  1
  B  B7  1  0.22820784  0.12955863  0.95220450  1
  B  B8  1  0.78909743  0.84830026  0.52631804  1
  B  B9  1  0.21090257  0.15169974  0.47368196  1
  B  B10  1  0.40235474  0.26907762  0.75448910  1
  B  B11  1  0.59764526  0.73092238  0.24551090  1
  B  B12  1  0.34298847  0.55107525  0.70699384  1
  B  B13  1  0.65701153  0.44892475  0.29300616  1
  B  B14  1  0.90251676  0.95568502  0.80857076  1
  B  B15  1  0.09748324  0.04431498  0.19142924  1
  B  B16  1  0.69007310  0.49542521  0.72525304  1
  B  B17  1  0.30992690  0.50457479  0.27474696  1
  B  B18  1  0.01283633  0.69604022  0.69359517  1
  B  B19  1  0.98716367  0.30395978  0.30640483  1
  O  O20  1  0.28252475  0.40289426  0.75715591  1
  O  O21  1  0.73958036  0.92374042  0.90483218  1
  O  O22  1  0.08658007  0.26806951  0.45738882  1
  O  O23  1  0.91341993  0.73193049  0.54261118  1
  O  O24  1  0.26041964  0.07625958  0.09516782  1
  O  O25  1  0.78457737  0.96352892  0.64959281  1
  O  O26  1  0.77386506  0.32971342  0.31623356  1
  O  O27  1  0.22613494  0.67028658  0.68376644  1
  O  O28  1  0.96947171  0.87484986  0.13326445  1
  O  O29  1  0.03052829  0.12515014  0.86673555  1
  O  O30  1  0.96339997  0.16409919  0.18818076  1
  O  O31  1  0.03660003  0.83590081  0.81181924  1
  O  O32  1  0.10365623  0.45860969  0.26827621  1
  O  O33  1  0.89634377  0.54139031  0.73172379  1
  O  O34  1  0.67328080  0.85791224  0.38372731  1
  O  O35  1  0.32671920  0.14208776  0.61627269  1
  O  O36  1  0.40221751  0.18482499  0.89454371  1
  O  O37  1  0.59778249  0.81517501  0.10545629  1
  O  O38  1  0.62561635  0.33773345  0.75994884  1
  O  O39  1  0.37438365  0.66226655  0.24005116  1
  O  O40  1  0.54705382  0.59615865  0.68490803  1
  O  O41  1  0.45294618  0.40384135  0.31509197  1
  O  O42  1  0.21542263  0.03647108  0.35040719  1
  O  O43  1  0.71747525  0.59710574  0.24284409  1
