# generated using pymatgen
data_BaCeO3
_symmetry_space_group_name_H-M   'P 1'
_cell_length_a   6.25973589
_cell_length_b   6.24763379
_cell_length_c   8.81258554
_cell_angle_alpha   90.00000000
_cell_angle_beta   90.00000000
_cell_angle_gamma   90.00000000
_symmetry_Int_Tables_number   1
_chemical_formula_structural   BaCeO3
_chemical_formula_sum   'Ba4 Ce4 O12'
_cell_volume   344.64733174
_cell_formula_units_Z   4
loop_
 _symmetry_equiv_pos_site_id
 _symmetry_equiv_pos_as_xyz
  1  'x, y, z'
loop_
 _atom_site_type_symbol
 _atom_site_label
 _atom_site_symmetry_multiplicity
 _atom_site_fract_x
 _atom_site_fract_y
 _atom_site_fract_z
 _atom_site_occupancy
  Ba  Ba0  1  0.49330306  0.97665352  0.25000000  1
  Ba  Ba1  1  0.00669694  0.47665352  0.25000000  1
  Ba  Ba2  1  0.50669694  0.02334648  0.75000000  1
  Ba  Ba3  1  0.99330306  0.52334648  0.75000000  1
  Ce  Ce4  1  0.50000000  0.50000000  0.00000000  1
  Ce  Ce5  1  0.00000000  -0.00000000  0.50000000  1
  Ce  Ce6  1  0.50000000  0.50000000  0.50000000  1
  Ce  Ce7  1  0.00000000  -0.00000000  0.00000000  1
  O  O8  1  0.57476848  0.51732174  0.25000000  1
  O  O9  1  0.92523152  0.01732174  0.25000000  1
  O  O10  1  0.42523152  0.48267826  0.75000000  1
  O  O11  1  0.07476848  0.98267826  0.75000000  1
  O  O12  1  0.22248562  0.72167761  0.04042627  1
  O  O13  1  0.27751438  0.22167761  0.45957373  1
  O  O14  1  0.77751438  0.27832239  0.54042627  1
  O  O15  1  0.72248562  0.77832239  0.95957373  1
  O  O16  1  0.77751438  0.27832239  0.95957373  1
  O  O17  1  0.72248562  0.77832239  0.54042627  1
  O  O18  1  0.22248562  0.72167761  0.45957373  1
  O  O19  1  0.27751438  0.22167761  0.04042627  1
