# generated using pymatgen
data_KPb2Br5
_symmetry_space_group_name_H-M   'P 1'
_cell_length_a   8.45293601
_cell_length_b   9.29672003
_cell_length_c   13.15695212
_cell_angle_alpha   89.86356577
_cell_angle_beta   90.00000000
_cell_angle_gamma   90.00000000
_symmetry_Int_Tables_number   1
_chemical_formula_structural   KPb2Br5
_chemical_formula_sum   'K4 Pb8 Br20'
_cell_volume   1033.93061903
_cell_formula_units_Z   4
loop_
 _symmetry_equiv_pos_site_id
 _symmetry_equiv_pos_as_xyz
  1  'x, y, z'
loop_
 _atom_site_type_symbol
 _atom_site_label
 _atom_site_symmetry_multiplicity
 _atom_site_fract_x
 _atom_site_fract_y
 _atom_site_fract_z
 _atom_site_occupancy
  K  K0  1  0.55015552  0.49062744  0.32778174  1
  K  K1  1  0.05015552  0.50937256  0.17221826  1
  K  K2  1  0.44984448  0.50937256  0.67221826  1
  K  K3  1  0.94984448  0.49062744  0.82778174  1
  Pb  Pb4  1  0.49840163  0.98621811  0.32405616  1
  Pb  Pb5  1  0.56921867  0.74438449  0.00604679  1
  Pb  Pb6  1  0.06921867  0.25561551  0.49395321  1
  Pb  Pb7  1  0.43078133  0.25561551  0.99395321  1
  Pb  Pb8  1  0.93078133  0.74438449  0.50604679  1
  Pb  Pb9  1  0.00159837  0.98621811  0.82405616  1
  Pb  Pb10  1  0.50159837  0.01378189  0.67594384  1
  Pb  Pb11  1  -0.00159837  0.01378189  0.17594384  1
  Br  Br12  1  0.31157012  0.23589610  0.21873510  1
  Br  Br13  1  0.65069400  0.23574784  0.81173866  1
  Br  Br14  1  0.15069400  0.76425216  0.68826134  1
  Br  Br15  1  0.34930600  0.76425216  0.18826134  1
  Br  Br16  1  0.84930600  0.23574784  0.31173866  1
  Br  Br17  1  0.68842988  0.76410390  0.78126490  1
  Br  Br18  1  0.18842988  0.23589610  0.71873510  1
  Br  Br19  1  0.53979525  0.77875384  0.50258416  1
  Br  Br20  1  0.66284202  0.04228908  0.10020148  1
  Br  Br21  1  0.16284202  0.95771092  0.39979852  1
  Br  Br22  1  0.33715798  0.95771092  0.89979852  1
  Br  Br23  1  0.83715798  0.04228908  0.60020148  1
  Br  Br24  1  0.46020475  0.22124616  0.49741584  1
  Br  Br25  1  0.03979525  0.22124616  0.99741584  1
  Br  Br26  1  0.82001315  0.45780683  0.58009256  1
  Br  Br27  1  0.96020475  0.77875384  0.00258416  1
  Br  Br28  1  0.67998685  0.45780683  0.08009256  1
  Br  Br29  1  0.17998685  0.54219317  0.41990744  1
  Br  Br30  1  0.32001315  0.54219317  0.91990744  1
  Br  Br31  1  0.81157012  0.76410390  0.28126490  1
