# generated using pymatgen
data_NdTaO4
_symmetry_space_group_name_H-M   'P 1'
_cell_length_a   5.24772794
_cell_length_b   5.44007400
_cell_length_c   5.60511773
_cell_angle_alpha   90.00000000
_cell_angle_beta   90.00000000
_cell_angle_gamma   96.67515279
_symmetry_Int_Tables_number   1
_chemical_formula_structural   NdTaO4
_chemical_formula_sum   'Nd2 Ta2 O8'
_cell_volume   158.93034197
_cell_formula_units_Z   2
loop_
 _symmetry_equiv_pos_site_id
 _symmetry_equiv_pos_as_xyz
  1  'x, y, z'
loop_
 _atom_site_type_symbol
 _atom_site_label
 _atom_site_symmetry_multiplicity
 _atom_site_fract_x
 _atom_site_fract_y
 _atom_site_fract_z
 _atom_site_occupancy
  Nd  Nd0  1  0.00000000  0.75000000  0.76431747  1
  Nd  Nd1  1  0.00000000  0.25000000  0.23568253  1
  Ta  Ta2  1  0.50000000  0.25000000  0.68803616  1
  Ta  Ta3  1  0.50000000  0.75000000  0.31196384  1
  O  O4  1  0.72538771  0.01006966  0.56121685  1
  O  O5  1  0.27461229  0.48993034  0.56121685  1
  O  O6  1  0.27461229  0.98993034  0.43878315  1
  O  O7  1  0.72538771  0.51006966  0.43878315  1
  O  O8  1  0.25698058  0.60951579  0.09222233  1
  O  O9  1  0.74301942  0.89048421  0.09222233  1
  O  O10  1  0.74301942  0.39048421  0.90777767  1
  O  O11  1  0.25698058  0.10951579  0.90777767  1
