# generated using pymatgen
data_KAsO2
_symmetry_space_group_name_H-M   'P 1'
_cell_length_a   5.39317212
_cell_length_b   7.18861661
_cell_length_c   7.42391671
_cell_angle_alpha   90.00000000
_cell_angle_beta   90.00000000
_cell_angle_gamma   90.00000000
_symmetry_Int_Tables_number   1
_chemical_formula_structural   KAsO2
_chemical_formula_sum   'K4 As4 O8'
_cell_volume   287.82114306
_cell_formula_units_Z   4
loop_
 _symmetry_equiv_pos_site_id
 _symmetry_equiv_pos_as_xyz
  1  'x, y, z'
loop_
 _atom_site_type_symbol
 _atom_site_label
 _atom_site_symmetry_multiplicity
 _atom_site_fract_x
 _atom_site_fract_y
 _atom_site_fract_z
 _atom_site_occupancy
  K  K0  1  0.25000000  0.36586110  0.40621681  1
  K  K1  1  0.75000000  0.36586110  0.09378319  1
  K  K2  1  0.75000000  0.63413890  0.59378319  1
  K  K3  1  0.25000000  0.63413890  0.90621681  1
  As  As4  1  0.25000000  0.85487219  0.37556219  1
  As  As5  1  0.75000000  0.14512781  0.62443781  1
  As  As6  1  0.75000000  0.85487219  0.12443781  1
  As  As7  1  0.25000000  0.14512781  0.87556219  1
  O  O8  1  0.50000000  0.26470475  0.75000000  1
  O  O9  1  0.00000000  0.73529525  0.25000000  1
  O  O10  1  0.50000000  0.73529525  0.25000000  1
  O  O11  1  -0.00000000  0.26470475  0.75000000  1
  O  O12  1  0.25000000  0.71395986  0.55899925  1
  O  O13  1  0.25000000  0.28604014  0.05899925  1
  O  O14  1  0.75000000  0.71395986  0.94100075  1
  O  O15  1  0.75000000  0.28604014  0.44100075  1
