# generated using pymatgen
data_Ca(NO3)2
_symmetry_space_group_name_H-M   'P 1'
_cell_length_a   7.51127816
_cell_length_b   7.51127816
_cell_length_c   7.51127816
_cell_angle_alpha   90.00000000
_cell_angle_beta   90.00000000
_cell_angle_gamma   90.00000000
_symmetry_Int_Tables_number   1
_chemical_formula_structural   Ca(NO3)2
_chemical_formula_sum   'Ca4 N8 O24'
_cell_volume   423.78105286
_cell_formula_units_Z   4
loop_
 _symmetry_equiv_pos_site_id
 _symmetry_equiv_pos_as_xyz
  1  'x, y, z'
loop_
 _atom_site_type_symbol
 _atom_site_label
 _atom_site_symmetry_multiplicity
 _atom_site_fract_x
 _atom_site_fract_y
 _atom_site_fract_z
 _atom_site_occupancy
  Ca  Ca0  1  -0.00000000  0.50000000  0.50000000  1
  Ca  Ca1  1  0.50000000  0.50000000  0.00000000  1
  Ca  Ca2  1  0.50000000  0.00000000  0.50000000  1
  Ca  Ca3  1  -0.00000000  0.00000000  0.00000000  1
  N  N4  1  0.33770292  0.33770292  0.33770292  1
  N  N5  1  0.33770292  0.16229708  0.83770292  1
  N  N6  1  0.16229708  0.83770292  0.33770292  1
  N  N7  1  0.83770292  0.33770292  0.16229708  1
  N  N8  1  0.66229708  0.66229708  0.66229708  1
  N  N9  1  0.16229708  0.66229708  0.83770292  1
  N  N10  1  0.83770292  0.16229708  0.66229708  1
  N  N11  1  0.66229708  0.83770292  0.16229708  1
  O  O12  1  0.75938098  0.27955833  0.02626214  1
  O  O13  1  0.22044167  0.97373786  0.25938098  1
  O  O14  1  0.24061902  0.77955833  0.47373786  1
  O  O15  1  0.25938098  0.22044167  0.97373786  1
  O  O16  1  0.25938098  0.27955833  0.47373786  1
  O  O17  1  0.47373786  0.25938098  0.27955833  1
  O  O18  1  0.27955833  0.47373786  0.25938098  1
  O  O19  1  0.22044167  0.52626214  0.75938098  1
  O  O20  1  0.97373786  0.24061902  0.72044167  1
  O  O21  1  0.72044167  0.97373786  0.24061902  1
  O  O22  1  0.02626214  0.74061902  0.77955833  1
  O  O23  1  0.52626214  0.75938098  0.22044167  1
  O  O24  1  0.77955833  0.02626214  0.74061902  1
  O  O25  1  0.75938098  0.22044167  0.52626214  1
  O  O26  1  0.74061902  0.77955833  0.02626214  1
  O  O27  1  0.24061902  0.72044167  0.97373786  1
  O  O28  1  0.74061902  0.72044167  0.52626214  1
  O  O29  1  0.52626214  0.74061902  0.72044167  1
  O  O30  1  0.72044167  0.52626214  0.74061902  1
  O  O31  1  0.77955833  0.47373786  0.24061902  1
  O  O32  1  0.02626214  0.75938098  0.27955833  1
  O  O33  1  0.27955833  0.02626214  0.75938098  1
  O  O34  1  0.97373786  0.25938098  0.22044167  1
  O  O35  1  0.47373786  0.24061902  0.77955833  1
