# generated using pymatgen
data_NaNbO3
_symmetry_space_group_name_H-M   'P 1'
_cell_length_a   5.52487280
_cell_length_b   5.61125170
_cell_length_c   15.54671286
_cell_angle_alpha   90.00000000
_cell_angle_beta   90.00000000
_cell_angle_gamma   90.00000000
_symmetry_Int_Tables_number   1
_chemical_formula_structural   NaNbO3
_chemical_formula_sum   'Na8 Nb8 O24'
_cell_volume   481.97067080
_cell_formula_units_Z   8
loop_
 _symmetry_equiv_pos_site_id
 _symmetry_equiv_pos_as_xyz
  1  'x, y, z'
loop_
 _atom_site_type_symbol
 _atom_site_label
 _atom_site_symmetry_multiplicity
 _atom_site_fract_x
 _atom_site_fract_y
 _atom_site_fract_z
 _atom_site_occupancy
  Na  Na0  1  0.25724358  0.25000000  0.00000000  1
  Na  Na1  1  0.74275642  0.75000000  0.50000000  1
  Na  Na2  1  0.74275642  0.75000000  0.00000000  1
  Na  Na3  1  0.25724358  0.25000000  0.50000000  1
  Na  Na4  1  0.25876657  0.20103090  0.25000000  1
  Na  Na5  1  0.25876657  0.29896910  0.75000000  1
  Na  Na6  1  0.74123343  0.70103090  0.25000000  1
  Na  Na7  1  0.74123343  0.79896910  0.75000000  1
  Nb  Nb8  1  0.24386243  0.72447141  0.12529444  1
  Nb  Nb9  1  0.24386243  0.77552859  0.87470556  1
  Nb  Nb10  1  0.75613757  0.22447141  0.37470556  1
  Nb  Nb11  1  0.75613757  0.27552859  0.62529444  1
  Nb  Nb12  1  0.75613757  0.27552859  0.87470556  1
  Nb  Nb13  1  0.75613757  0.22447141  0.12529444  1
  Nb  Nb14  1  0.24386243  0.77552859  0.62529444  1
  Nb  Nb15  1  0.24386243  0.72447141  0.37470556  1
  O  O16  1  0.04460356  0.04715400  0.39338784  1
  O  O17  1  0.04460356  0.45284600  0.60661216  1
  O  O18  1  0.95539644  0.54715400  0.10661216  1
  O  O19  1  0.95539644  0.95284600  0.89338784  1
  O  O20  1  0.95539644  0.95284600  0.60661216  1
  O  O21  1  0.95539644  0.54715400  0.39338784  1
  O  O22  1  0.04460356  0.45284600  0.89338784  1
  O  O23  1  0.04460356  0.04715400  0.10661216  1
  O  O24  1  0.45485395  0.46205121  0.35558737  1
  O  O25  1  0.45485395  0.03794879  0.64441263  1
  O  O26  1  0.54514605  0.96205121  0.14441263  1
  O  O27  1  0.54514605  0.53794879  0.85558737  1
  O  O28  1  0.54514605  0.53794879  0.64441263  1
  O  O29  1  0.54514605  0.96205121  0.35558737  1
  O  O30  1  0.45485395  0.03794879  0.85558737  1
  O  O31  1  0.45485395  0.46205121  0.14441263  1
  O  O32  1  0.67699056  0.25000000  0.00000000  1
  O  O33  1  0.32300944  0.75000000  0.50000000  1
  O  O34  1  0.32300944  0.75000000  0.00000000  1
  O  O35  1  0.67699056  0.25000000  0.50000000  1
  O  O36  1  0.17525920  0.77792799  0.25000000  1
  O  O37  1  0.17525920  0.72207201  0.75000000  1
  O  O38  1  0.82474080  0.27792799  0.25000000  1
  O  O39  1  0.82474080  0.22207201  0.75000000  1
