# generated using pymatgen
data_Ba4Bi3F17
_symmetry_space_group_name_H-M   'P 1'
_cell_length_a   9.43389948
_cell_length_b   9.47423125
_cell_length_c   9.53329293
_cell_angle_alpha   72.73471043
_cell_angle_beta   72.77949369
_cell_angle_gamma   72.93940117
_symmetry_Int_Tables_number   1
_chemical_formula_structural   Ba4Bi3F17
_chemical_formula_sum   'Ba8 Bi6 F34'
_cell_volume   757.22151000
_cell_formula_units_Z   2
loop_
 _symmetry_equiv_pos_site_id
 _symmetry_equiv_pos_as_xyz
  1  'x, y, z'
loop_
 _atom_site_type_symbol
 _atom_site_label
 _atom_site_symmetry_multiplicity
 _atom_site_fract_x
 _atom_site_fract_y
 _atom_site_fract_z
 _atom_site_occupancy
  Ba  Ba0  1  0.30840185  0.89341122  0.05298131  1
  Ba  Ba1  1  0.26300639  0.27032025  0.27019680  1
  Ba  Ba2  1  0.88669019  0.06272888  0.31145674  1
  Ba  Ba3  1  0.93847186  0.68878806  0.11450623  1
  Ba  Ba4  1  0.05942309  0.31377579  0.88119026  1
  Ba  Ba5  1  0.11153689  0.94752619  0.68677896  1
  Ba  Ba6  1  0.72967623  0.73646039  0.73222529  1
  Ba  Ba7  1  0.69033733  0.11201012  0.94197478  1
  Bi  Bi8  1  0.61532289  0.46479742  0.16036475  1
  Bi  Bi9  1  0.15342701  0.61551897  0.46496588  1
  Bi  Bi10  1  0.53209157  0.84586268  0.38582225  1
  Bi  Bi11  1  0.47372490  0.17802999  0.61193657  1
  Bi  Bi12  1  0.81502045  0.38414704  0.53888650  1
  Bi  Bi13  1  0.38521990  0.53333010  0.83867706  1
  F  F14  1  0.00377666  0.00025638  0.99596917  1
  F  F15  1  0.17668845  0.45717709  0.01874311  1
  F  F16  1  0.13852350  0.14396592  0.13668020  1
  F  F17  1  0.48926162  0.35767442  0.04630377  1
  F  F18  1  0.45263107  0.02096171  0.17715553  1
  F  F19  1  0.78823444  0.26431458  0.07497077  1
  F  F20  1  0.01880266  0.17823981  0.45326317  1
  F  F21  1  0.03955438  0.49559592  0.35732239  1
  F  F22  1  0.07579266  0.78997230  0.26165507  1
  F  F23  1  0.34333875  0.54861644  0.25774191  1
  F  F24  1  0.60055780  0.70594358  0.19779882  1
  F  F25  1  0.55704882  0.24731878  0.33817555  1
  F  F26  1  0.35735418  0.04627327  0.48754987  1
  F  F27  1  0.81123250  0.39862781  0.28654966  1
  F  F28  1  0.73783740  0.92490883  0.21227191  1
  F  F29  1  0.29205736  0.80367954  0.40478970  1
  F  F30  1  0.25643271  0.34722768  0.55079795  1
  F  F31  1  0.55182535  0.41889259  0.53779672  1
  F  F32  1  0.74061377  0.65505799  0.45232856  1
  F  F33  1  0.73195675  0.15760599  0.60910507  1
  F  F34  1  0.26504168  0.08362830  0.78055020  1
  F  F35  1  0.19741798  0.59043751  0.70772052  1
  F  F36  1  0.64337677  0.95607737  0.50649753  1
  F  F37  1  0.44967899  0.74348292  0.65501561  1
  F  F38  1  0.40048921  0.28352140  0.81972976  1
  F  F39  1  0.66310542  0.44505968  0.76147023  1
  F  F40  1  0.92124551  0.21578337  0.73631645  1
  F  F41  1  0.95305219  0.51373305  0.64156523  1
  F  F42  1  0.97956833  0.82457656  0.54458309  1
  F  F43  1  0.21377995  0.73685931  0.91850963  1
  F  F44  1  0.54464927  0.98187372  0.82554592  1
  F  F45  1  0.50602981  0.64459568  0.95831301  1
  F  F46  1  0.86165516  0.85818482  0.86220532  1
  F  F47  1  0.82103636  0.54716357  0.98004922  1
