# generated using pymatgen
data_Dy6Se11
_symmetry_space_group_name_H-M   'P 1'
_cell_length_a   11.53468676
_cell_length_b   11.57773259
_cell_length_c   12.03346763
_cell_angle_alpha   89.94910576
_cell_angle_beta   89.73720496
_cell_angle_gamma   88.38984772
_symmetry_Int_Tables_number   1
_chemical_formula_structural   Dy6Se11
_chemical_formula_sum   'Dy24 Se44'
_cell_volume   1606.36379016
_cell_formula_units_Z   4
loop_
 _symmetry_equiv_pos_site_id
 _symmetry_equiv_pos_as_xyz
  1  'x, y, z'
loop_
 _atom_site_type_symbol
 _atom_site_label
 _atom_site_symmetry_multiplicity
 _atom_site_fract_x
 _atom_site_fract_y
 _atom_site_fract_z
 _atom_site_occupancy
  Dy  Dy0  1  0.00889972  0.75182092  0.49862731  1
  Dy  Dy1  1  0.13853563  0.13991755  0.33270787  1
  Dy  Dy2  1  0.13864654  0.13685132  0.66362468  1
  Dy  Dy3  1  0.15553414  0.15689905  0.00068911  1
  Dy  Dy4  1  0.23929911  0.48610798  0.50000013  1
  Dy  Dy5  1  0.24656948  0.50396908  0.16935516  1
  Dy  Dy6  1  0.25548767  0.50068640  0.82892849  1
  Dy  Dy7  1  0.38765337  0.87996144  0.66682039  1
  Dy  Dy8  1  0.38461575  0.88014266  0.33142078  1
  Dy  Dy9  1  0.38718008  0.89335411  0.00066007  1
  Dy  Dy10  1  0.48153548  0.22310824  0.49626291  1
  Dy  Dy11  1  0.49478101  0.24043162  0.83497189  1
  Dy  Dy12  1  0.50256646  0.24835007  0.17205157  1
  Dy  Dy13  1  0.62424558  0.62647191  0.99945813  1
  Dy  Dy14  1  0.65434233  0.65940373  0.67139783  1
  Dy  Dy15  1  0.64708919  0.64563950  0.33600709  1
  Dy  Dy16  1  0.74973921  0.00847951  0.49888490  1
  Dy  Dy17  1  0.73864024  0.98587240  0.16278899  1
  Dy  Dy18  1  0.73927216  0.99088940  0.83662559  1
  Dy  Dy19  1  0.89504914  0.39167575  0.66859085  1
  Dy  Dy20  1  0.87963769  0.38508094  0.33733471  1
  Dy  Dy21  1  0.89163614  0.38737329  0.00048894  1
  Dy  Dy22  1  0.99031018  0.73864662  0.83765415  1
  Dy  Dy23  1  0.98477209  0.73626624  0.16230583  1
  Se  Se24  1  0.00349550  0.00640701  0.49515505  1
  Se  Se25  1  0.05845608  0.31074583  0.49953442  1
  Se  Se26  1  0.06649604  0.31501222  0.16669941  1
  Se  Se27  1  0.07036993  0.31355772  0.83332480  1
  Se  Se28  1  0.06973289  0.56853077  0.99927506  1
  Se  Se29  1  0.07483934  0.56995892  0.66779060  1
  Se  Se30  1  0.06683523  0.56796091  0.33401710  1
  Se  Se31  1  0.06417109  0.91980153  0.99945639  1
  Se  Se32  1  0.12135048  0.88609775  0.30164579  1
  Se  Se33  1  0.12613388  0.88366734  0.69279354  1
  Se  Se34  1  0.24498385  0.76769926  0.83651614  1
  Se  Se35  1  0.23639716  0.77362303  0.16003026  1
  Se  Se36  1  0.27083302  0.73670890  0.50091059  1
  Se  Se37  1  0.30748987  0.05159026  0.49858038  1
  Se  Se38  1  0.31471846  0.06884479  0.16597213  1
  Se  Se39  1  0.31150281  0.06575922  0.83452181  1
  Se  Se40  1  0.31834641  0.31669274  0.33534640  1
  Se  Se41  1  0.32292139  0.31392066  0.66209945  1
  Se  Se42  1  0.32983927  0.33027278  0.00100685  1
  Se  Se43  1  0.36919260  0.63994586  0.99472729  1
  Se  Se44  1  0.41086341  0.59637522  0.65070972  1
  Se  Se45  1  0.39117749  0.61606018  0.34934621  1
  Se  Se46  1  0.52574007  0.48594416  0.79040008  1
  Se  Se47  1  0.50480772  0.50271985  0.19133711  1
  Se  Se48  1  0.56634215  0.06700673  0.66851225  1
  Se  Se49  1  0.56859483  0.06585930  0.33185663  1
  Se  Se50  1  0.56968521  0.06904198  0.00111450  1
  Se  Se51  1  0.55960726  0.81307608  0.83442773  1
  Se  Se52  1  0.55836097  0.81008686  0.16719118  1
  Se  Se53  1  0.57065067  0.81757634  0.50049513  1
  Se  Se54  1  0.61849947  0.39046229  0.37591418  1
  Se  Se55  1  0.63583616  0.37178777  0.99586059  1
  Se  Se56  1  0.72384817  0.28164883  0.52368585  1
  Se  Se57  1  0.76149125  0.25042369  0.82881894  1
  Se  Se58  1  0.76707513  0.24165494  0.16480029  1
  Se  Se59  1  0.81437031  0.55990940  0.83255634  1
  Se  Se60  1  0.80960319  0.55644577  0.16865833  1
  Se  Se61  1  0.80319882  0.80301699  0.99972329  1
  Se  Se62  1  0.81582444  0.56938551  0.50617078  1
  Se  Se63  1  0.82897886  0.83054041  0.67053927  1
  Se  Se64  1  0.82339639  0.82344276  0.33159391  1
  Se  Se65  1  0.87886101  0.13167358  0.68740409  1
  Se  Se66  1  0.88021708  0.12742523  0.30890764  1
  Se  Se67  1  0.91352518  0.06974188  0.99871314  1
