# generated using pymatgen
data_Nd4Au2O9
_symmetry_space_group_name_H-M   'P 1'
_cell_length_a   6.15099162
_cell_length_b   11.97077328
_cell_length_c   11.98717303
_cell_angle_alpha   90.00000000
_cell_angle_beta   90.00000000
_cell_angle_gamma   90.00000000
_symmetry_Int_Tables_number   1
_chemical_formula_structural   Nd4Au2O9
_chemical_formula_sum   'Nd16 Au8 O36'
_cell_volume   882.64103649
_cell_formula_units_Z   4
loop_
 _symmetry_equiv_pos_site_id
 _symmetry_equiv_pos_as_xyz
  1  'x, y, z'
loop_
 _atom_site_type_symbol
 _atom_site_label
 _atom_site_symmetry_multiplicity
 _atom_site_fract_x
 _atom_site_fract_y
 _atom_site_fract_z
 _atom_site_occupancy
  Nd  Nd0  1  0.25770099  0.98824016  0.08944293  1
  Nd  Nd1  1  0.25770099  0.01175984  0.41055707  1
  Nd  Nd2  1  0.24229901  0.51175984  0.58944293  1
  Nd  Nd3  1  0.24229901  0.48824016  0.91055707  1
  Nd  Nd4  1  0.74229901  0.01175984  0.91055707  1
  Nd  Nd5  1  0.74229901  0.98824016  0.58944293  1
  Nd  Nd6  1  0.75770099  0.48824016  0.41055707  1
  Nd  Nd7  1  0.75770099  0.51175984  0.08944293  1
  Nd  Nd8  1  0.19760168  0.65936993  0.26430393  1
  Nd  Nd9  1  0.19760168  0.34063007  0.23569607  1
  Nd  Nd10  1  0.30239832  0.84063007  0.76430393  1
  Nd  Nd11  1  0.30239832  0.15936993  0.73569607  1
  Nd  Nd12  1  0.80239832  0.34063007  0.73569607  1
  Nd  Nd13  1  0.80239832  0.65936993  0.76430393  1
  Nd  Nd14  1  0.69760168  0.15936993  0.23569607  1
  Nd  Nd15  1  0.69760168  0.84063007  0.26430393  1
  Au  Au16  1  0.41920880  0.72846249  0.01084940  1
  Au  Au17  1  0.41920880  0.27153751  0.48915060  1
  Au  Au18  1  0.08079120  0.77153751  0.51084940  1
  Au  Au19  1  0.08079120  0.22846249  0.98915060  1
  Au  Au20  1  0.58079120  0.27153751  0.98915060  1
  Au  Au21  1  0.58079120  0.72846249  0.51084940  1
  Au  Au22  1  0.91920880  0.22846249  0.48915060  1
  Au  Au23  1  0.91920880  0.77153751  0.01084940  1
  O  O24  1  0.05909183  0.61647857  0.44662366  1
  O  O25  1  0.05909183  0.38352143  0.05337634  1
  O  O26  1  0.44090817  0.88352143  0.94662366  1
  O  O27  1  0.44090817  0.11647857  0.55337634  1
  O  O28  1  0.94090817  0.38352143  0.55337634  1
  O  O29  1  0.94090817  0.61647857  0.94662366  1
  O  O30  1  0.55909183  0.11647857  0.05337634  1
  O  O31  1  0.55909183  0.88352143  0.44662366  1
  O  O32  1  0.05975735  0.83634730  0.35317953  1
  O  O33  1  0.05975735  0.16365270  0.14682047  1
  O  O34  1  0.44024265  0.66365270  0.85317953  1
  O  O35  1  0.44024265  0.33634730  0.64682047  1
  O  O36  1  0.94024265  0.16365270  0.64682047  1
  O  O37  1  0.94024265  0.83634730  0.85317953  1
  O  O38  1  0.37502201  0.80225658  0.15743209  1
  O  O39  1  0.55975735  0.33634730  0.14682047  1
  O  O40  1  0.38637911  0.57777228  0.08801363  1
  O  O41  1  0.38637911  0.42222772  0.41198637  1
  O  O42  1  0.11362089  0.92222772  0.58801363  1
  O  O43  1  0.11362089  0.07777228  0.91198637  1
  O  O44  1  0.61362089  0.42222772  0.91198637  1
  O  O45  1  0.61362089  0.57777228  0.58801363  1
  O  O46  1  0.88637911  0.07777228  0.41198637  1
  O  O47  1  0.88637911  0.92222772  0.08801363  1
  O  O48  1  0.97594253  0.50000000  0.25000000  1
  O  O49  1  0.52405747  0.00000000  0.75000000  1
  O  O50  1  0.02405747  0.50000000  0.75000000  1
  O  O51  1  0.47594253  0.00000000  0.25000000  1
  O  O52  1  0.87502201  0.69774342  0.15743209  1
  O  O53  1  0.87502201  0.30225658  0.34256791  1
  O  O54  1  0.62497799  0.80225658  0.65743209  1
  O  O55  1  0.62497799  0.19774342  0.84256791  1
  O  O56  1  0.12497799  0.30225658  0.84256791  1
  O  O57  1  0.12497799  0.69774342  0.65743209  1
  O  O58  1  0.37502201  0.19774342  0.34256791  1
  O  O59  1  0.55975735  0.66365270  0.35317953  1
