# generated using pymatgen
data_CaUO4
_symmetry_space_group_name_H-M   'P 1'
_cell_length_a   6.30262153
_cell_length_b   6.30262153
_cell_length_c   6.30262242
_cell_angle_alpha   35.74067009
_cell_angle_beta   35.74067009
_cell_angle_gamma   35.74065895
_symmetry_Int_Tables_number   1
_chemical_formula_structural   CaUO4
_chemical_formula_sum   'Ca1 U1 O4'
_cell_volume   76.36816752
_cell_formula_units_Z   1
loop_
 _symmetry_equiv_pos_site_id
 _symmetry_equiv_pos_as_xyz
  1  'x, y, z'
loop_
 _atom_site_type_symbol
 _atom_site_label
 _atom_site_symmetry_multiplicity
 _atom_site_fract_x
 _atom_site_fract_y
 _atom_site_fract_z
 _atom_site_occupancy
  Ca  Ca0  1  0.50000000  0.50000000  0.50000000  1
  U  U1  1  -0.00000000  -0.00000000  0.00000000  1
  O  O2  1  0.63737492  0.63737492  0.63737492  1
  O  O3  1  0.36262508  0.36262508  0.36262508  1
  O  O4  1  0.11145794  0.11145794  0.11145794  1
  O  O5  1  0.88854206  0.88854206  0.88854206  1
