# generated using pymatgen
data_BaSi2O5
_symmetry_space_group_name_H-M   'P 1'
_cell_length_a   4.63950283
_cell_length_b   7.70750957
_cell_length_c   13.61777301
_cell_angle_alpha   90.00000000
_cell_angle_beta   90.00000000
_cell_angle_gamma   90.00000000
_symmetry_Int_Tables_number   1
_chemical_formula_structural   BaSi2O5
_chemical_formula_sum   'Ba4 Si8 O20'
_cell_volume   486.95811477
_cell_formula_units_Z   4
loop_
 _symmetry_equiv_pos_site_id
 _symmetry_equiv_pos_as_xyz
  1  'x, y, z'
loop_
 _atom_site_type_symbol
 _atom_site_label
 _atom_site_symmetry_multiplicity
 _atom_site_fract_x
 _atom_site_fract_y
 _atom_site_fract_z
 _atom_site_occupancy
  Ba  Ba0  1  0.27923631  0.75000000  0.04392350  1
  Ba  Ba1  1  0.77923631  0.25000000  0.45607650  1
  Ba  Ba2  1  0.72076369  0.25000000  0.95607650  1
  Ba  Ba3  1  0.22076369  0.75000000  0.54392350  1
  Si  Si4  1  0.64043922  0.04811814  0.68357119  1
  Si  Si5  1  0.14043922  0.95188186  0.81642881  1
  Si  Si6  1  0.35956078  0.54811814  0.31642881  1
  Si  Si7  1  0.85956078  0.45188186  0.18357119  1
  Si  Si8  1  0.35956078  0.95188186  0.31642881  1
  Si  Si9  1  0.85956078  0.04811814  0.18357119  1
  Si  Si10  1  0.64043922  0.45188186  0.68357119  1
  Si  Si11  1  0.14043922  0.54811814  0.81642881  1
  O  O12  1  0.84891268  0.05348788  0.78051159  1
  O  O13  1  0.34891268  0.94651212  0.71948841  1
  O  O14  1  0.15108732  0.55348788  0.21948841  1
  O  O15  1  0.65108732  0.44651212  0.28051159  1
  O  O16  1  0.15108732  0.94651212  0.21948841  1
  O  O17  1  0.65108732  0.05348788  0.28051159  1
  O  O18  1  0.84891268  0.44651212  0.78051159  1
  O  O19  1  0.34891268  0.55348788  0.71948841  1
  O  O20  1  0.76226507  0.96229391  0.58670974  1
  O  O21  1  0.26226507  0.03770609  0.91329026  1
  O  O22  1  0.23773493  0.46229391  0.41329026  1
  O  O23  1  0.73773493  0.53770609  0.08670974  1
  O  O24  1  0.04806881  0.75000000  0.83782269  1
  O  O25  1  0.54806881  0.25000000  0.66217731  1
  O  O26  1  0.95193119  0.25000000  0.16217731  1
  O  O27  1  0.45193119  0.75000000  0.33782269  1
  O  O28  1  0.26226507  0.46229391  0.91329026  1
  O  O29  1  0.76226507  0.53770609  0.58670974  1
  O  O30  1  0.73773493  0.96229391  0.08670974  1
  O  O31  1  0.23773493  0.03770609  0.41329026  1
