# generated using pymatgen
data_Dy2S3
_symmetry_space_group_name_H-M   'P 1'
_cell_length_a   21.58614464
_cell_length_b   8.31998302
_cell_length_c   8.32001958
_cell_angle_alpha   90.00251388
_cell_angle_beta   54.68446196
_cell_angle_gamma   54.68458485
_symmetry_Int_Tables_number   1
_chemical_formula_structural   Dy2S3
_chemical_formula_sum   'Dy16 S24'
_cell_volume   860.48571722
_cell_formula_units_Z   8
loop_
 _symmetry_equiv_pos_site_id
 _symmetry_equiv_pos_as_xyz
  1  'x, y, z'
loop_
 _atom_site_type_symbol
 _atom_site_label
 _atom_site_symmetry_multiplicity
 _atom_site_fract_x
 _atom_site_fract_y
 _atom_site_fract_z
 _atom_site_occupancy
  Dy  Dy0  1  0.99293235  0.11918522  0.77187608  1
  Dy  Dy1  1  0.08866245  0.61696501  0.36699548  1
  Dy  Dy2  1  0.16665078  0.25003689  0.63203715  1
  Dy  Dy3  1  0.34038502  0.38085159  0.25067194  1
  Dy  Dy4  1  0.24471277  0.88294396  0.13297298  1
  Dy  Dy5  1  0.16666798  0.75003056  0.86801109  1
  Dy  Dy6  1  0.34040716  0.09795793  0.72812743  1
  Dy  Dy7  1  0.49292436  0.27188792  0.61919711  1
  Dy  Dy8  1  0.66665111  0.36803768  0.25005580  1
  Dy  Dy9  1  0.58864896  0.86701554  0.11698716  1
  Dy  Dy10  1  0.66663700  0.13205794  0.75005613  1
  Dy  Dy11  1  0.49294559  0.74932919  0.90199826  1
  Dy  Dy12  1  0.74469776  0.63299620  0.38296655  1
  Dy  Dy13  1  0.84039999  0.22813914  0.59796727  1
  Dy  Dy14  1  0.99295056  0.40199229  0.24932290  1
  Dy  Dy15  1  0.84037507  0.75068399  0.88086762  1
  S  S16  1  0.04721796  0.99687951  0.36547304  1
  S  S17  1  0.13052744  0.48504226  0.98881983  1
  S  S18  1  0.04726748  0.36131915  0.49290212  1
  S  S19  1  0.28614844  0.13849624  0.13442596  1
  S  S20  1  0.28608547  0.50318187  0.00714425  1
  S  S21  1  0.20279753  0.01495782  0.88064990  1
  S  S22  1  0.13052127  0.62338144  0.61944214  1
  S  S23  1  0.38150837  0.00199853  0.34969039  1
  S  S24  1  0.20283324  0.87657290  0.51108832  1
  S  S25  1  0.45179538  0.49431392  0.99803370  1
  S  S26  1  0.38152900  0.35338998  0.50572690  1
  S  S27  1  0.63050668  0.11946219  0.12340795  1
  S  S28  1  0.63051325  0.48884134  0.98506063  1
  S  S29  1  0.54725619  0.99291061  0.86134459  1
  S  S30  1  0.45182728  0.65026771  0.64654480  1
  S  S31  1  0.70281911  0.01110938  0.37659409  1
  S  S32  1  0.54720837  0.86548530  0.49689054  1
  S  S33  1  0.78607574  0.50716097  0.00319436  1
  S  S34  1  0.70278406  0.38066983  0.51497228  1
  S  S35  1  0.95183032  0.14654192  0.15025818  1
  S  S36  1  0.95179792  0.49802963  0.99431152  1
  S  S37  1  0.78613833  0.63444198  0.63851733  1
  S  S38  1  0.88152577  0.00573336  0.85338976  1
  S  S39  1  0.88150249  0.84969909  0.50200749  1
