# generated using pymatgen
data_PrNbO4
_symmetry_space_group_name_H-M   'P 1'
_cell_length_a   5.22914676
_cell_length_b   5.51902924
_cell_length_c   6.80212035
_cell_angle_alpha   112.33363174
_cell_angle_beta   110.94252298
_cell_angle_gamma   93.83210583
_symmetry_Int_Tables_number   1
_chemical_formula_structural   PrNbO4
_chemical_formula_sum   'Pr2 Nb2 O8'
_cell_volume   164.85447073
_cell_formula_units_Z   2
loop_
 _symmetry_equiv_pos_site_id
 _symmetry_equiv_pos_as_xyz
  1  'x, y, z'
loop_
 _atom_site_type_symbol
 _atom_site_label
 _atom_site_symmetry_multiplicity
 _atom_site_fract_x
 _atom_site_fract_y
 _atom_site_fract_z
 _atom_site_occupancy
  Pr  Pr0  1  0.87895259  0.12890569  0.75784106  1
  Pr  Pr1  1  0.12104741  0.87109431  0.24215894  1
  Nb  Nb2  1  0.35616391  0.60618488  0.71246249  1
  Nb  Nb3  1  0.64383609  0.39381512  0.28753751  1
  O  O4  1  0.30016458  0.14075849  0.08542520  1
  O  O5  1  0.78513691  0.44460079  0.08528689  1
  O  O6  1  0.69983542  0.85924151  0.91457480  1
  O  O7  1  0.21486309  0.55539921  0.91471311  1
  O  O8  1  0.52029746  0.70917107  0.43479735  1
  O  O9  1  0.91456444  0.22582295  0.43488560  1
  O  O10  1  0.47970254  0.29082893  0.56520265  1
  O  O11  1  0.08543556  0.77417705  0.56511440  1
