# generated using pymatgen
data_Ca2SiO4
_symmetry_space_group_name_H-M   'P 1'
_cell_length_a   5.08711656
_cell_length_b   6.75454416
_cell_length_c   11.23729743
_cell_angle_alpha   90.00000000
_cell_angle_beta   90.00000000
_cell_angle_gamma   90.00000000
_symmetry_Int_Tables_number   1
_chemical_formula_structural   Ca2SiO4
_chemical_formula_sum   'Ca8 Si4 O16'
_cell_volume   386.12650137
_cell_formula_units_Z   4
loop_
 _symmetry_equiv_pos_site_id
 _symmetry_equiv_pos_as_xyz
  1  'x, y, z'
loop_
 _atom_site_type_symbol
 _atom_site_label
 _atom_site_symmetry_multiplicity
 _atom_site_fract_x
 _atom_site_fract_y
 _atom_site_fract_z
 _atom_site_occupancy
  Ca  Ca0  1  0.49049144  0.75000000  0.78049962  1
  Ca  Ca1  1  0.99049144  0.25000000  0.71950038  1
  Ca  Ca2  1  0.50950856  0.25000000  0.21950038  1
  Ca  Ca3  1  0.00950856  0.75000000  0.28049962  1
  Ca  Ca4  1  0.50000000  0.50000000  0.50000000  1
  Ca  Ca5  1  0.00000000  0.50000000  -0.00000000  1
  Ca  Ca6  1  0.50000000  0.00000000  0.50000000  1
  Ca  Ca7  1  0.00000000  0.00000000  -0.00000000  1
  Si  Si8  1  0.92726151  0.75000000  0.59622558  1
  Si  Si9  1  0.42726151  0.25000000  0.90377442  1
  Si  Si10  1  0.07273849  0.25000000  0.40377442  1
  Si  Si11  1  0.57273849  0.75000000  0.09622558  1
  O  O12  1  0.20304126  0.44456001  0.33801316  1
  O  O13  1  0.70304126  0.55543999  0.16198684  1
  O  O14  1  0.79695874  0.94456001  0.66198684  1
  O  O15  1  0.29695874  0.05543999  0.83801316  1
  O  O16  1  0.79695874  0.55543999  0.66198684  1
  O  O17  1  0.29695874  0.44456001  0.83801316  1
  O  O18  1  0.20304126  0.05543999  0.33801316  1
  O  O19  1  0.70304126  0.94456001  0.16198684  1
  O  O20  1  0.79784059  0.75000000  0.46091837  1
  O  O21  1  0.29784059  0.25000000  0.03908163  1
  O  O22  1  0.20215941  0.25000000  0.53908163  1
  O  O23  1  0.70215941  0.75000000  0.96091837  1
  O  O24  1  0.25303831  0.75000000  0.09292389  1
  O  O25  1  0.75303831  0.25000000  0.40707611  1
  O  O26  1  0.74696169  0.25000000  0.90707611  1
  O  O27  1  0.24696169  0.75000000  0.59292389  1
