# generated using pymatgen
data_CrAgS2
_symmetry_space_group_name_H-M   'P 1'
_cell_length_a   7.08252043
_cell_length_b   7.08252017
_cell_length_c   7.08252062
_cell_angle_alpha   28.85884759
_cell_angle_beta   28.85884319
_cell_angle_gamma   28.85885205
_symmetry_Int_Tables_number   1
_chemical_formula_structural   CrAgS2
_chemical_formula_sum   'Cr1 Ag1 S2'
_cell_volume   73.18795795
_cell_formula_units_Z   1
loop_
 _symmetry_equiv_pos_site_id
 _symmetry_equiv_pos_as_xyz
  1  'x, y, z'
loop_
 _atom_site_type_symbol
 _atom_site_label
 _atom_site_symmetry_multiplicity
 _atom_site_fract_x
 _atom_site_fract_y
 _atom_site_fract_z
 _atom_site_occupancy
  Cr  Cr0  1  0.00064051  0.00064051  0.00064051  1
  Ag  Ag1  1  0.15429228  0.15429228  0.15429228  1
  S  S2  1  0.73379960  0.73379960  0.73379960  1
  S  S3  1  0.27266660  0.27266660  0.27266660  1
