# generated using pymatgen
data_NaSbO3
_symmetry_space_group_name_H-M   'P 1'
_cell_length_a   6.10526814
_cell_length_b   6.10526812
_cell_length_c   6.10526780
_cell_angle_alpha   51.53023186
_cell_angle_beta   51.53023643
_cell_angle_gamma   51.53022470
_symmetry_Int_Tables_number   1
_chemical_formula_structural   NaSbO3
_chemical_formula_sum   'Na2 Sb2 O6'
_cell_volume   128.83098378
_cell_formula_units_Z   2
loop_
 _symmetry_equiv_pos_site_id
 _symmetry_equiv_pos_as_xyz
  1  'x, y, z'
loop_
 _atom_site_type_symbol
 _atom_site_label
 _atom_site_symmetry_multiplicity
 _atom_site_fract_x
 _atom_site_fract_y
 _atom_site_fract_z
 _atom_site_occupancy
  Na  Na0  1  0.63984321  0.63984321  0.63984321  1
  Na  Na1  1  0.36015679  0.36015679  0.36015679  1
  Sb  Sb2  1  0.83938555  0.83938555  0.83938555  1
  Sb  Sb3  1  0.16061445  0.16061445  0.16061445  1
  O  O4  1  0.95843985  0.19354317  0.56029371  1
  O  O5  1  0.19354317  0.56029371  0.95843985  1
  O  O6  1  0.56029371  0.95843985  0.19354317  1
  O  O7  1  0.04156015  0.80645683  0.43970629  1
  O  O8  1  0.43970629  0.04156015  0.80645683  1
  O  O9  1  0.80645683  0.43970629  0.04156015  1
