# generated using pymatgen
data_Na2SO4
_symmetry_space_group_name_H-M   'P 1'
_cell_length_a   5.65505031
_cell_length_b   5.65504963
_cell_length_c   6.76083777
_cell_angle_alpha   102.80605339
_cell_angle_beta   102.80604188
_cell_angle_gamma   118.03516548
_symmetry_Int_Tables_number   1
_chemical_formula_structural   Na2SO4
_chemical_formula_sum   'Na4 S2 O8'
_cell_volume   172.24202152
_cell_formula_units_Z   2
loop_
 _symmetry_equiv_pos_site_id
 _symmetry_equiv_pos_as_xyz
  1  'x, y, z'
loop_
 _atom_site_type_symbol
 _atom_site_label
 _atom_site_symmetry_multiplicity
 _atom_site_fract_x
 _atom_site_fract_y
 _atom_site_fract_z
 _atom_site_occupancy
  Na  Na0  1  0.55975852  0.44024148  0.25000000  1
  Na  Na1  1  0.19024148  0.80975852  0.25000000  1
  Na  Na2  1  0.80975852  0.19024148  0.75000000  1
  Na  Na3  1  0.44024148  0.55975852  0.75000000  1
  S  S4  1  0.87500000  0.12500000  0.25000000  1
  S  S5  1  0.12500000  0.87500000  0.75000000  1
  O  O6  1  0.24987275  0.18002374  0.88681412  1
  O  O7  1  0.29321063  0.86305963  0.61318588  1
  O  O8  1  0.81997626  0.75012725  0.61318588  1
  O  O9  1  0.13694037  0.70678937  0.88681412  1
  O  O10  1  0.75012725  0.81997626  0.11318588  1
  O  O11  1  0.70678937  0.13694037  0.38681412  1
  O  O12  1  0.86305963  0.29321063  0.11318588  1
  O  O13  1  0.18002374  0.24987275  0.38681412  1
