# generated using pymatgen
data_K3TaO8
_symmetry_space_group_name_H-M   'P 1'
_cell_length_a   6.18747620
_cell_length_b   6.18747620
_cell_length_c   6.18747620
_cell_angle_alpha   113.20287230
_cell_angle_beta   113.20287230
_cell_angle_gamma   102.24099184
_symmetry_Int_Tables_number   1
_chemical_formula_structural   K3TaO8
_chemical_formula_sum   'K3 Ta1 O8'
_cell_volume   180.21599920
_cell_formula_units_Z   1
loop_
 _symmetry_equiv_pos_site_id
 _symmetry_equiv_pos_as_xyz
  1  'x, y, z'
loop_
 _atom_site_type_symbol
 _atom_site_label
 _atom_site_symmetry_multiplicity
 _atom_site_fract_x
 _atom_site_fract_y
 _atom_site_fract_z
 _atom_site_occupancy
  K  K0  1  0.25000000  0.75000000  0.50000000  1
  K  K1  1  0.75000000  0.25000000  0.50000000  1
  K  K2  1  0.50000000  0.50000000  0.00000000  1
  Ta  Ta3  1  -0.00000000  -0.00000000  0.00000000  1
  O  O4  1  0.33126267  0.33126267  0.28081170  1
  O  O5  1  0.66873733  0.94954903  -0.00000000  1
  O  O6  1  0.94954903  0.66873733  -0.00000000  1
  O  O7  1  0.05045097  0.05045097  0.71918830  1
  O  O8  1  0.23237749  0.23237749  0.42649348  1
  O  O9  1  0.76762251  0.19411599  0.00000000  1
  O  O10  1  0.19411599  0.76762251  -0.00000000  1
  O  O11  1  0.80588401  0.80588401  0.57350652  1
