# generated using pymatgen
data_Cd(PO3)2
_symmetry_space_group_name_H-M   'P 1'
_cell_length_a   7.02821019
_cell_length_b   9.65122415
_cell_length_c   13.68849481
_cell_angle_alpha   90.00000000
_cell_angle_beta   90.00000000
_cell_angle_gamma   90.00000000
_symmetry_Int_Tables_number   1
_chemical_formula_structural   Cd(PO3)2
_chemical_formula_sum   'Cd8 P16 O48'
_cell_volume   928.50199065
_cell_formula_units_Z   8
loop_
 _symmetry_equiv_pos_site_id
 _symmetry_equiv_pos_as_xyz
  1  'x, y, z'
loop_
 _atom_site_type_symbol
 _atom_site_label
 _atom_site_symmetry_multiplicity
 _atom_site_fract_x
 _atom_site_fract_y
 _atom_site_fract_z
 _atom_site_occupancy
  Cd  Cd0  1  0.55084657  0.99237770  0.29389606  1
  Cd  Cd1  1  0.05084657  0.50762230  0.70610394  1
  Cd  Cd2  1  0.44915343  0.49237770  0.20610394  1
  Cd  Cd3  1  0.94915343  0.00762230  0.79389606  1
  Cd  Cd4  1  0.44915343  0.00762230  0.70610394  1
  Cd  Cd5  1  0.94915343  0.49237770  0.29389606  1
  Cd  Cd6  1  0.55084657  0.50762230  0.79389606  1
  Cd  Cd7  1  0.05084657  0.99237770  0.20610394  1
  P  P8  1  0.08426195  0.30125877  0.09698733  1
  P  P9  1  0.58426195  0.19874123  0.90301267  1
  P  P10  1  0.91573805  0.80125877  0.40301267  1
  P  P11  1  0.41573805  0.69874123  0.59698733  1
  P  P12  1  0.91573805  0.69874123  0.90301267  1
  P  P13  1  0.41573805  0.80125877  0.09698733  1
  P  P14  1  0.08426195  0.19874123  0.59698733  1
  P  P15  1  0.58426195  0.30125877  0.40301267  1
  P  P16  1  0.68541425  0.21075772  0.10599690  1
  P  P17  1  0.18541425  0.28924228  0.89400310  1
  P  P18  1  0.31458575  0.71075772  0.39400310  1
  P  P19  1  0.81458575  0.78924228  0.60599690  1
  P  P20  1  0.31458575  0.78924228  0.89400310  1
  P  P21  1  0.81458575  0.71075772  0.10599690  1
  P  P22  1  0.68541425  0.28924228  0.60599690  1
  P  P23  1  0.18541425  0.21075772  0.39400310  1
  O  O24  1  0.65816286  0.13472673  0.00315343  1
  O  O25  1  0.15816286  0.36527327  0.99684657  1
  O  O26  1  0.34183714  0.63472673  0.49684657  1
  O  O27  1  0.84183714  0.86527327  0.50315343  1
  O  O28  1  0.34183714  0.86527327  0.99684657  1
  O  O29  1  0.84183714  0.63472673  0.00315343  1
  O  O30  1  0.65816286  0.36527327  0.50315343  1
  O  O31  1  0.15816286  0.13472673  0.49684657  1
  O  O32  1  0.85830490  0.31433335  0.08792333  1
  O  O33  1  0.35830490  0.18566665  0.91207667  1
  O  O34  1  0.14169510  0.81433335  0.41207667  1
  O  O35  1  0.64169510  0.68566665  0.58792333  1
  O  O36  1  0.14169510  0.68566665  0.91207667  1
  O  O37  1  0.64169510  0.81433335  0.08792333  1
  O  O38  1  0.85830490  0.18566665  0.58792333  1
  O  O39  1  0.35830490  0.31433335  0.41207667  1
  O  O40  1  0.13898080  0.15359575  0.10315002  1
  O  O41  1  0.14035535  0.40194523  0.17540481  1
  O  O42  1  0.63898080  0.34640425  0.89684998  1
  O  O43  1  0.36101920  0.84640425  0.60315002  1
  O  O44  1  0.86101920  0.84640425  0.89684998  1
  O  O45  1  0.36101920  0.65359575  0.10315002  1
  O  O46  1  0.13898080  0.34640425  0.60315002  1
  O  O47  1  0.63898080  0.15359575  0.39684998  1
  O  O48  1  0.01597774  0.29619525  0.37260009  1
  O  O49  1  0.51597774  0.20380475  0.62739991  1
  O  O50  1  0.98402226  0.79619525  0.12739991  1
  O  O51  1  0.48402226  0.70380475  0.87260009  1
  O  O52  1  0.98402226  0.70380475  0.62739991  1
  O  O53  1  0.48402226  0.79619525  0.37260009  1
  O  O54  1  0.01597774  0.20380475  0.87260009  1
  O  O55  1  0.51597774  0.29619525  0.12739991  1
  O  O56  1  0.24311590  0.10047242  0.32269742  1
  O  O57  1  0.74311590  0.39952758  0.67730258  1
  O  O58  1  0.75688410  0.60047242  0.17730258  1
  O  O59  1  0.25688410  0.89952758  0.82269742  1
  O  O60  1  0.75688410  0.89952758  0.67730258  1
  O  O61  1  0.25688410  0.60047242  0.32269742  1
  O  O62  1  0.24311590  0.39952758  0.82269742  1
  O  O63  1  0.74311590  0.10047242  0.17730258  1
  O  O64  1  0.64035535  0.40194523  0.32459519  1
  O  O65  1  0.14035535  0.09805477  0.67540481  1
  O  O66  1  0.35964465  0.90194523  0.17540481  1
  O  O67  1  0.85964465  0.59805477  0.82459519  1
  O  O68  1  0.35964465  0.59805477  0.67540481  1
  O  O69  1  0.85964465  0.90194523  0.32459519  1
  O  O70  1  0.64035535  0.09805477  0.82459519  1
  O  O71  1  0.86101920  0.65359575  0.39684998  1
