# generated using pymatgen
data_BaZnO2
_symmetry_space_group_name_H-M   'P 1'
_cell_length_a   5.90980663
_cell_length_b   5.90980643
_cell_length_c   6.75263671
_cell_angle_alpha   90.00000000
_cell_angle_beta   90.00000000
_cell_angle_gamma   120.00000104
_symmetry_Int_Tables_number   1
_chemical_formula_structural   BaZnO2
_chemical_formula_sum   'Ba3 Zn3 O6'
_cell_volume   204.24457975
_cell_formula_units_Z   3
loop_
 _symmetry_equiv_pos_site_id
 _symmetry_equiv_pos_as_xyz
  1  'x, y, z'
loop_
 _atom_site_type_symbol
 _atom_site_label
 _atom_site_symmetry_multiplicity
 _atom_site_fract_x
 _atom_site_fract_y
 _atom_site_fract_z
 _atom_site_occupancy
  Ba  Ba0  1  0.65403572  0.00000000  0.83333300  1
  Ba  Ba1  1  -0.00000000  0.65403572  0.16666700  1
  Ba  Ba2  1  0.34596428  0.34596428  0.50000000  1
  Zn  Zn3  1  0.41623821  0.41623821  0.00000000  1
  Zn  Zn4  1  -0.00000000  0.58376179  0.66666700  1
  Zn  Zn5  1  0.58376179  0.00000000  0.33333300  1
  O  O6  1  0.12940896  0.42522116  0.87324555  1
  O  O7  1  0.57477884  0.70418881  0.20657855  1
  O  O8  1  0.29581119  0.87059104  0.53991255  1
  O  O9  1  0.70418881  0.57477884  0.79342145  1
  O  O10  1  0.42522116  0.12940896  0.12675445  1
  O  O11  1  0.87059104  0.29581119  0.46008745  1
