# generated using pymatgen
data_CaGe2O5
_symmetry_space_group_name_H-M   'P 1'
_cell_length_a   5.73313539
_cell_length_b   7.32176262
_cell_length_c   8.30649173
_cell_angle_alpha   90.00000000
_cell_angle_beta   90.00000000
_cell_angle_gamma   90.00000000
_symmetry_Int_Tables_number   1
_chemical_formula_structural   CaGe2O5
_chemical_formula_sum   'Ca4 Ge8 O20'
_cell_volume   348.67874919
_cell_formula_units_Z   4
loop_
 _symmetry_equiv_pos_site_id
 _symmetry_equiv_pos_as_xyz
  1  'x, y, z'
loop_
 _atom_site_type_symbol
 _atom_site_label
 _atom_site_symmetry_multiplicity
 _atom_site_fract_x
 _atom_site_fract_y
 _atom_site_fract_z
 _atom_site_occupancy
  Ca  Ca0  1  0.50000000  0.36491093  0.16618790  1
  Ca  Ca1  1  0.50000000  0.63508907  0.83381210  1
  Ca  Ca2  1  0.50000000  0.86491093  0.33381210  1
  Ca  Ca3  1  0.50000000  0.13508907  0.66618790  1
  Ge  Ge4  1  -0.00000000  0.60866451  0.14585716  1
  Ge  Ge5  1  -0.00000000  0.39133549  0.85414284  1
  Ge  Ge6  1  -0.00000000  0.10866451  0.35414284  1
  Ge  Ge7  1  -0.00000000  0.89133549  0.64585716  1
  Ge  Ge8  1  0.25316579  0.50000000  0.50000000  1
  Ge  Ge9  1  0.74683421  -0.00000000  -0.00000000  1
  Ge  Ge10  1  0.74683421  0.50000000  0.50000000  1
  Ge  Ge11  1  0.25316579  -0.00000000  -0.00000000  1
  O  O12  1  -0.00000000  0.84354566  0.07207269  1
  O  O13  1  -0.00000000  0.15645434  0.92792731  1
  O  O14  1  -0.00000000  0.34354566  0.42792731  1
  O  O15  1  -0.00000000  0.65645434  0.57207269  1
  O  O16  1  0.50000000  0.34259667  0.44485278  1
  O  O17  1  0.50000000  0.65740333  0.55514722  1
  O  O18  1  0.50000000  0.84259667  0.05514722  1
  O  O19  1  0.50000000  0.15740333  0.94485278  1
  O  O20  1  0.20809732  0.50000000  -0.00000000  1
  O  O21  1  0.79190268  -0.00000000  0.50000000  1
  O  O22  1  0.79190268  0.50000000  -0.00000000  1
  O  O23  1  0.20809732  -0.00000000  0.50000000  1
  O  O24  1  0.23969106  0.10593316  0.20733360  1
  O  O25  1  0.23969106  0.89406684  0.79266640  1
  O  O26  1  0.76030894  0.60593316  0.29266640  1
  O  O27  1  0.76030894  0.39406684  0.70733360  1
  O  O28  1  0.76030894  0.89406684  0.79266640  1
  O  O29  1  0.76030894  0.10593316  0.20733360  1
  O  O30  1  0.23969106  0.39406684  0.70733360  1
  O  O31  1  0.23969106  0.60593316  0.29266640  1
