# generated using pymatgen
data_Al2SiO5
_symmetry_space_group_name_H-M   'P 1'
_cell_length_a   5.55410567
_cell_length_b   7.78363494
_cell_length_c   7.88722262
_cell_angle_alpha   90.00000000
_cell_angle_beta   90.00000000
_cell_angle_gamma   90.00000000
_symmetry_Int_Tables_number   1
_chemical_formula_structural   Al2SiO5
_chemical_formula_sum   'Al8 Si4 O20'
_cell_volume   340.97355394
_cell_formula_units_Z   4
loop_
 _symmetry_equiv_pos_site_id
 _symmetry_equiv_pos_as_xyz
  1  'x, y, z'
loop_
 _atom_site_type_symbol
 _atom_site_label
 _atom_site_symmetry_multiplicity
 _atom_site_fract_x
 _atom_site_fract_y
 _atom_site_fract_z
 _atom_site_occupancy
  Al  Al0  1  0.24209740  -0.00000000  0.00000000  1
  Al  Al1  1  0.25790260  0.50000000  0.50000000  1
  Al  Al2  1  0.75790260  -0.00000000  0.00000000  1
  Al  Al3  1  0.74209740  0.50000000  0.50000000  1
  Al  Al4  1  -0.00000000  0.12991407  0.63841289  1
  Al  Al5  1  -0.00000000  0.87008593  0.36158711  1
  Al  Al6  1  0.50000000  0.62991407  0.86158711  1
  Al  Al7  1  0.50000000  0.37008593  0.13841289  1
  Si  Si8  1  -0.00000000  0.24584417  0.25125965  1
  Si  Si9  1  -0.00000000  0.75415583  0.74874035  1
  Si  Si10  1  0.50000000  0.74584417  0.24874035  1
  Si  Si11  1  0.50000000  0.25415583  0.75125965  1
  O  O12  1  0.73989111  0.72939958  0.36711378  1
  O  O13  1  0.73989111  0.27060042  0.63288622  1
  O  O14  1  0.76010889  0.22939958  0.13288622  1
  O  O15  1  0.76010889  0.77060042  0.86711378  1
  O  O16  1  0.26010889  0.27060042  0.63288622  1
  O  O17  1  0.26010889  0.72939958  0.36711378  1
  O  O18  1  0.23989111  0.77060042  0.86711378  1
  O  O19  1  0.23989111  0.22939958  0.13288622  1
  O  O20  1  0.50000000  0.39730810  0.90010190  1
  O  O21  1  0.50000000  0.60269190  0.09989810  1
  O  O22  1  -0.00000000  0.89730810  0.59989810  1
  O  O23  1  -0.00000000  0.10269190  0.40010190  1
  O  O24  1  0.50000000  0.42286416  0.36255778  1
  O  O25  1  0.50000000  0.57713584  0.63744222  1
  O  O26  1  -0.00000000  0.92286416  0.13744222  1
  O  O27  1  -0.00000000  0.07713584  0.86255778  1
  O  O28  1  -0.00000000  0.42467471  0.36221944  1
  O  O29  1  -0.00000000  0.57532529  0.63778056  1
  O  O30  1  0.50000000  0.92467471  0.13778056  1
  O  O31  1  0.50000000  0.07532529  0.86221944  1
