# generated using pymatgen
data_LaGaS3
_symmetry_space_group_name_H-M   'P 1'
_cell_length_a   10.57888155
_cell_length_b   10.38992345
_cell_length_c   12.88081913
_cell_angle_alpha   81.27400840
_cell_angle_beta   90.00000000
_cell_angle_gamma   90.00000000
_symmetry_Int_Tables_number   1
_chemical_formula_structural   LaGaS3
_chemical_formula_sum   'La12 Ga12 S36'
_cell_volume   1399.39197510
_cell_formula_units_Z   12
loop_
 _symmetry_equiv_pos_site_id
 _symmetry_equiv_pos_as_xyz
  1  'x, y, z'
loop_
 _atom_site_type_symbol
 _atom_site_label
 _atom_site_symmetry_multiplicity
 _atom_site_fract_x
 _atom_site_fract_y
 _atom_site_fract_z
 _atom_site_occupancy
  La  La0  1  0.03011759  0.05663273  0.67263277  1
  La  La1  1  0.53011759  0.94336727  0.82736723  1
  La  La2  1  0.96988241  0.94336727  0.32736723  1
  La  La3  1  0.46988241  0.05663273  0.17263277  1
  La  La4  1  0.05327799  0.48545987  0.67504421  1
  La  La5  1  0.55327799  0.51454013  0.82495579  1
  La  La6  1  0.94672201  0.51454013  0.32495579  1
  La  La7  1  0.44672201  0.48545987  0.17504421  1
  La  La8  1  0.14474040  0.81189132  0.05726551  1
  La  La9  1  0.64474040  0.18810868  0.44273449  1
  La  La10  1  0.85525960  0.18810868  0.94273449  1
  La  La11  1  0.35525960  0.81189132  0.55726551  1
  Ga  Ga12  1  0.08228747  0.25325221  0.14635519  1
  Ga  Ga13  1  0.58228747  0.74674779  0.35364481  1
  Ga  Ga14  1  0.91771253  0.74674779  0.85364481  1
  Ga  Ga15  1  0.41771253  0.25325221  0.64635519  1
  Ga  Ga16  1  0.22995010  0.19845809  0.42423672  1
  Ga  Ga17  1  0.72995010  0.80154191  0.07576328  1
  Ga  Ga18  1  0.77004990  0.80154191  0.57576328  1
  Ga  Ga19  1  0.27004990  0.19845809  0.92423672  1
  Ga  Ga20  1  0.25279166  0.68512933  0.83105556  1
  Ga  Ga21  1  0.75279166  0.31487067  0.66894444  1
  Ga  Ga22  1  0.74720834  0.31487067  0.16894444  1
  Ga  Ga23  1  0.24720834  0.68512933  0.33105556  1
  S  S24  1  0.23468013  0.89255582  0.24989849  1
  S  S25  1  0.73468013  0.10744418  0.25010151  1
  S  S26  1  0.76531987  0.10744418  0.75010151  1
  S  S27  1  0.26531987  0.89255582  0.74989849  1
  S  S28  1  0.27680664  0.29585303  0.07456086  1
  S  S29  1  0.77680664  0.70414697  0.42543914  1
  S  S30  1  0.72319336  0.70414697  0.92543914  1
  S  S31  1  0.22319336  0.29585303  0.57456086  1
  S  S32  1  0.31054471  0.56340176  0.70630505  1
  S  S33  1  0.81054471  0.43659824  0.79369495  1
  S  S34  1  0.68945529  0.43659824  0.29369495  1
  S  S35  1  0.18945529  0.56340176  0.20630505  1
  S  S36  1  0.33674696  0.99475858  0.98621615  1
  S  S37  1  0.83674696  0.00524142  0.51378385  1
  S  S38  1  0.44859639  0.24853833  0.82293199  1
  S  S39  1  0.66325304  0.00524142  0.01378385  1
  S  S40  1  0.40862626  0.66768490  0.95583300  1
  S  S41  1  0.90862626  0.33231510  0.54416700  1
  S  S42  1  0.59137374  0.33231510  0.04416700  1
  S  S43  1  0.09137374  0.66768490  0.45583300  1
  S  S44  1  0.40600621  0.24700872  0.32682280  1
  S  S45  1  0.90600621  0.75299128  0.17317720  1
  S  S46  1  0.59399379  0.75299128  0.67317720  1
  S  S47  1  0.09399379  0.24700872  0.82682280  1
  S  S48  1  0.01614804  0.06119045  0.10780415  1
  S  S49  1  0.51614804  0.93880955  0.39219585  1
  S  S50  1  0.98385196  0.93880955  0.89219585  1
  S  S51  1  0.48385196  0.06119045  0.60780415  1
  S  S52  1  0.07534390  0.60295968  0.91463183  1
  S  S53  1  0.57534390  0.39704032  0.58536817  1
  S  S54  1  0.92465610  0.39704032  0.08536817  1
  S  S55  1  0.42465610  0.60295968  0.41463183  1
  S  S56  1  0.05140361  0.24853833  0.32293199  1
  S  S57  1  0.55140361  0.75146167  0.17706801  1
  S  S58  1  0.94859639  0.75146167  0.67706801  1
  S  S59  1  0.16325304  0.99475858  0.48621615  1
