# generated using pymatgen
data_CaSc2O4
_symmetry_space_group_name_H-M   'P 1'
_cell_length_a   3.14637618
_cell_length_b   9.46110334
_cell_length_c   11.12515248
_cell_angle_alpha   90.00000000
_cell_angle_beta   90.00000000
_cell_angle_gamma   90.00000000
_symmetry_Int_Tables_number   1
_chemical_formula_structural   CaSc2O4
_chemical_formula_sum   'Ca4 Sc8 O16'
_cell_volume   331.17565487
_cell_formula_units_Z   4
loop_
 _symmetry_equiv_pos_site_id
 _symmetry_equiv_pos_as_xyz
  1  'x, y, z'
loop_
 _atom_site_type_symbol
 _atom_site_label
 _atom_site_symmetry_multiplicity
 _atom_site_fract_x
 _atom_site_fract_y
 _atom_site_fract_z
 _atom_site_occupancy
  Ca  Ca0  1  0.75000000  0.25569394  0.84715428  1
  Ca  Ca1  1  0.25000000  0.74430606  0.15284572  1
  Ca  Ca2  1  0.75000000  0.75569394  0.65284572  1
  Ca  Ca3  1  0.25000000  0.24430606  0.34715428  1
  Sc  Sc4  1  0.25000000  0.58041309  0.89305287  1
  Sc  Sc5  1  0.75000000  0.41958691  0.10694713  1
  Sc  Sc6  1  0.25000000  0.08041309  0.60694713  1
  Sc  Sc7  1  0.75000000  0.91958691  0.39305287  1
  Sc  Sc8  1  0.75000000  0.92995490  0.88755765  1
  Sc  Sc9  1  0.25000000  0.07004510  0.11244235  1
  Sc  Sc10  1  0.75000000  0.42995490  0.61244235  1
  Sc  Sc11  1  0.25000000  0.57004510  0.38755765  1
  O  O12  1  0.25000000  0.58007740  0.57562465  1
  O  O13  1  0.75000000  0.41992260  0.42437535  1
  O  O14  1  0.25000000  0.08007740  0.92437535  1
  O  O15  1  0.75000000  0.91992260  0.07562465  1
  O  O16  1  0.25000000  0.47757592  0.21618875  1
  O  O17  1  0.75000000  0.52242408  0.78381125  1
  O  O18  1  0.25000000  0.97757592  0.28381125  1
  O  O19  1  0.75000000  0.02242408  0.71618875  1
  O  O20  1  0.25000000  0.87639857  0.52396573  1
  O  O21  1  0.75000000  0.12360143  0.47603427  1
  O  O22  1  0.25000000  0.37639857  0.97603427  1
  O  O23  1  0.75000000  0.62360143  0.02396573  1
  O  O24  1  0.75000000  0.70750208  0.32790443  1
  O  O25  1  0.25000000  0.29249792  0.67209557  1
  O  O26  1  0.75000000  0.20750208  0.17209557  1
  O  O27  1  0.25000000  0.79249792  0.82790443  1
