# generated using pymatgen
data_Li7VN4
_symmetry_space_group_name_H-M   'P 1'
_cell_length_a   9.50955386
_cell_length_b   9.50955386
_cell_length_c   9.50955386
_cell_angle_alpha   90.00000000
_cell_angle_beta   90.00000000
_cell_angle_gamma   90.00000000
_symmetry_Int_Tables_number   1
_chemical_formula_structural   Li7VN4
_chemical_formula_sum   'Li56 V8 N32'
_cell_volume   859.96430984
_cell_formula_units_Z   8
loop_
 _symmetry_equiv_pos_site_id
 _symmetry_equiv_pos_as_xyz
  1  'x, y, z'
loop_
 _atom_site_type_symbol
 _atom_site_label
 _atom_site_symmetry_multiplicity
 _atom_site_fract_x
 _atom_site_fract_y
 _atom_site_fract_z
 _atom_site_occupancy
  Li  Li0  1  0.51611587  0.73655036  0.75010388  1
  Li  Li1  1  0.51611587  0.26344964  0.24989612  1
  Li  Li2  1  0.73655036  0.75010388  0.51611587  1
  Li  Li3  1  0.26344964  0.75010388  0.48388413  1
  Li  Li4  1  0.75010388  0.51611587  0.73655036  1
  Li  Li5  1  0.24989612  0.48388413  0.73655036  1
  Li  Li6  1  0.98388413  0.74989612  0.23655036  1
  Li  Li7  1  0.98388413  0.25010388  0.76344964  1
  Li  Li8  1  0.01611587  0.74989612  0.76344964  1
  Li  Li9  1  0.25010388  0.76344964  0.98388413  1
  Li  Li10  1  0.76344964  0.01611587  0.74989612  1
  Li  Li11  1  0.76344964  0.98388413  0.25010388  1
  Li  Li12  1  0.74989612  0.23655036  0.98388413  1
  Li  Li13  1  0.23655036  0.98388413  0.74989612  1
  Li  Li14  1  0.74989612  0.76344964  0.01611587  1
  Li  Li15  1  0.25010388  0.23655036  0.01611587  1
  Li  Li16  1  0.23655036  0.01611587  0.25010388  1
  Li  Li17  1  0.24989612  0.51611587  0.26344964  1
  Li  Li18  1  0.75010388  0.48388413  0.26344964  1
  Li  Li19  1  0.73655036  0.24989612  0.48388413  1
  Li  Li20  1  0.26344964  0.24989612  0.51611587  1
  Li  Li21  1  0.48388413  0.26344964  0.75010388  1
  Li  Li22  1  0.48388413  0.73655036  0.24989612  1
  Li  Li23  1  0.50000000  0.25000000  0.00000000  1
  Li  Li24  1  0.01611587  0.25010388  0.23655036  1
  Li  Li25  1  0.73399175  0.26600825  0.73399175  1
  Li  Li26  1  0.26600825  0.73399175  0.73399175  1
  Li  Li27  1  0.73399175  0.73399175  0.26600825  1
  Li  Li28  1  0.76600825  0.23399175  0.23399175  1
  Li  Li29  1  0.23399175  0.23399175  0.76600825  1
  Li  Li30  1  0.23399175  0.76600825  0.23399175  1
  Li  Li31  1  0.26600825  0.26600825  0.26600825  1
  Li  Li32  1  0.00000000  0.50000000  0.00000000  1
  Li  Li33  1  0.50000000  0.00000000  0.00000000  1
  Li  Li34  1  0.50000000  0.50000000  0.00000000  1
  Li  Li35  1  0.00000000  0.50000000  0.50000000  1
  Li  Li36  1  0.50000000  0.00000000  0.50000000  1
  Li  Li37  1  0.00000000  0.00000000  0.50000000  1
  Li  Li38  1  0.75000000  0.00000000  0.50000000  1
  Li  Li39  1  0.50000000  0.75000000  0.00000000  1
  Li  Li40  1  0.23539270  0.50000000  0.50000000  1
  Li  Li41  1  0.26460730  0.00000000  0.00000000  1
  Li  Li42  1  0.00000000  0.00000000  0.73539270  1
  Li  Li43  1  0.00000000  0.00000000  0.26460730  1
  Li  Li44  1  0.00000000  0.26460730  0.00000000  1
  Li  Li45  1  0.00000000  0.73539270  0.00000000  1
  Li  Li46  1  0.50000000  0.23539270  0.50000000  1
  Li  Li47  1  0.50000000  0.50000000  0.23539270  1
  Li  Li48  1  0.50000000  0.76460730  0.50000000  1
  Li  Li49  1  0.50000000  0.50000000  0.76460730  1
  Li  Li50  1  0.76460730  0.50000000  0.50000000  1
  Li  Li51  1  0.73539270  0.00000000  0.00000000  1
  Li  Li52  1  0.25000000  0.00000000  0.50000000  1
  Li  Li53  1  0.00000000  0.50000000  0.75000000  1
  Li  Li54  1  0.00000000  0.50000000  0.25000000  1
  Li  Li55  1  0.76600825  0.76600825  0.76600825  1
  V  V56  1  0.75000000  0.50000000  0.00000000  1
  V  V57  1  0.00000000  0.75000000  0.50000000  1
  V  V58  1  0.00000000  0.25000000  0.50000000  1
  V  V59  1  0.50000000  0.00000000  0.25000000  1
  V  V60  1  0.50000000  0.00000000  0.75000000  1
  V  V61  1  0.25000000  0.50000000  0.00000000  1
  V  V62  1  0.50000000  0.50000000  0.50000000  1
  V  V63  1  0.00000000  0.00000000  0.00000000  1
  N  N64  1  0.61640017  0.89141922  0.64185278  1
  N  N65  1  0.61640017  0.10858078  0.35814722  1
  N  N66  1  0.89141922  0.64185278  0.61640017  1
  N  N67  1  0.10858078  0.64185278  0.38359983  1
  N  N68  1  0.64185278  0.61640017  0.89141922  1
  N  N69  1  0.35814722  0.38359983  0.89141922  1
  N  N70  1  0.88359983  0.85814722  0.39141922  1
  N  N71  1  0.88359983  0.14185278  0.60858078  1
  N  N72  1  0.11640017  0.85814722  0.60858078  1
  N  N73  1  0.14185278  0.60858078  0.88359983  1
  N  N74  1  0.60858078  0.11640017  0.85814722  1
  N  N75  1  0.60858078  0.88359983  0.14185278  1
  N  N76  1  0.85814722  0.39141922  0.88359983  1
  N  N77  1  0.39141922  0.88359983  0.85814722  1
  N  N78  1  0.85814722  0.60858078  0.11640017  1
  N  N79  1  0.14185278  0.39141922  0.11640017  1
  N  N80  1  0.39141922  0.11640017  0.14185278  1
  N  N81  1  0.35814722  0.61640017  0.10858078  1
  N  N82  1  0.64185278  0.38359983  0.10858078  1
  N  N83  1  0.89141922  0.35814722  0.38359983  1
  N  N84  1  0.10858078  0.35814722  0.61640017  1
  N  N85  1  0.38359983  0.10858078  0.64185278  1
  N  N86  1  0.38359983  0.89141922  0.35814722  1
  N  N87  1  0.11640017  0.14185278  0.39141922  1
  N  N88  1  0.88928070  0.88928070  0.88928070  1
  N  N89  1  0.61071930  0.38928070  0.61071930  1
  N  N90  1  0.38928070  0.61071930  0.61071930  1
  N  N91  1  0.61071930  0.61071930  0.38928070  1
  N  N92  1  0.88928070  0.11071930  0.11071930  1
  N  N93  1  0.11071930  0.11071930  0.88928070  1
  N  N94  1  0.11071930  0.88928070  0.11071930  1
  N  N95  1  0.38928070  0.38928070  0.38928070  1
