# generated using pymatgen
data_Hg3(BO3)2
_symmetry_space_group_name_H-M   'P 1'
_cell_length_a   6.76469558
_cell_length_b   6.76469558
_cell_length_c   6.76469598
_cell_angle_alpha   83.19331532
_cell_angle_beta   83.19331532
_cell_angle_gamma   83.19331021
_symmetry_Int_Tables_number   1
_chemical_formula_structural   Hg3(BO3)2
_chemical_formula_sum   'Hg6 B4 O12'
_cell_volume   303.49333290
_cell_formula_units_Z   2
loop_
 _symmetry_equiv_pos_site_id
 _symmetry_equiv_pos_as_xyz
  1  'x, y, z'
loop_
 _atom_site_type_symbol
 _atom_site_label
 _atom_site_symmetry_multiplicity
 _atom_site_fract_x
 _atom_site_fract_y
 _atom_site_fract_z
 _atom_site_occupancy
  Hg  Hg0  1  0.75000000  0.10437880  0.39562120  1
  Hg  Hg1  1  0.39562120  0.75000000  0.10437880  1
  Hg  Hg2  1  0.10437880  0.39562120  0.75000000  1
  Hg  Hg3  1  0.25000000  0.89562120  0.60437880  1
  Hg  Hg4  1  0.60437880  0.25000000  0.89562120  1
  Hg  Hg5  1  0.89562120  0.60437880  0.25000000  1
  B  B6  1  0.11210511  0.11210511  0.11210511  1
  B  B7  1  0.88789489  0.88789489  0.88789489  1
  B  B8  1  0.61210511  0.61210511  0.61210511  1
  B  B9  1  0.38789489  0.38789489  0.38789489  1
  O  O10  1  0.71187866  0.96207259  0.99026932  1
  O  O11  1  0.99026932  0.71187866  0.96207259  1
  O  O12  1  0.96207259  0.99026932  0.71187866  1
  O  O13  1  0.53792741  0.78812134  0.50973068  1
  O  O14  1  0.78812134  0.50973068  0.53792741  1
  O  O15  1  0.50973068  0.53792741  0.78812134  1
  O  O16  1  0.00973068  0.28812134  0.03792741  1
  O  O17  1  0.28812134  0.03792741  0.00973068  1
  O  O18  1  0.03792741  0.00973068  0.28812134  1
  O  O19  1  0.21187866  0.49026932  0.46207259  1
  O  O20  1  0.49026932  0.46207259  0.21187866  1
  O  O21  1  0.46207259  0.21187866  0.49026932  1
