# generated using pymatgen
data_Al2SiO5
_symmetry_space_group_name_H-M   'P 1'
_cell_length_a   5.76742386
_cell_length_b   7.49185802
_cell_length_c   7.66267377
_cell_angle_alpha   90.00000000
_cell_angle_beta   90.00000000
_cell_angle_gamma   90.00000000
_symmetry_Int_Tables_number   1
_chemical_formula_structural   Al2SiO5
_chemical_formula_sum   'Al8 Si4 O20'
_cell_volume   331.09433075
_cell_formula_units_Z   4
loop_
 _symmetry_equiv_pos_site_id
 _symmetry_equiv_pos_as_xyz
  1  'x, y, z'
loop_
 _atom_site_type_symbol
 _atom_site_label
 _atom_site_symmetry_multiplicity
 _atom_site_fract_x
 _atom_site_fract_y
 _atom_site_fract_z
 _atom_site_occupancy
  Al  Al0  1  -0.00000000  0.00000000  0.00000000  1
  Al  Al1  1  0.50000000  0.00000000  0.00000000  1
  Al  Al2  1  -0.00000000  0.50000000  0.50000000  1
  Al  Al3  1  0.50000000  0.50000000  0.50000000  1
  Al  Al4  1  0.25000000  0.35750815  0.84442356  1
  Al  Al5  1  0.75000000  0.64249185  0.15557644  1
  Al  Al6  1  0.75000000  0.85750815  0.65557644  1
  Al  Al7  1  0.25000000  0.14249185  0.34442356  1
  Si  Si8  1  0.75000000  0.15367686  0.33989614  1
  Si  Si9  1  0.25000000  0.84632314  0.66010386  1
  Si  Si10  1  0.25000000  0.65367686  0.16010386  1
  Si  Si11  1  0.75000000  0.34632314  0.83989614  1
  O  O12  1  0.01418241  0.62583642  0.27792947  1
  O  O13  1  0.51418241  0.37416358  0.72207053  1
  O  O14  1  0.98581759  0.12583642  0.22207053  1
  O  O15  1  0.48581759  0.87416358  0.77792947  1
  O  O16  1  0.98581759  0.37416358  0.72207053  1
  O  O17  1  0.48581759  0.62583642  0.27792947  1
  O  O18  1  0.01418241  0.87416358  0.77792947  1
  O  O19  1  0.51418241  0.12583642  0.22207053  1
  O  O20  1  0.75000000  0.02277548  0.50160614  1
  O  O21  1  0.25000000  0.97722452  0.49839386  1
  O  O22  1  0.25000000  0.52277548  0.99839386  1
  O  O23  1  0.75000000  0.47722452  0.00160614  1
  O  O24  1  0.75000000  0.36049044  0.40882984  1
  O  O25  1  0.25000000  0.63950956  0.59117016  1
  O  O26  1  0.25000000  0.86049044  0.09117016  1
  O  O27  1  0.75000000  0.13950956  0.90882984  1
  O  O28  1  0.25000000  0.35705954  0.43281497  1
  O  O29  1  0.75000000  0.64294046  0.56718503  1
  O  O30  1  0.75000000  0.85705954  0.06718503  1
  O  O31  1  0.25000000  0.14294046  0.93281497  1
