# generated using pymatgen
data_GaPO4
_symmetry_space_group_name_H-M   'P 1'
_cell_length_a   4.89630813
_cell_length_b   4.89632767
_cell_length_c   11.08969510
_cell_angle_alpha   90.00023010
_cell_angle_beta   89.99965901
_cell_angle_gamma   119.99772049
_symmetry_Int_Tables_number   1
_chemical_formula_structural   GaPO4
_chemical_formula_sum   'Ga3 P3 O12'
_cell_volume   230.24988769
_cell_formula_units_Z   3
loop_
 _symmetry_equiv_pos_site_id
 _symmetry_equiv_pos_as_xyz
  1  'x, y, z'
loop_
 _atom_site_type_symbol
 _atom_site_label
 _atom_site_symmetry_multiplicity
 _atom_site_fract_x
 _atom_site_fract_y
 _atom_site_fract_z
 _atom_site_occupancy
  Ga  Ga0  1  0.54466601  0.54466510  -0.00000149  1
  Ga  Ga1  1  -0.00000901  0.45533102  0.66667077  1
  Ga  Ga2  1  0.45532672  -0.00000755  0.33332999  1
  P  P3  1  0.54515182  0.54515189  0.50000102  1
  P  P4  1  0.00001157  0.45485789  0.16665614  1
  P  P5  1  0.45485782  0.00000789  0.83334155  1
  O  O6  1  0.27422467  0.40762715  0.12890201  1
  O  O7  1  0.59236122  0.86658897  0.46223042  1
  O  O8  1  0.13340578  0.72578107  0.79556368  1
  O  O9  1  0.86659053  0.59237172  0.53777092  1
  O  O10  1  0.72578425  0.13340344  0.20443801  1
  O  O11  1  0.40762577  0.27422467  0.87109620  1
  O  O12  1  0.40833065  0.32109767  0.39226321  1
  O  O13  1  0.67891047  0.08722675  0.72559503  1
  O  O14  1  0.91276165  0.59167294  0.05893331  1
  O  O15  1  0.08722931  0.67890862  0.27440546  1
  O  O16  1  0.59167473  0.91276303  0.94106741  1
  O  O17  1  0.32109604  0.40832972  0.60773734  1
