# generated using pymatgen
data_BNF8
_symmetry_space_group_name_H-M   'P 1'
_cell_length_a   9.69647241
_cell_length_b   9.69647241
_cell_length_c   5.05408612
_cell_angle_alpha   90.00000000
_cell_angle_beta   90.00000000
_cell_angle_gamma   90.00000000
_symmetry_Int_Tables_number   1
_chemical_formula_structural   BNF8
_chemical_formula_sum   'B4 N4 F32'
_cell_volume   475.19314830
_cell_formula_units_Z   4
loop_
 _symmetry_equiv_pos_site_id
 _symmetry_equiv_pos_as_xyz
  1  'x, y, z'
loop_
 _atom_site_type_symbol
 _atom_site_label
 _atom_site_symmetry_multiplicity
 _atom_site_fract_x
 _atom_site_fract_y
 _atom_site_fract_z
 _atom_site_occupancy
  B  B0  1  0.24348077  0.25651923  0.60088304  1
  B  B1  1  0.74348077  0.24348077  0.39911696  1
  B  B2  1  0.25651923  0.75651923  0.39911696  1
  B  B3  1  0.75651923  0.74348077  0.60088304  1
  N  N4  1  0.00000000  0.00000000  -0.00000000  1
  N  N5  1  0.50000000  0.50000000  -0.00000000  1
  N  N6  1  0.00000000  0.50000000  0.95942459  1
  N  N7  1  0.50000000  0.00000000  0.04057541  1
  F  F8  1  0.94588400  0.90243622  0.15238996  1
  F  F9  1  0.09756378  0.94588400  0.84761004  1
  F  F10  1  0.90243622  0.05411600  0.84761004  1
  F  F11  1  0.05411600  0.09756378  0.15238996  1
  F  F12  1  0.44588400  0.59756378  0.84761004  1
  F  F13  1  0.55411600  0.40243622  0.84761004  1
  F  F14  1  0.40243622  0.44588400  0.15238996  1
  F  F15  1  0.59756378  0.55411600  0.15238996  1
  F  F16  1  0.07950302  0.42049698  0.10993284  1
  F  F17  1  0.57950302  0.07950302  0.89006716  1
  F  F18  1  0.42049698  0.92049698  0.89006716  1
  F  F19  1  0.92049698  0.57950302  0.10993284  1
  F  F20  1  0.07898199  0.57898199  0.80756911  1
  F  F21  1  0.42101801  0.07898199  0.19243089  1
  F  F22  1  0.57898199  0.92101801  0.19243089  1
  F  F23  1  0.92101801  0.42101801  0.80756911  1
  F  F24  1  0.27809918  0.38977175  0.68996054  1
  F  F25  1  0.61022825  0.27809918  0.31003946  1
  F  F26  1  0.38977175  0.72190082  0.31003946  1
  F  F27  1  0.72190082  0.61022825  0.68996054  1
  F  F28  1  0.77809918  0.11022825  0.31003946  1
  F  F29  1  0.22190082  0.88977175  0.31003946  1
  F  F30  1  0.88977175  0.77809918  0.68996054  1
  F  F31  1  0.11022825  0.22190082  0.68996054  1
  F  F32  1  0.24419925  0.25580075  0.32228800  1
  F  F33  1  0.74419925  0.24419925  0.67771200  1
  F  F34  1  0.25580075  0.75580075  0.67771200  1
  F  F35  1  0.75580075  0.74419925  0.32228800  1
  F  F36  1  0.33929492  0.16070508  0.69763671  1
  F  F37  1  0.83929492  0.33929492  0.30236329  1
  F  F38  1  0.16070508  0.66070508  0.30236329  1
  F  F39  1  0.66070508  0.83929492  0.69763671  1
