# generated using pymatgen
data_MgGeO3
_symmetry_space_group_name_H-M   'P 1'
_cell_length_a   5.33724565
_cell_length_b   8.92147031
_cell_length_c   18.81824604
_cell_angle_alpha   90.00000000
_cell_angle_beta   90.00000000
_cell_angle_gamma   90.00000000
_symmetry_Int_Tables_number   1
_chemical_formula_structural   MgGeO3
_chemical_formula_sum   'Mg16 Ge16 O48'
_cell_volume   896.05108262
_cell_formula_units_Z   16
loop_
 _symmetry_equiv_pos_site_id
 _symmetry_equiv_pos_as_xyz
  1  'x, y, z'
loop_
 _atom_site_type_symbol
 _atom_site_label
 _atom_site_symmetry_multiplicity
 _atom_site_fract_x
 _atom_site_fract_y
 _atom_site_fract_z
 _atom_site_occupancy
  Mg  Mg0  1  0.65132437  0.65739386  0.87683026  1
  Mg  Mg1  1  0.15132437  0.34260614  0.62316974  1
  Mg  Mg2  1  0.84867563  0.15739386  0.12316974  1
  Mg  Mg3  1  0.34867563  0.84260614  0.37683026  1
  Mg  Mg4  1  0.34867563  0.34260614  0.12316974  1
  Mg  Mg5  1  0.84867563  0.65739386  0.37683026  1
  Mg  Mg6  1  0.15132437  0.84260614  0.87683026  1
  Mg  Mg7  1  0.65132437  0.15739386  0.62316974  1
  Mg  Mg8  1  0.65881385  0.51064076  0.62271414  1
  Mg  Mg9  1  0.15881385  0.48935924  0.87728586  1
  Mg  Mg10  1  0.84118615  0.01064076  0.37728586  1
  Mg  Mg11  1  0.34118615  0.98935924  0.12271414  1
  Mg  Mg12  1  0.34118615  0.48935924  0.37728586  1
  Mg  Mg13  1  0.84118615  0.51064076  0.12271414  1
  Mg  Mg14  1  0.15881385  0.98935924  0.62271414  1
  Mg  Mg15  1  0.65881385  0.01064076  0.87728586  1
  Ge  Ge16  1  0.96126041  0.65449197  0.72916951  1
  Ge  Ge17  1  0.46126041  0.34550803  0.77083049  1
  Ge  Ge18  1  0.53873959  0.15449197  0.27083049  1
  Ge  Ge19  1  0.03873959  0.84550803  0.22916951  1
  Ge  Ge20  1  0.03873959  0.34550803  0.27083049  1
  Ge  Ge21  1  0.53873959  0.65449197  0.22916951  1
  Ge  Ge22  1  0.46126041  0.84550803  0.72916951  1
  Ge  Ge23  1  0.96126041  0.15449197  0.77083049  1
  Ge  Ge24  1  0.19440879  0.65997802  0.52789514  1
  Ge  Ge25  1  0.69440879  0.34002198  0.97210486  1
  Ge  Ge26  1  0.30559121  0.15997802  0.47210486  1
  Ge  Ge27  1  0.80559121  0.84002198  0.02789514  1
  Ge  Ge28  1  0.80559121  0.34002198  0.47210486  1
  Ge  Ge29  1  0.30559121  0.65997802  0.02789514  1
  Ge  Ge30  1  0.69440879  0.84002198  0.52789514  1
  Ge  Ge31  1  0.19440879  0.15997802  0.97210486  1
  O  O32  1  0.37127902  0.32284556  0.94411734  1
  O  O33  1  0.87127902  0.67715444  0.55588266  1
  O  O34  1  0.12872098  0.82284556  0.05588266  1
  O  O35  1  0.62872098  0.17715444  0.44411734  1
  O  O36  1  0.62872098  0.67715444  0.05588266  1
  O  O37  1  0.12872098  0.32284556  0.44411734  1
  O  O38  1  0.87127902  0.17715444  0.94411734  1
  O  O39  1  0.37127902  0.82284556  0.55588266  1
  O  O40  1  0.33159342  0.01129613  0.93009303  1
  O  O41  1  0.83159342  0.98870387  0.56990697  1
  O  O42  1  0.16840658  0.51129613  0.06990697  1
  O  O43  1  0.66840658  0.48870387  0.43009303  1
  O  O44  1  0.66840658  0.98870387  0.06990697  1
  O  O45  1  0.16840658  0.01129613  0.43009303  1
  O  O46  1  0.83159342  0.48870387  0.93009303  1
  O  O47  1  0.33159342  0.51129613  0.56990697  1
  O  O48  1  0.18352104  0.16213230  0.06479698  1
  O  O49  1  0.68352104  0.83786770  0.43520302  1
  O  O50  1  0.31647896  0.66213230  0.93520302  1
  O  O51  1  0.96754367  0.98402703  0.81273946  1
  O  O52  1  0.81647896  0.33786770  0.56479698  1
  O  O53  1  0.31647896  0.16213230  0.56479698  1
  O  O54  1  0.68352104  0.33786770  0.06479698  1
  O  O55  1  0.18352104  0.66213230  0.43520302  1
  O  O56  1  0.16254009  0.29215867  0.80719197  1
  O  O57  1  0.66254009  0.70784133  0.69280803  1
  O  O58  1  0.33745991  0.79215867  0.19280803  1
  O  O59  1  0.83745991  0.20784133  0.30719197  1
  O  O60  1  0.83745991  0.70784133  0.19280803  1
  O  O61  1  0.33745991  0.29215867  0.30719197  1
  O  O62  1  0.66254009  0.20784133  0.80719197  1
  O  O63  1  0.16254009  0.79215867  0.69280803  1
  O  O64  1  0.98133499  0.65996331  0.82106799  1
  O  O65  1  0.48133499  0.34003669  0.67893201  1
  O  O66  1  0.51866501  0.15996331  0.17893201  1
  O  O67  1  0.01866501  0.84003669  0.32106799  1
  O  O68  1  0.01866501  0.34003669  0.17893201  1
  O  O69  1  0.51866501  0.65996331  0.32106799  1
  O  O70  1  0.48133499  0.84003669  0.82106799  1
  O  O71  1  0.98133499  0.15996331  0.67893201  1
  O  O72  1  0.96754367  0.48402703  0.68726054  1
  O  O73  1  0.46754367  0.51597297  0.81273946  1
  O  O74  1  0.53245633  0.98402703  0.31273946  1
  O  O75  1  0.03245633  0.01597297  0.18726054  1
  O  O76  1  0.03245633  0.51597297  0.31273946  1
  O  O77  1  0.53245633  0.48402703  0.18726054  1
  O  O78  1  0.46754367  0.01597297  0.68726054  1
  O  O79  1  0.81647896  0.83786770  0.93520302  1
