# generated using pymatgen
data_Ca2SnO4
_symmetry_space_group_name_H-M   'P 1'
_cell_length_a   3.27437889
_cell_length_b   5.75895943
_cell_length_c   9.73023626
_cell_angle_alpha   90.00000000
_cell_angle_beta   90.00000000
_cell_angle_gamma   90.00000000
_symmetry_Int_Tables_number   1
_chemical_formula_structural   Ca2SnO4
_chemical_formula_sum   'Ca4 Sn2 O8'
_cell_volume   183.48321292
_cell_formula_units_Z   2
loop_
 _symmetry_equiv_pos_site_id
 _symmetry_equiv_pos_as_xyz
  1  'x, y, z'
loop_
 _atom_site_type_symbol
 _atom_site_label
 _atom_site_symmetry_multiplicity
 _atom_site_fract_x
 _atom_site_fract_y
 _atom_site_fract_z
 _atom_site_occupancy
  Ca  Ca0  1  0.50000000  0.07036214  0.31849329  1
  Ca  Ca1  1  0.50000000  0.92963786  0.68150671  1
  Ca  Ca2  1  0.50000000  0.42963786  0.81849329  1
  Ca  Ca3  1  0.50000000  0.57036214  0.18150671  1
  Sn  Sn4  1  -0.00000000  -0.00000000  -0.00000000  1
  Sn  Sn5  1  0.00000000  0.50000000  0.50000000  1
  O  O6  1  -0.00000000  0.13547632  0.80717784  1
  O  O7  1  0.00000000  0.86452368  0.19282216  1
  O  O8  1  0.00000000  0.63547632  0.69282216  1
  O  O9  1  0.00000000  0.36452368  0.30717784  1
  O  O10  1  0.50000000  0.27265835  0.54808630  1
  O  O11  1  0.50000000  0.72734165  0.45191370  1
  O  O12  1  0.50000000  0.22734165  0.04808630  1
  O  O13  1  0.50000000  0.77265835  0.95191370  1
