# generated using pymatgen
data_Hg3AsO4
_symmetry_space_group_name_H-M   'P 1'
_cell_length_a   5.12340039
_cell_length_b   8.94887383
_cell_length_c   14.51027393
_cell_angle_alpha   57.58308483
_cell_angle_beta   90.00000000
_cell_angle_gamma   90.00000000
_symmetry_Int_Tables_number   1
_chemical_formula_structural   Hg3AsO4
_chemical_formula_sum   'Hg12 As4 O16'
_cell_volume   561.60640546
_cell_formula_units_Z   4
loop_
 _symmetry_equiv_pos_site_id
 _symmetry_equiv_pos_as_xyz
  1  'x, y, z'
loop_
 _atom_site_type_symbol
 _atom_site_label
 _atom_site_symmetry_multiplicity
 _atom_site_fract_x
 _atom_site_fract_y
 _atom_site_fract_z
 _atom_site_occupancy
  Hg  Hg0  1  0.15966218  0.44738142  0.37491877  1
  Hg  Hg1  1  0.34914309  0.72547275  0.96123401  1
  Hg  Hg2  1  0.15085691  0.72547275  0.46123401  1
  Hg  Hg3  1  0.65085691  0.27452725  0.03876599  1
  Hg  Hg4  1  0.84914309  0.27452725  0.53876599  1
  Hg  Hg5  1  0.65966218  0.55261858  0.12508123  1
  Hg  Hg6  1  0.84033782  0.55261858  0.62508123  1
  Hg  Hg7  1  0.34033782  0.44738142  0.87491877  1
  Hg  Hg8  1  0.35557432  0.96199840  0.58245447  1
  Hg  Hg9  1  0.85557432  0.03800160  0.91754553  1
  Hg  Hg10  1  0.64442568  0.03800160  0.41754553  1
  Hg  Hg11  1  0.14442568  0.96199840  0.08245447  1
  As  As12  1  0.13309924  0.23043211  0.22589695  1
  As  As13  1  0.86690076  0.76956789  0.77410305  1
  As  As14  1  0.63309924  0.76956789  0.27410305  1
  As  As15  1  0.36690076  0.23043211  0.72589695  1
  O  O16  1  0.53582304  0.76415707  0.77106415  1
  O  O17  1  0.03582304  0.23584293  0.72893585  1
  O  O18  1  0.46417696  0.23584293  0.22893585  1
  O  O19  1  0.96417696  0.76415707  0.27106415  1
  O  O20  1  0.96177541  0.77712453  0.88404710  1
  O  O21  1  0.46177541  0.22287547  0.61595290  1
  O  O22  1  0.03822459  0.22287547  0.11595290  1
  O  O23  1  0.53822459  0.77712453  0.38404710  1
  O  O24  1  0.97410404  0.95120382  0.65536933  1
  O  O25  1  0.51393132  0.58376834  0.28137404  1
  O  O26  1  0.02589596  0.04879618  0.34463067  1
  O  O27  1  0.52589596  0.95120382  0.15536933  1
  O  O28  1  0.98606868  0.58376834  0.78137404  1
  O  O29  1  0.48606868  0.41623166  0.71862596  1
  O  O30  1  0.01393132  0.41623166  0.21862596  1
  O  O31  1  0.47410404  0.04879618  0.84463067  1
