# generated using pymatgen
data_Na6Sn2S7
_symmetry_space_group_name_H-M   'P 1'
_cell_length_a   7.13473263
_cell_length_b   7.13473263
_cell_length_c   15.15429896
_cell_angle_alpha   79.85856480
_cell_angle_beta   79.85856480
_cell_angle_gamma   97.29782477
_symmetry_Int_Tables_number   1
_chemical_formula_structural   Na6Sn2S7
_chemical_formula_sum   'Na12 Sn4 S14'
_cell_volume   737.49595191
_cell_formula_units_Z   2
loop_
 _symmetry_equiv_pos_site_id
 _symmetry_equiv_pos_as_xyz
  1  'x, y, z'
loop_
 _atom_site_type_symbol
 _atom_site_label
 _atom_site_symmetry_multiplicity
 _atom_site_fract_x
 _atom_site_fract_y
 _atom_site_fract_z
 _atom_site_occupancy
  Na  Na0  1  0.95398761  0.24109728  0.42644314  1
  Na  Na1  1  0.75890272  0.04601239  0.07355686  1
  Na  Na2  1  0.04601239  0.75890272  0.57355686  1
  Na  Na3  1  0.24109728  0.95398761  0.92644314  1
  Na  Na4  1  0.49939112  0.95859723  0.63641100  1
  Na  Na5  1  0.04140277  0.50060888  0.86358900  1
  Na  Na6  1  0.43171512  0.56828488  0.25000000  1
  Na  Na7  1  0.56828488  0.43171512  0.75000000  1
  Na  Na8  1  0.50000000  0.50000000  -0.00000000  1
  Na  Na9  1  0.50000000  0.50000000  0.50000000  1
  Na  Na10  1  0.50060888  0.04140277  0.36358900  1
  Na  Na11  1  0.95859723  0.49939112  0.13641100  1
  Sn  Sn12  1  0.24823813  0.07088054  0.13586788  1
  Sn  Sn13  1  0.92911946  0.75176187  0.36413212  1
  Sn  Sn14  1  0.75176187  0.92911946  0.86413212  1
  Sn  Sn15  1  0.07088054  0.24823813  0.63586788  1
  S  S16  1  0.77060378  0.31336634  0.60291165  1
  S  S17  1  0.22939622  0.68663366  0.39708835  1
  S  S18  1  0.85823948  0.73342374  0.98488385  1
  S  S19  1  0.26657626  0.14176052  0.51511615  1
  S  S20  1  0.14176052  0.26657626  0.01511615  1
  S  S21  1  0.73342374  0.85823948  0.48488385  1
  S  S22  1  0.75754758  0.48843378  0.31991581  1
  S  S23  1  0.51156622  0.24245242  0.18008419  1
  S  S24  1  0.24245242  0.51156622  0.68008419  1
  S  S25  1  0.48843378  0.75754758  0.81991581  1
  S  S26  1  0.95350222  0.04649778  0.25000000  1
  S  S27  1  0.04649778  0.95350222  0.75000000  1
  S  S28  1  0.31336634  0.77060378  0.10291165  1
  S  S29  1  0.68663366  0.22939622  0.89708835  1
