# generated using pymatgen
data_PrRhO3
_symmetry_space_group_name_H-M   'P 1'
_cell_length_a   5.40540234
_cell_length_b   5.82736449
_cell_length_c   7.84373387
_cell_angle_alpha   90.00000000
_cell_angle_beta   90.00000000
_cell_angle_gamma   90.00000000
_symmetry_Int_Tables_number   1
_chemical_formula_structural   PrRhO3
_chemical_formula_sum   'Pr4 Rh4 O12'
_cell_volume   247.07173136
_cell_formula_units_Z   4
loop_
 _symmetry_equiv_pos_site_id
 _symmetry_equiv_pos_as_xyz
  1  'x, y, z'
loop_
 _atom_site_type_symbol
 _atom_site_label
 _atom_site_symmetry_multiplicity
 _atom_site_fract_x
 _atom_site_fract_y
 _atom_site_fract_z
 _atom_site_occupancy
  Pr  Pr0  1  0.47774623  0.57276281  0.75000000  1
  Pr  Pr1  1  0.97774623  0.92723719  0.25000000  1
  Pr  Pr2  1  0.02225377  0.07276281  0.75000000  1
  Pr  Pr3  1  0.52225377  0.42723719  0.25000000  1
  Rh  Rh4  1  0.50000000  -0.00000000  0.50000000  1
  Rh  Rh5  1  0.00000000  0.50000000  0.50000000  1
  Rh  Rh6  1  0.00000000  0.50000000  0.00000000  1
  Rh  Rh7  1  0.50000000  -0.00000000  0.00000000  1
  O  O8  1  0.81194674  0.19765115  0.44915213  1
  O  O9  1  0.31194674  0.30234885  0.55084787  1
  O  O10  1  0.68805326  0.69765115  0.05084787  1
  O  O11  1  0.18805326  0.80234885  0.94915213  1
  O  O12  1  0.18805326  0.80234885  0.55084787  1
  O  O13  1  0.68805326  0.69765115  0.44915213  1
  O  O14  1  0.31194674  0.30234885  0.94915213  1
  O  O15  1  0.81194674  0.19765115  0.05084787  1
  O  O16  1  0.39629993  0.03004231  0.25000000  1
  O  O17  1  0.89629993  0.46995769  0.75000000  1
  O  O18  1  0.10370007  0.53004231  0.25000000  1
  O  O19  1  0.60370007  0.96995769  0.75000000  1
