# generated using pymatgen
data_CeTl5Ni2(NO2)12
_symmetry_space_group_name_H-M   'P 1'
_cell_length_a   10.93336200
_cell_length_b   10.93336200
_cell_length_c   10.93336200
_cell_angle_alpha   90.00000000
_cell_angle_beta   90.00000000
_cell_angle_gamma   90.00000000
_symmetry_Int_Tables_number   1
_chemical_formula_structural   CeTl5Ni2(NO2)12
_chemical_formula_sum   'Ce2 Tl10 Ni4 N24 O48'
_cell_volume   1306.95665065
_cell_formula_units_Z   2
loop_
 _symmetry_equiv_pos_site_id
 _symmetry_equiv_pos_as_xyz
  1  'x, y, z'
loop_
 _atom_site_type_symbol
 _atom_site_label
 _atom_site_symmetry_multiplicity
 _atom_site_fract_x
 _atom_site_fract_y
 _atom_site_fract_z
 _atom_site_occupancy
  Ce  Ce0  1  0.25000000  0.25000000  0.25000000  1
  Ce  Ce1  1  0.75000000  0.75000000  0.75000000  1
  Tl  Tl2  1  0.50000000  0.50000000  0.00000000  1
  Tl  Tl3  1  0.50000000  0.00000000  0.50000000  1
  Tl  Tl4  1  0.25000000  0.75000000  0.75000000  1
  Tl  Tl5  1  0.75000000  0.25000000  0.25000000  1
  Tl  Tl6  1  0.75000000  0.25000000  0.75000000  1
  Tl  Tl7  1  0.00000000  0.00000000  0.00000000  1
  Tl  Tl8  1  0.75000000  0.75000000  0.25000000  1
  Tl  Tl9  1  0.25000000  0.75000000  0.25000000  1
  Tl  Tl10  1  0.00000000  0.50000000  0.50000000  1
  Tl  Tl11  1  0.25000000  0.25000000  0.75000000  1
  Ni  Ni12  1  0.00000000  0.00000000  0.50000000  1
  Ni  Ni13  1  0.50000000  0.00000000  0.00000000  1
  Ni  Ni14  1  0.00000000  0.50000000  0.00000000  1
  Ni  Ni15  1  0.50000000  0.50000000  0.50000000  1
  N  N16  1  0.50500100  0.50939700  0.69191900  1
  N  N17  1  0.80808100  0.99499900  0.50939700  1
  N  N18  1  0.69191900  0.99499900  0.99060300  1
  N  N19  1  0.50939700  0.80808100  0.99499900  1
  N  N20  1  0.99499900  0.99060300  0.69191900  1
  N  N21  1  0.00939700  0.30808100  0.00500100  1
  N  N22  1  0.30808100  0.00500100  0.00939700  1
  N  N23  1  0.80808100  0.50500100  0.99060300  1
  N  N24  1  0.50939700  0.69191900  0.50500100  1
  N  N25  1  0.00500100  0.49060300  0.19191900  1
  N  N26  1  0.99060300  0.80808100  0.50500100  1
  N  N27  1  0.49499900  0.49060300  0.30808100  1
  N  N28  1  0.50500100  0.99060300  0.80808100  1
  N  N29  1  0.00939700  0.19191900  0.49499900  1
  N  N30  1  0.69191900  0.50500100  0.50939700  1
  N  N31  1  0.49060300  0.19191900  0.00500100  1
  N  N32  1  0.49060300  0.30808100  0.49499900  1
  N  N33  1  0.19191900  0.00500100  0.49060300  1
  N  N34  1  0.99060300  0.69191900  0.99499900  1
  N  N35  1  0.99499900  0.50939700  0.80808100  1
  N  N36  1  0.49499900  0.00939700  0.19191900  1
  N  N37  1  0.00500100  0.00939700  0.30808100  1
  N  N38  1  0.19191900  0.49499900  0.00939700  1
  N  N39  1  0.30808100  0.49499900  0.49060300  1
  O  O40  1  0.50504200  0.24990300  0.90710900  1
  O  O41  1  0.00504200  0.74990300  0.09289100  1
  O  O42  1  0.40710900  0.00504200  0.75009700  1
  O  O43  1  0.25009700  0.59289100  0.50504200  1
  O  O44  1  0.90710900  0.50504200  0.24990300  1
  O  O45  1  0.25210400  0.09966600  0.45982700  1
  O  O46  1  0.40033400  0.45982700  0.24789600  1
  O  O47  1  0.95982700  0.74789600  0.59966600  1
  O  O48  1  0.59289100  0.99495800  0.24990300  1
  O  O49  1  0.04017300  0.25210400  0.40033400  1
  O  O50  1  0.09289100  0.00504200  0.74990300  1
  O  O51  1  0.40033400  0.04017300  0.25210400  1
  O  O52  1  0.75009700  0.40710900  0.00504200  1
  O  O53  1  0.90033400  0.95982700  0.75210400  1
  O  O54  1  0.04017300  0.24789600  0.09966600  1
  O  O55  1  0.90710900  0.99495800  0.25009700  1
  O  O56  1  0.90033400  0.54017300  0.74789600  1
  O  O57  1  0.24990300  0.90710900  0.50504200  1
  O  O58  1  0.09289100  0.49495800  0.75009700  1
  O  O59  1  0.09966600  0.04017300  0.24789600  1
  O  O60  1  0.54017300  0.74789600  0.90033400  1
  O  O61  1  0.24990300  0.59289100  0.99495800  1
  O  O62  1  0.25210400  0.40033400  0.04017300  1
  O  O63  1  0.75009700  0.09289100  0.49495800  1
  O  O64  1  0.00504200  0.75009700  0.40710900  1
  O  O65  1  0.24789600  0.40033400  0.45982700  1
  O  O66  1  0.40710900  0.49495800  0.74990300  1
  O  O67  1  0.99495800  0.24990300  0.59289100  1
  O  O68  1  0.59289100  0.50504200  0.25009700  1
  O  O69  1  0.54017300  0.75210400  0.59966600  1
  O  O70  1  0.74789600  0.59966600  0.95982700  1
  O  O71  1  0.59966600  0.95982700  0.74789600  1
  O  O72  1  0.25009700  0.90710900  0.99495800  1
  O  O73  1  0.75210400  0.90033400  0.95982700  1
  O  O74  1  0.74990300  0.09289100  0.00504200  1
  O  O75  1  0.50504200  0.25009700  0.59289100  1
  O  O76  1  0.74789600  0.90033400  0.54017300  1
  O  O77  1  0.74990300  0.40710900  0.49495800  1
  O  O78  1  0.99495800  0.25009700  0.90710900  1
  O  O79  1  0.49495800  0.75009700  0.09289100  1
  O  O80  1  0.09966600  0.45982700  0.25210400  1
  O  O81  1  0.24789600  0.09966600  0.04017300  1
  O  O82  1  0.45982700  0.24789600  0.40033400  1
  O  O83  1  0.59966600  0.54017300  0.75210400  1
  O  O84  1  0.49495800  0.74990300  0.40710900  1
  O  O85  1  0.95982700  0.75210400  0.90033400  1
  O  O86  1  0.75210400  0.59966600  0.54017300  1
  O  O87  1  0.45982700  0.25210400  0.09966600  1
