# generated using pymatgen
data_Na3AlH6
_symmetry_space_group_name_H-M   'P 1'
_cell_length_a   5.38744220
_cell_length_b   9.10476014
_cell_length_c   17.52138550
_cell_angle_alpha   90.00000000
_cell_angle_beta   90.00000000
_cell_angle_gamma   90.00000000
_symmetry_Int_Tables_number   1
_chemical_formula_structural   Na3AlH6
_chemical_formula_sum   'Na24 Al8 H48'
_cell_volume   859.44794554
_cell_formula_units_Z   8
loop_
 _symmetry_equiv_pos_site_id
 _symmetry_equiv_pos_as_xyz
  1  'x, y, z'
loop_
 _atom_site_type_symbol
 _atom_site_label
 _atom_site_symmetry_multiplicity
 _atom_site_fract_x
 _atom_site_fract_y
 _atom_site_fract_z
 _atom_site_occupancy
  Na  Na0  1  0.30184677  0.08973373  0.34750265  1
  Na  Na1  1  0.74758485  0.58195542  0.94799733  1
  Na  Na2  1  0.19106011  0.74759987  0.83541878  1
  Na  Na3  1  0.25241515  0.41804458  0.05200267  1
  Na  Na4  1  0.80893989  0.25240013  0.33541878  1
  Na  Na5  1  0.30184677  0.41026627  0.65249735  1
  Na  Na6  1  0.25241515  0.08195542  0.94799733  1
  Na  Na7  1  0.69815323  0.91026627  0.84750265  1
  Na  Na8  1  0.80893989  0.25240013  0.16458122  1
  Na  Na9  1  0.69815323  0.58973373  0.15249735  1
  Na  Na10  1  0.74758485  0.91804458  0.05200267  1
  Na  Na11  1  0.69815323  0.58973373  0.34750265  1
  Na  Na12  1  0.80893989  0.24759987  0.83541878  1
  Na  Na13  1  0.80893989  0.24759987  0.66458122  1
  Na  Na14  1  0.19106011  0.75240013  0.16458122  1
  Na  Na15  1  0.25241515  0.08195542  0.55200267  1
  Na  Na16  1  0.69815323  0.91026627  0.65249735  1
  Na  Na17  1  0.74758485  0.91804458  0.44799733  1
  Na  Na18  1  0.30184677  0.08973373  0.15249735  1
  Na  Na19  1  0.25241515  0.41804458  0.44799733  1
  Na  Na20  1  0.30184677  0.41026627  0.84750265  1
  Na  Na21  1  0.19106011  0.74759987  0.66458122  1
  Na  Na22  1  0.74758485  0.58195542  0.55200267  1
  Na  Na23  1  0.19106011  0.75240013  0.33541878  1
  Al  Al24  1  0.78241223  0.25000000  0.00000000  1
  Al  Al25  1  0.78241223  0.25000000  0.50000000  1
  Al  Al26  1  0.74318826  0.57650395  0.75000000  1
  Al  Al27  1  0.21758777  0.75000000  0.50000000  1
  Al  Al28  1  0.74318826  0.92349605  0.25000000  1
  Al  Al29  1  0.25681174  0.07650395  0.75000000  1
  Al  Al30  1  0.21758777  0.75000000  0.00000000  1
  Al  Al31  1  0.25681174  0.42349605  0.25000000  1
  H  H32  1  0.97824512  0.81118516  0.56124116  1
  H  H33  1  0.22147218  0.58692810  0.95009607  1
  H  H34  1  0.95307808  0.97109709  0.17839765  1
  H  H35  1  0.04692192  0.47109709  0.32160235  1
  H  H36  1  0.77852782  0.41307190  0.45009607  1
  H  H37  1  0.44097868  0.67416484  0.43809556  1
  H  H38  1  0.22147218  0.91307190  0.45009607  1
  H  H39  1  0.13567075  0.24228864  0.25000000  1
  H  H40  1  0.02175488  0.31118516  0.93875884  1
  H  H41  1  0.61990608  0.10263933  0.25000000  1
  H  H42  1  0.02175488  0.18881484  0.43875884  1
  H  H43  1  0.95307808  0.52890291  0.82160235  1
  H  H44  1  0.38009392  0.89736067  0.75000000  1
  H  H45  1  0.46512539  0.37675867  0.17764950  1
  H  H46  1  0.77852782  0.08692810  0.54990393  1
  H  H47  1  0.46512539  0.12324133  0.67764950  1
  H  H48  1  0.46512539  0.12324133  0.82235050  1
  H  H49  1  0.53487461  0.62324133  0.82235050  1
  H  H50  1  0.04692192  0.02890291  0.82160235  1
  H  H51  1  0.86432925  0.75771136  0.75000000  1
  H  H52  1  0.86432925  0.74228864  0.25000000  1
  H  H53  1  0.55902132  0.32583516  0.56190444  1
  H  H54  1  0.44097868  0.67416484  0.06190444  1
  H  H55  1  0.97824512  0.68881484  0.06124116  1
  H  H56  1  0.95307808  0.97109709  0.32160235  1
  H  H57  1  0.55902132  0.32583516  0.93809556  1
  H  H58  1  0.13567075  0.25771136  0.75000000  1
  H  H59  1  0.61990608  0.39736067  0.75000000  1
  H  H60  1  0.97824512  0.68881484  0.43875884  1
  H  H61  1  0.44097868  0.82583516  0.93809556  1
  H  H62  1  0.55902132  0.17416484  0.06190444  1
  H  H63  1  0.53487461  0.87675867  0.32235050  1
  H  H64  1  0.04692192  0.02890291  0.67839765  1
  H  H65  1  0.53487461  0.62324133  0.67764950  1
  H  H66  1  0.53487461  0.87675867  0.17764950  1
  H  H67  1  0.77852782  0.08692810  0.95009607  1
  H  H68  1  0.95307808  0.52890291  0.67839765  1
  H  H69  1  0.44097868  0.82583516  0.56190444  1
  H  H70  1  0.02175488  0.31118516  0.56124116  1
  H  H71  1  0.38009392  0.60263933  0.25000000  1
  H  H72  1  0.02175488  0.18881484  0.06124116  1
  H  H73  1  0.22147218  0.91307190  0.04990393  1
  H  H74  1  0.77852782  0.41307190  0.04990393  1
  H  H75  1  0.04692192  0.47109709  0.17839765  1
  H  H76  1  0.55902132  0.17416484  0.43809556  1
  H  H77  1  0.46512539  0.37675867  0.32235050  1
  H  H78  1  0.22147218  0.58692810  0.54990393  1
  H  H79  1  0.97824512  0.81118516  0.93875884  1
