# generated using pymatgen
data_KMnF3
_symmetry_space_group_name_H-M   'P 1'
_cell_length_a   5.89376972
_cell_length_b   5.92009253
_cell_length_c   8.33661285
_cell_angle_alpha   90.00000000
_cell_angle_beta   90.00000000
_cell_angle_gamma   90.00000000
_symmetry_Int_Tables_number   1
_chemical_formula_structural   KMnF3
_chemical_formula_sum   'K4 Mn4 F12'
_cell_volume   290.87827856
_cell_formula_units_Z   4
loop_
 _symmetry_equiv_pos_site_id
 _symmetry_equiv_pos_as_xyz
  1  'x, y, z'
loop_
 _atom_site_type_symbol
 _atom_site_label
 _atom_site_symmetry_multiplicity
 _atom_site_fract_x
 _atom_site_fract_y
 _atom_site_fract_z
 _atom_site_occupancy
  K  K0  1  0.99045116  0.00211675  0.75000000  1
  K  K1  1  0.49045116  0.49788325  0.75000000  1
  K  K2  1  0.50954884  0.50211675  0.25000000  1
  K  K3  1  0.00954884  0.99788325  0.25000000  1
  Mn  Mn4  1  -0.00000000  0.50000000  -0.00000000  1
  Mn  Mn5  1  0.50000000  -0.00000000  0.50000000  1
  Mn  Mn6  1  0.50000000  -0.00000000  -0.00000000  1
  Mn  Mn7  1  -0.00000000  0.50000000  0.50000000  1
  F  F8  1  0.73459221  0.26535903  0.52256032  1
  F  F9  1  0.23459221  0.23464097  0.97743968  1
  F  F10  1  0.76540779  0.76535903  0.47743968  1
  F  F11  1  0.26540779  0.73464097  0.02256032  1
  F  F12  1  0.26540779  0.73464097  0.47743968  1
  F  F13  1  0.76540779  0.76535903  0.02256032  1
  F  F14  1  0.23459221  0.23464097  0.52256032  1
  F  F15  1  0.73459221  0.26535903  0.97743968  1
  F  F16  1  0.50357423  0.95638420  0.75000000  1
  F  F17  1  0.00357423  0.54361580  0.75000000  1
  F  F18  1  0.99642577  0.45638420  0.25000000  1
  F  F19  1  0.49642577  0.04361580  0.25000000  1
