# generated using pymatgen
data_Na2PtO3
_symmetry_space_group_name_H-M   'P 1'
_cell_length_a   10.38595870
_cell_length_b   9.90165501
_cell_length_c   5.48254798
_cell_angle_alpha   79.25990092
_cell_angle_beta   69.49945244
_cell_angle_gamma   31.24064665
_symmetry_Int_Tables_number   1
_chemical_formula_structural   Na2PtO3
_chemical_formula_sum   'Na8 Pt4 O12'
_cell_volume   266.37095200
_cell_formula_units_Z   4
loop_
 _symmetry_equiv_pos_site_id
 _symmetry_equiv_pos_as_xyz
  1  'x, y, z'
loop_
 _atom_site_type_symbol
 _atom_site_label
 _atom_site_symmetry_multiplicity
 _atom_site_fract_x
 _atom_site_fract_y
 _atom_site_fract_z
 _atom_site_occupancy
  Na  Na0  1  0.24432929  0.24432929  0.75567071  1
  Na  Na1  1  0.92033130  0.92033130  0.07966870  1
  Na  Na2  1  0.00567071  0.00567071  0.49432929  1
  Na  Na3  1  0.49432929  0.49432929  0.00567071  1
  Na  Na4  1  0.17033130  0.17033130  0.32966870  1
  Na  Na5  1  0.32966870  0.32966870  0.17033130  1
  Na  Na6  1  0.75567071  0.75567071  0.24432929  1
  Na  Na7  1  0.07966870  0.07966870  0.92033130  1
  Pt  Pt8  1  0.58356106  0.58356106  0.41643894  1
  Pt  Pt9  1  0.66643894  0.66643894  0.83356106  1
  Pt  Pt10  1  0.41643894  0.41643894  0.58356106  1
  Pt  Pt11  1  0.83356106  0.83356106  0.66643894  1
  O  O12  1  0.28920984  0.71079016  0.71079016  1
  O  O13  1  0.66380016  0.15772638  0.79710253  1
  O  O14  1  0.15772638  0.66380016  0.38137093  1
  O  O15  1  0.79710253  0.38137093  0.66380016  1
  O  O16  1  0.09227362  0.58619984  0.86862907  1
  O  O17  1  0.38137093  0.79710253  0.15772638  1
  O  O18  1  0.58619984  0.09227362  0.45289747  1
  O  O19  1  0.53920984  0.96079016  0.96079016  1
  O  O20  1  0.45289747  0.86862907  0.58619984  1
  O  O21  1  0.86862907  0.45289747  0.09227362  1
  O  O22  1  0.96079016  0.53920984  0.53920984  1
  O  O23  1  0.71079016  0.28920984  0.28920984  1
