# generated using pymatgen
data_BaTi2O5
_symmetry_space_group_name_H-M   'P 1'
_cell_length_a   3.93208131
_cell_length_b   10.30448564
_cell_length_c   10.94373364
_cell_angle_alpha   90.00000000
_cell_angle_beta   90.00000000
_cell_angle_gamma   90.00000000
_symmetry_Int_Tables_number   1
_chemical_formula_structural   BaTi2O5
_chemical_formula_sum   'Ba4 Ti8 O20'
_cell_volume   443.41902472
_cell_formula_units_Z   4
loop_
 _symmetry_equiv_pos_site_id
 _symmetry_equiv_pos_as_xyz
  1  'x, y, z'
loop_
 _atom_site_type_symbol
 _atom_site_label
 _atom_site_symmetry_multiplicity
 _atom_site_fract_x
 _atom_site_fract_y
 _atom_site_fract_z
 _atom_site_occupancy
  Ba  Ba0  1  0.25000000  0.04882283  0.17644946  1
  Ba  Ba1  1  0.75000000  0.45117717  0.67644946  1
  Ba  Ba2  1  0.25000000  0.54882283  0.32355054  1
  Ba  Ba3  1  0.75000000  0.95117717  0.82355054  1
  Ti  Ti4  1  0.75000000  0.23211083  0.39723452  1
  Ti  Ti5  1  0.75000000  0.85370363  0.40815149  1
  Ti  Ti6  1  0.25000000  0.14629637  0.59184851  1
  Ti  Ti7  1  0.75000000  0.35370363  0.09184851  1
  Ti  Ti8  1  0.75000000  0.73211083  0.10276548  1
  Ti  Ti9  1  0.25000000  0.26788917  0.89723452  1
  Ti  Ti10  1  0.25000000  0.76788917  0.60276548  1
  Ti  Ti11  1  0.25000000  0.64629637  0.90815149  1
  O  O12  1  0.75000000  0.23554978  0.22012417  1
  O  O13  1  0.25000000  0.32704523  0.06962503  1
  O  O14  1  0.75000000  0.30090140  0.91728268  1
  O  O15  1  0.75000000  0.51270357  0.14830534  1
  O  O16  1  0.25000000  0.48729643  0.85169466  1
  O  O17  1  0.25000000  0.69909860  0.08271732  1
  O  O18  1  0.25000000  0.98729643  0.64830534  1
  O  O19  1  0.25000000  0.26445022  0.72012417  1
  O  O20  1  0.75000000  0.80090140  0.58271732  1
  O  O21  1  0.25000000  0.60000990  0.57486484  1
  O  O22  1  0.75000000  0.73554978  0.27987583  1
  O  O23  1  0.25000000  0.82704523  0.43037497  1
  O  O24  1  0.75000000  0.67295477  0.93037497  1
  O  O25  1  0.75000000  0.89999010  0.07486484  1
  O  O26  1  0.75000000  0.39999010  0.42513516  1
  O  O27  1  0.75000000  0.17295477  0.56962503  1
  O  O28  1  0.25000000  0.19909860  0.41728268  1
  O  O29  1  0.75000000  0.01270357  0.35169466  1
  O  O30  1  0.25000000  0.10000990  0.92513516  1
  O  O31  1  0.25000000  0.76445022  0.77987583  1
