# generated using pymatgen
data_CoP2PbO7
_symmetry_space_group_name_H-M   'P 1'
_cell_length_a   8.21306248
_cell_length_b   5.32138717
_cell_length_c   13.67863946
_cell_angle_alpha   67.17137480
_cell_angle_beta   90.00000000
_cell_angle_gamma   90.00000000
_symmetry_Int_Tables_number   1
_chemical_formula_structural   CoP2PbO7
_chemical_formula_sum   'Co4 P8 Pb4 O28'
_cell_volume   550.99552457
_cell_formula_units_Z   4
loop_
 _symmetry_equiv_pos_site_id
 _symmetry_equiv_pos_as_xyz
  1  'x, y, z'
loop_
 _atom_site_type_symbol
 _atom_site_label
 _atom_site_symmetry_multiplicity
 _atom_site_fract_x
 _atom_site_fract_y
 _atom_site_fract_z
 _atom_site_occupancy
  Co  Co0  1  0.64512797  0.90890172  0.88503734  1
  Co  Co1  1  0.14512797  0.09109828  0.61496266  1
  Co  Co2  1  0.35487203  0.09109828  0.11496266  1
  Co  Co3  1  0.85487203  0.90890172  0.38503734  1
  P  P4  1  0.69360354  0.30199435  0.01257353  1
  P  P5  1  0.19360354  0.69800565  0.48742647  1
  P  P6  1  0.30639646  0.69800565  0.98742647  1
  P  P7  1  0.80639646  0.30199435  0.51257353  1
  P  P8  1  0.96209451  0.08180170  0.15877938  1
  P  P9  1  0.46209451  0.91819830  0.34122062  1
  P  P10  1  0.03790549  0.91819830  0.84122062  1
  P  P11  1  0.53790549  0.08180170  0.65877938  1
  Pb  Pb12  1  0.83640432  0.56672189  0.71753480  1
  Pb  Pb13  1  0.33640432  0.43327811  0.78246520  1
  Pb  Pb14  1  0.16359568  0.43327811  0.28246520  1
  Pb  Pb15  1  0.66359568  0.56672189  0.21753480  1
  O  O16  1  0.66341603  0.58148584  0.01677069  1
  O  O17  1  0.16341603  0.41851416  0.48322931  1
  O  O18  1  0.33658397  0.41851416  0.98322931  1
  O  O19  1  0.83658397  0.58148584  0.51677069  1
  O  O20  1  0.67732707  0.29455963  0.90386882  1
  O  O21  1  0.17732707  0.70544037  0.59613118  1
  O  O22  1  0.32267293  0.70544037  0.09613118  1
  O  O23  1  0.82267293  0.29455963  0.40386882  1
  O  O24  1  0.59408486  0.08156246  0.09820807  1
  O  O25  1  0.09408486  0.91843754  0.40179193  1
  O  O26  1  0.40591514  0.91843754  0.90179193  1
  O  O27  1  0.90591514  0.08156246  0.59820807  1
  O  O28  1  0.88150075  0.23065012  0.04493207  1
  O  O29  1  0.38150075  0.76934988  0.45506793  1
  O  O30  1  0.11849925  0.76934988  0.95506793  1
  O  O31  1  0.61849925  0.23065012  0.54493207  1
  O  O32  1  0.13808100  0.17222566  0.14933707  1
  O  O33  1  0.63808100  0.82777434  0.35066293  1
  O  O34  1  0.86191900  0.82777434  0.85066293  1
  O  O35  1  0.36191900  0.17222566  0.64933707  1
  O  O36  1  0.87553969  0.18587923  0.23515661  1
  O  O37  1  0.37553969  0.81412077  0.26484339  1
  O  O38  1  0.12446031  0.81412077  0.76484339  1
  O  O39  1  0.62446031  0.18587923  0.73515661  1
  O  O40  1  0.93944036  0.77851723  0.19085935  1
  O  O41  1  0.43944036  0.22148277  0.30914065  1
  O  O42  1  0.06055964  0.22148277  0.80914065  1
  O  O43  1  0.56055964  0.77851723  0.69085935  1
