# generated using pymatgen
data_DyTaO4
_symmetry_space_group_name_H-M   'P 1'
_cell_length_a   5.05987378
_cell_length_b   5.32783810
_cell_length_c   6.49456186
_cell_angle_alpha   111.90033787
_cell_angle_beta   110.51426667
_cell_angle_gamma   95.48104446
_symmetry_Int_Tables_number   1
_chemical_formula_structural   DyTaO4
_chemical_formula_sum   'Dy2 Ta2 O8'
_cell_volume   146.89898356
_cell_formula_units_Z   2
loop_
 _symmetry_equiv_pos_site_id
 _symmetry_equiv_pos_as_xyz
  1  'x, y, z'
loop_
 _atom_site_type_symbol
 _atom_site_label
 _atom_site_symmetry_multiplicity
 _atom_site_fract_x
 _atom_site_fract_y
 _atom_site_fract_z
 _atom_site_occupancy
  Dy  Dy0  1  0.38166287  0.63166910  0.76337794  1
  Dy  Dy1  1  0.61833713  0.36833090  0.23662206  1
  Ta  Ta2  1  0.85173963  0.10175782  0.70357215  1
  Ta  Ta3  1  0.14826037  0.89824218  0.29642785  1
  O  O4  1  0.56056759  0.27415138  0.56278390  1
  O  O5  1  0.79233281  0.63156533  0.07947223  1
  O  O6  1  0.43943241  0.72584862  0.43721610  1
  O  O7  1  0.71284857  0.05207291  0.92048847  1
  O  O8  1  0.00219976  0.78871505  0.56282001  1
  O  O9  1  0.28715143  0.94792709  0.07951153  1
  O  O10  1  0.20766719  0.36843467  0.92052777  1
  O  O11  1  0.99780024  0.21128495  0.43717999  1
