# generated using pymatgen
data_Cs3PO4
_symmetry_space_group_name_H-M   'P 1'
_cell_length_a   6.45160348
_cell_length_b   8.92498976
_cell_length_c   12.26577135
_cell_angle_alpha   90.00000000
_cell_angle_beta   90.00000000
_cell_angle_gamma   90.00000000
_symmetry_Int_Tables_number   1
_chemical_formula_structural   Cs3PO4
_chemical_formula_sum   'Cs12 P4 O16'
_cell_volume   706.26918582
_cell_formula_units_Z   4
loop_
 _symmetry_equiv_pos_site_id
 _symmetry_equiv_pos_as_xyz
  1  'x, y, z'
loop_
 _atom_site_type_symbol
 _atom_site_label
 _atom_site_symmetry_multiplicity
 _atom_site_fract_x
 _atom_site_fract_y
 _atom_site_fract_z
 _atom_site_occupancy
  Cs  Cs0  1  0.35854563  0.25000000  0.57720017  1
  Cs  Cs1  1  0.18111055  0.50751968  0.35480771  1
  Cs  Cs2  1  0.14145437  0.25000000  0.07720017  1
  Cs  Cs3  1  0.68111055  0.00751968  0.14519229  1
  Cs  Cs4  1  0.85854563  0.75000000  0.92279983  1
  Cs  Cs5  1  0.81888945  0.00751968  0.64519229  1
  Cs  Cs6  1  0.81888945  0.49248032  0.64519229  1
  Cs  Cs7  1  0.31888945  0.99248032  0.85480771  1
  Cs  Cs8  1  0.64145437  0.75000000  0.42279983  1
  Cs  Cs9  1  0.68111055  0.49248032  0.14519229  1
  Cs  Cs10  1  0.18111055  0.99248032  0.35480771  1
  Cs  Cs11  1  0.31888945  0.50751968  0.85480771  1
  P  P12  1  0.72889225  0.25000000  0.88703016  1
  P  P13  1  0.22889225  0.75000000  0.61296984  1
  P  P14  1  0.27110775  0.75000000  0.11296984  1
  P  P15  1  0.77110775  0.25000000  0.38703016  1
  O  O16  1  0.63521365  0.10705043  0.39359882  1
  O  O17  1  0.13521365  0.89294957  0.10640118  1
  O  O18  1  0.36478635  0.60705043  0.60640118  1
  O  O19  1  0.86478635  0.39294957  0.89359882  1
  O  O20  1  0.89435776  0.25000000  0.27820112  1
  O  O21  1  0.42879265  0.75000000  0.01699498  1
  O  O22  1  0.57120735  0.25000000  0.98300502  1
  O  O23  1  0.92879265  0.25000000  0.48300502  1
  O  O24  1  0.86478635  0.10705043  0.89359882  1
  O  O25  1  0.13521365  0.60705043  0.10640118  1
  O  O26  1  0.36478635  0.89294957  0.60640118  1
  O  O27  1  0.10564224  0.75000000  0.72179888  1
  O  O28  1  0.63521365  0.39294957  0.39359882  1
  O  O29  1  0.07120735  0.75000000  0.51699498  1
  O  O30  1  0.39435776  0.75000000  0.22179888  1
  O  O31  1  0.60564224  0.25000000  0.77820112  1
