# generated using pymatgen
data_Ca2SiO4
_symmetry_space_group_name_H-M   'P 1'
_cell_length_a   8.28481019
_cell_length_b   9.70906026
_cell_length_c   9.88058918
_cell_angle_alpha   90.00000000
_cell_angle_beta   96.14269797
_cell_angle_gamma   90.00000000
_symmetry_Int_Tables_number   1
_chemical_formula_structural   Ca2SiO4
_chemical_formula_sum   'Ca16 Si8 O32'
_cell_volume   790.20887843
_cell_formula_units_Z   8
loop_
 _symmetry_equiv_pos_site_id
 _symmetry_equiv_pos_as_xyz
  1  'x, y, z'
loop_
 _atom_site_type_symbol
 _atom_site_label
 _atom_site_symmetry_multiplicity
 _atom_site_fract_x
 _atom_site_fract_y
 _atom_site_fract_z
 _atom_site_occupancy
  Ca  Ca0  1  0.88307109  0.05307809  0.20932082  1
  Ca  Ca1  1  0.67188225  0.07831932  0.90905865  1
  Ca  Ca2  1  0.17236106  0.92253681  0.42638509  1
  Ca  Ca3  1  0.60667751  0.71710325  0.93066062  1
  Ca  Ca4  1  0.17236106  0.57746319  0.92638509  1
  Ca  Ca5  1  0.32811775  0.57831932  0.59094135  1
  Ca  Ca6  1  0.82763894  0.07746319  0.57361491  1
  Ca  Ca7  1  0.82763894  0.42253681  0.07361491  1
  Ca  Ca8  1  0.60667751  0.78289675  0.43066062  1
  Ca  Ca9  1  0.88307109  0.44692191  0.70932082  1
  Ca  Ca10  1  0.67188225  0.42168068  0.40905865  1
  Ca  Ca11  1  0.11692891  0.55307809  0.29067918  1
  Ca  Ca12  1  0.39332249  0.21710325  0.56933938  1
  Ca  Ca13  1  0.32811775  0.92168068  0.09094135  1
  Ca  Ca14  1  0.39332249  0.28289675  0.06933938  1
  Ca  Ca15  1  0.11692891  0.94692191  0.79067918  1
  Si  Si16  1  0.45395050  0.93093703  0.69533002  1
  Si  Si17  1  0.54604950  0.43093703  0.80466998  1
  Si  Si18  1  0.02007253  0.29621324  0.42995055  1
  Si  Si19  1  0.02007253  0.20378676  0.92995055  1
  Si  Si20  1  0.45395050  0.56906297  0.19533002  1
  Si  Si21  1  0.97992747  0.79621324  0.07004945  1
  Si  Si22  1  0.97992747  0.70378676  0.57004945  1
  Si  Si23  1  0.54604950  0.06906297  0.30466998  1
  O  O24  1  0.55058745  0.40923074  0.63960274  1
  O  O25  1  0.18725372  0.37602450  0.48704336  1
  O  O26  1  0.88060105  0.30365685  0.53545246  1
  O  O27  1  0.95348379  0.63274643  0.09747505  1
  O  O28  1  0.59614368  0.45816516  0.17292542  1
  O  O29  1  0.04651621  0.13274643  0.40252495  1
  O  O30  1  0.55058745  0.09076926  0.13960274  1
  O  O31  1  0.40385632  0.54183484  0.82707458  1
  O  O32  1  0.04651621  0.36725357  0.90252495  1
  O  O33  1  0.81274628  0.62397550  0.51295664  1
  O  O34  1  0.52427794  0.28480655  0.87944435  1
  O  O35  1  0.59614368  0.04183484  0.67292542  1
  O  O36  1  0.06366081  0.62384483  0.70557743  1
  O  O37  1  0.95348379  0.86725357  0.59747505  1
  O  O38  1  0.11939895  0.80365685  0.96454754  1
  O  O39  1  0.18725372  0.12397450  0.98704336  1
  O  O40  1  0.47572206  0.71519345  0.12055565  1
  O  O41  1  0.71435218  0.50750091  0.86578004  1
  O  O42  1  0.44941255  0.59076926  0.36039726  1
  O  O43  1  0.47572206  0.78480655  0.62055565  1
  O  O44  1  0.40385632  0.95816516  0.32707458  1
  O  O45  1  0.71435218  0.99249909  0.36578004  1
  O  O46  1  0.52427794  0.21519345  0.37944435  1
  O  O47  1  0.06366081  0.87615517  0.20557643  1
  O  O48  1  0.93633919  0.12384483  0.79442257  1
  O  O49  1  0.28564782  0.49249909  0.13421996  1
  O  O50  1  0.93633919  0.37615517  0.29442257  1
  O  O51  1  0.88060105  0.19634315  0.03545246  1
  O  O52  1  0.11939895  0.69634315  0.46454754  1
  O  O53  1  0.28564782  0.00750091  0.63421996  1
  O  O54  1  0.81274628  0.87602450  0.01295664  1
  O  O55  1  0.44941255  0.90923074  0.86039726  1
