# generated using pymatgen
data_CsMn4Cl9
_symmetry_space_group_name_H-M   'P 1'
_cell_length_a   9.75876799
_cell_length_b   9.75883143
_cell_length_c   9.75888329
_cell_angle_alpha   106.32393816
_cell_angle_beta   106.32389521
_cell_angle_gamma   115.96486851
_symmetry_Int_Tables_number   1
_chemical_formula_structural   CsMn4Cl9
_chemical_formula_sum   'Cs2 Mn8 Cl18'
_cell_volume   708.49022163
_cell_formula_units_Z   2
loop_
 _symmetry_equiv_pos_site_id
 _symmetry_equiv_pos_as_xyz
  1  'x, y, z'
loop_
 _atom_site_type_symbol
 _atom_site_label
 _atom_site_symmetry_multiplicity
 _atom_site_fract_x
 _atom_site_fract_y
 _atom_site_fract_z
 _atom_site_occupancy
  Cs  Cs0  1  0.00000140  -0.00000001  -0.00000044  1
  Cs  Cs1  1  0.24999975  0.74999985  0.49999977  1
  Mn  Mn2  1  0.29977093  0.40058480  0.69021758  1
  Mn  Mn3  1  0.59940473  0.28962729  0.89918400  1
  Mn  Mn4  1  0.85955775  0.04978504  0.39919313  1
  Mn  Mn5  1  0.95023111  0.34941682  0.80978502  1
  Mn  Mn6  1  0.53962898  0.14044165  0.19021904  1
  Mn  Mn7  1  0.71037273  0.60955881  0.30978211  1
  Mn  Mn8  1  0.39044272  0.70021486  0.10080639  1
  Mn  Mn9  1  0.65059488  0.46037201  0.60081507  1
  Cl  Cl10  1  0.88589320  0.69037971  0.59216114  1
  Cl  Cl11  1  0.59991008  0.79498924  0.38464827  1
  Cl  Cl12  1  0.04498800  0.16033888  0.69507872  1
  Cl  Cl13  1  0.74999943  0.24999894  0.50000021  1
  Cl  Cl14  1  0.46526425  0.34991255  0.30492485  1
  Cl  Cl15  1  0.83965350  0.53473456  0.88464953  1
  Cl  Cl16  1  0.30961579  0.90178007  0.19550990  1
  Cl  Cl17  1  0.09821881  0.29373264  0.40783521  1
  Cl  Cl18  1  0.36410851  0.05961759  0.90783897  1
  Cl  Cl19  1  0.65009129  0.95501207  0.11535256  1
  Cl  Cl20  1  0.54372660  0.63589507  0.69550987  1
  Cl  Cl21  1  0.70627385  0.11410770  0.80449062  1
  Cl  Cl22  1  0.94038522  0.84822040  0.30449005  1
  Cl  Cl23  1  0.15178070  0.45626675  0.09216381  1
  Cl  Cl24  1  0.20501124  0.58966085  0.80492126  1
  Cl  Cl25  1  0.41034162  0.21526370  0.61535110  1
  Cl  Cl26  1  0.78473433  0.40008577  0.19507411  1
  Cl  Cl27  1  0.50000061  0.50000037  -0.00000085  1
