# generated using pymatgen
data_Rb2V3O8
_symmetry_space_group_name_H-M   'P 1'
_cell_length_a   8.90220296
_cell_length_b   8.90220296
_cell_length_c   5.59632702
_cell_angle_alpha   90.00000000
_cell_angle_beta   90.00000000
_cell_angle_gamma   90.00000000
_symmetry_Int_Tables_number   1
_chemical_formula_structural   Rb2V3O8
_chemical_formula_sum   'Rb4 V6 O16'
_cell_volume   443.50453744
_cell_formula_units_Z   2
loop_
 _symmetry_equiv_pos_site_id
 _symmetry_equiv_pos_as_xyz
  1  'x, y, z'
loop_
 _atom_site_type_symbol
 _atom_site_label
 _atom_site_symmetry_multiplicity
 _atom_site_fract_x
 _atom_site_fract_y
 _atom_site_fract_z
 _atom_site_occupancy
  Rb  Rb0  1  0.16895700  0.66895700  0.00098503  1
  Rb  Rb1  1  0.66895700  0.83104300  0.00098503  1
  Rb  Rb2  1  0.33104300  0.16895700  0.00098503  1
  Rb  Rb3  1  0.83104300  0.33104300  0.00098503  1
  V  V4  1  0.36601473  0.86601473  0.52609263  1
  V  V5  1  0.86601473  0.63398527  0.52609263  1
  V  V6  1  0.13398527  0.36601473  0.52609263  1
  V  V7  1  0.63398527  0.13398527  0.52609263  1
  V  V8  1  0.50000000  0.50000000  0.53450145  1
  V  V9  1  0.00000000  -0.00000000  0.53450145  1
  O  O10  1  0.50000000  0.50000000  0.24533358  1
  O  O11  1  0.00000000  -0.00000000  0.24533358  1
  O  O12  1  0.80797822  0.08436329  0.63585016  1
  O  O13  1  0.19202178  0.91563671  0.63585016  1
  O  O14  1  0.91563671  0.80797822  0.63585016  1
  O  O15  1  0.08436329  0.19202178  0.63585016  1
  O  O16  1  0.41563671  0.69202178  0.63585016  1
  O  O17  1  0.69202178  0.58436329  0.63585016  1
  O  O18  1  0.30797822  0.41563671  0.63585016  1
  O  O19  1  0.58436329  0.30797822  0.63585016  1
  O  O20  1  0.50000000  -0.00000000  0.64098174  1
  O  O21  1  0.00000000  0.50000000  0.64098174  1
  O  O22  1  0.63060035  0.13060035  0.23196262  1
  O  O23  1  0.13060035  0.36939965  0.23196262  1
  O  O24  1  0.86939965  0.63060035  0.23196262  1
  O  O25  1  0.36939965  0.86939965  0.23196262  1
