# generated using pymatgen
data_PbI2
_symmetry_space_group_name_H-M   'P 1'
_cell_length_a   4.62910202
_cell_length_b   4.62910226
_cell_length_c   50.94172536
_cell_angle_alpha   90.00000000
_cell_angle_beta   90.00000000
_cell_angle_gamma   119.99999830
_symmetry_Int_Tables_number   1
_chemical_formula_structural   PbI2
_chemical_formula_sum   'Pb7 I14'
_cell_volume   945.36129178
_cell_formula_units_Z   7
loop_
 _symmetry_equiv_pos_site_id
 _symmetry_equiv_pos_as_xyz
  1  'x, y, z'
loop_
 _atom_site_type_symbol
 _atom_site_label
 _atom_site_symmetry_multiplicity
 _atom_site_fract_x
 _atom_site_fract_y
 _atom_site_fract_z
 _atom_site_occupancy
  Pb  Pb0  1  0.33333300  0.66666700  0.18074928  1
  Pb  Pb1  1  0.33333300  0.66666700  0.46673121  1
  Pb  Pb2  1  -0.00000000  -0.00000000  0.89470184  1
  Pb  Pb3  1  0.33333300  0.66666700  0.75153314  1
  Pb  Pb4  1  0.33333300  0.66666700  0.60890388  1
  Pb  Pb5  1  0.33333300  0.66666700  0.32403154  1
  Pb  Pb6  1  0.33333300  0.66666700  0.03829084  1
  I  I7  1  0.66666700  0.33333300  0.93146115  1
  I  I8  1  0.00000000  0.00000000  0.43024279  1
  I  I9  1  0.66666700  0.33333300  0.07492922  1
  I  I10  1  0.66666700  0.33333300  0.78806942  1
  I  I11  1  0.00000000  0.00000000  0.14418070  1
  I  I12  1  0.66666700  0.33333300  0.36057981  1
  I  I13  1  0.33333300  0.66666700  0.85794241  1
  I  I14  1  0.00000000  0.00000000  0.00165726  1
  I  I15  1  0.66666700  0.33333300  0.64551844  1
  I  I16  1  0.00000000  0.00000000  0.57235675  1
  I  I17  1  0.00000000  0.00000000  0.28747005  1
  I  I18  1  0.66666700  0.33333300  0.21729170  1
  I  I19  1  0.66666700  0.33333300  0.50329373  1
  I  I20  1  0.00000000  0.00000000  0.71506783  1
