# generated using pymatgen
data_Ce(SeO3)2
_symmetry_space_group_name_H-M   'P 1'
_cell_length_a   10.74704921
_cell_length_b   7.07194742
_cell_length_c   8.60823104
_cell_angle_alpha   54.17431656
_cell_angle_beta   90.00000000
_cell_angle_gamma   90.00000000
_symmetry_Int_Tables_number   1
_chemical_formula_structural   Ce(SeO3)2
_chemical_formula_sum   'Ce4 Se8 O24'
_cell_volume   530.46499695
_cell_formula_units_Z   4
loop_
 _symmetry_equiv_pos_site_id
 _symmetry_equiv_pos_as_xyz
  1  'x, y, z'
loop_
 _atom_site_type_symbol
 _atom_site_label
 _atom_site_symmetry_multiplicity
 _atom_site_fract_x
 _atom_site_fract_y
 _atom_site_fract_z
 _atom_site_occupancy
  Ce  Ce0  1  0.09599570  0.24826942  0.01102207  1
  Ce  Ce1  1  0.59599570  0.75173058  0.48897793  1
  Ce  Ce2  1  0.90400430  0.75173058  0.98897793  1
  Ce  Ce3  1  0.40400430  0.24826942  0.51102207  1
  Se  Se4  1  0.28402379  0.81062617  0.42976064  1
  Se  Se5  1  0.78402379  0.18937383  0.07023936  1
  Se  Se6  1  0.71597621  0.18937383  0.57023936  1
  Se  Se7  1  0.21597621  0.81062617  0.92976064  1
  Se  Se8  1  0.92678784  0.72001281  0.56537696  1
  Se  Se9  1  0.42678784  0.27998719  0.93462304  1
  Se  Se10  1  0.07321216  0.27998719  0.43462304  1
  Se  Se11  1  0.57321216  0.72001281  0.06537696  1
  O  O12  1  0.24284299  0.94738381  0.19770393  1
  O  O13  1  0.74284299  0.05261619  0.30229607  1
  O  O14  1  0.75715701  0.05261619  0.80229607  1
  O  O15  1  0.25715701  0.94738381  0.69770393  1
  O  O16  1  0.39910951  0.99668639  0.40918014  1
  O  O17  1  0.89910951  0.00331361  0.09081986  1
  O  O18  1  0.60089049  0.00331361  0.59081986  1
  O  O19  1  0.10089049  0.99668639  0.90918014  1
  O  O20  1  0.39368280  0.61282928  0.45977723  1
  O  O21  1  0.89368280  0.38717072  0.04022277  1
  O  O22  1  0.60631720  0.38717072  0.54022277  1
  O  O23  1  0.10631720  0.61282928  0.95977723  1
  O  O24  1  0.02063523  0.48279521  0.70972042  1
  O  O25  1  0.52063523  0.51720479  0.79027958  1
  O  O26  1  0.97936477  0.51720479  0.29027958  1
  O  O27  1  0.47936477  0.48279521  0.20972042  1
  O  O28  1  0.91264618  0.84825283  0.68304212  1
  O  O29  1  0.41264618  0.15174717  0.81695788  1
  O  O30  1  0.08735382  0.15174717  0.31695788  1
  O  O31  1  0.58735382  0.84825283  0.18304212  1
  O  O32  1  0.78441157  0.58677210  0.61905459  1
  O  O33  1  0.28441157  0.41322790  0.88094541  1
  O  O34  1  0.21558843  0.41322790  0.38094541  1
  O  O35  1  0.71558843  0.58677210  0.11905459  1
