# generated using pymatgen
data_MgAl2O4
_symmetry_space_group_name_H-M   'P 1'
_cell_length_a   18.94873871
_cell_length_b   18.94873871
_cell_length_c   18.94873812
_cell_angle_alpha   17.33170004
_cell_angle_beta   17.33170004
_cell_angle_gamma   17.33169960
_symmetry_Int_Tables_number   1
_chemical_formula_structural   MgAl2O4
_chemical_formula_sum   'Mg8 Al16 O32'
_cell_volume   526.89009372
_cell_formula_units_Z   8
loop_
 _symmetry_equiv_pos_site_id
 _symmetry_equiv_pos_as_xyz
  1  'x, y, z'
loop_
 _atom_site_type_symbol
 _atom_site_label
 _atom_site_symmetry_multiplicity
 _atom_site_fract_x
 _atom_site_fract_y
 _atom_site_fract_z
 _atom_site_occupancy
  Mg  Mg0  1  0.15518742  0.15518742  0.15518742  1
  Mg  Mg1  1  0.49911824  0.49911824  0.49911824  1
  Mg  Mg2  1  0.40585878  0.40585878  0.40585878  1
  Mg  Mg3  1  0.65636905  0.65636905  0.65636905  1
  Mg  Mg4  1  0.09465964  0.09465964  0.09465964  1
  Mg  Mg5  1  0.90626859  0.90626859  0.90626859  1
  Mg  Mg6  1  0.34388170  0.34388170  0.34388170  1
  Mg  Mg7  1  0.59347675  0.59347675  0.59347675  1
  Al  Al8  1  0.62206482  0.12999278  0.62206482  1
  Al  Al9  1  0.75009052  0.75009052  0.75009052  1
  Al  Al10  1  0.12999278  0.62206482  0.62206482  1
  Al  Al11  1  0.87513359  0.37521830  0.87513359  1
  Al  Al12  1  0.62206482  0.62206482  0.12999278  1
  Al  Al13  1  0.00019095  0.00019095  0.00019095  1
  Al  Al14  1  0.37521830  0.87513359  0.87513359  1
  Al  Al15  1  0.12486206  0.62570142  0.12486206  1
  Al  Al16  1  0.87513359  0.87513359  0.37521830  1
  Al  Al17  1  0.25043251  0.25043251  0.25043251  1
  Al  Al18  1  0.62570142  0.12486206  0.12486206  1
  Al  Al19  1  0.12486206  0.12486206  0.62570142  1
  Al  Al20  1  0.37300511  0.87955402  0.37300511  1
  Al  Al21  1  0.87955402  0.37300511  0.37300511  1
  Al  Al22  1  0.37300511  0.37300511  0.87955402  1
  Al  Al23  1  0.84430188  0.84430188  0.84430188  1
  O  O24  1  0.32226972  0.78378447  0.32226972  1
  O  O25  1  0.44005927  0.44005927  0.44005927  1
  O  O26  1  0.78378447  0.32226972  0.32226972  1
  O  O27  1  0.32226972  0.32226972  0.78378447  1
  O  O28  1  0.91801745  0.91801745  0.48034558  1
  O  O29  1  0.57963282  0.02450527  0.57963282  1
  O  O30  1  0.48034558  0.91801745  0.91801745  1
  O  O31  1  0.69088945  0.69088945  0.69088945  1
  O  O32  1  0.81205478  0.81205478  0.81205478  1
  O  O33  1  0.02450527  0.57963282  0.57963282  1
  O  O34  1  0.57963282  0.57963282  0.02450527  1
  O  O35  1  0.91801745  0.48034558  0.91801745  1
  O  O36  1  0.82956639  0.27490471  0.82956639  1
  O  O37  1  0.17029691  0.17029691  0.72538922  1
  O  O38  1  0.05940828  0.05940828  0.05940828  1
  O  O39  1  0.72538922  0.17029691  0.17029691  1
  O  O40  1  0.94088291  0.94088291  0.94088291  1
  O  O41  1  0.27490471  0.82956639  0.82956639  1
  O  O42  1  0.82956639  0.82956639  0.27490471  1
  O  O43  1  0.17029691  0.72538922  0.17029691  1
  O  O44  1  0.08089971  0.52337199  0.08089971  1
  O  O45  1  0.42082747  0.42082747  0.97429286  1
  O  O46  1  0.97429286  0.42082747  0.42082747  1
  O  O47  1  0.30906470  0.30906470  0.30906470  1
  O  O48  1  0.19073524  0.19073524  0.19073524  1
  O  O49  1  0.52337199  0.08089971  0.08089971  1
  O  O50  1  0.08089971  0.08089971  0.52337199  1
  O  O51  1  0.42082747  0.97429286  0.42082747  1
  O  O52  1  0.68604726  0.68604726  0.19663174  1
  O  O53  1  0.55812735  0.55812735  0.55812735  1
  O  O54  1  0.19663174  0.68604726  0.68604726  1
  O  O55  1  0.68604726  0.19663174  0.68604726  1
