# generated using pymatgen
data_Co3P4PbO14
_symmetry_space_group_name_H-M   'P 1'
_cell_length_a   7.72490828
_cell_length_b   7.36022336
_cell_length_c   9.41652863
_cell_angle_alpha   68.66336739
_cell_angle_beta   90.00000000
_cell_angle_gamma   90.00000000
_symmetry_Int_Tables_number   1
_chemical_formula_structural   Co3P4PbO14
_chemical_formula_sum   'Co6 P8 Pb2 O28'
_cell_volume   498.69934940
_cell_formula_units_Z   2
loop_
 _symmetry_equiv_pos_site_id
 _symmetry_equiv_pos_as_xyz
  1  'x, y, z'
loop_
 _atom_site_type_symbol
 _atom_site_label
 _atom_site_symmetry_multiplicity
 _atom_site_fract_x
 _atom_site_fract_y
 _atom_site_fract_z
 _atom_site_occupancy
  Co  Co0  1  0.62603226  0.68604767  0.47610512  1
  Co  Co1  1  0.87396774  0.68604767  0.97610512  1
  Co  Co2  1  0.37396774  0.31395233  0.52389488  1
  Co  Co3  1  0.12603226  0.31395233  0.02389488  1
  Co  Co4  1  0.50000000  0.50000000  0.00000000  1
  Co  Co5  1  -0.00000000  0.50000000  0.50000000  1
  P  P6  1  0.04829956  0.10305375  0.80162179  1
  P  P7  1  0.29113137  0.60096420  0.69681371  1
  P  P8  1  0.79113137  0.39903580  0.80318629  1
  P  P9  1  0.45170044  0.10305375  0.30162179  1
  P  P10  1  0.70886863  0.39903580  0.30318629  1
  P  P11  1  0.95170044  0.89694625  0.19837821  1
  P  P12  1  0.54829956  0.89694625  0.69837821  1
  P  P13  1  0.20886863  0.60096420  0.19681371  1
  Pb  Pb14  1  -0.00000000  -0.00000000  0.50000000  1
  Pb  Pb15  1  0.50000000  -0.00000000  0.00000000  1
  O  O16  1  0.36385757  0.81163220  0.67626398  1
  O  O17  1  0.10859808  0.22304820  0.63955177  1
  O  O18  1  0.08206096  0.51048623  0.11890075  1
  O  O19  1  0.60859808  0.77695180  0.86044823  1
  O  O20  1  0.41793904  0.51048623  0.61890075  1
  O  O21  1  0.89140192  0.77695180  0.36044823  1
  O  O22  1  0.66996498  0.87365725  0.57992016  1
  O  O23  1  0.38128634  0.64289574  0.11377783  1
  O  O24  1  0.28303196  0.49884734  0.86990049  1
  O  O25  1  0.21696804  0.49884734  0.36990049  1
  O  O26  1  0.86385757  0.18836780  0.82373602  1
  O  O27  1  0.91793904  0.48951377  0.88109925  1
  O  O28  1  0.58206096  0.48951377  0.38109925  1
  O  O29  1  0.83003502  0.87365725  0.07992016  1
  O  O30  1  0.63614243  0.18836780  0.32373602  1
  O  O31  1  0.33003502  0.12634275  0.42007984  1
  O  O32  1  0.16996498  0.12634275  0.92007984  1
  O  O33  1  0.78303196  0.50115266  0.63009951  1
  O  O34  1  0.51016996  0.10446391  0.68537850  1
  O  O35  1  0.11871366  0.64289574  0.61377783  1
  O  O36  1  0.39140192  0.22304820  0.13955177  1
  O  O37  1  0.01016996  0.89553609  0.81462150  1
  O  O38  1  0.61871366  0.35710426  0.88622217  1
  O  O39  1  0.88128634  0.35710426  0.38622217  1
  O  O40  1  0.13614243  0.81163220  0.17626398  1
  O  O41  1  0.98983004  0.10446391  0.18537850  1
  O  O42  1  0.48983004  0.89553609  0.31462150  1
  O  O43  1  0.71696804  0.50115266  0.13009951  1
