# generated using pymatgen
data_As2Pb2O5
_symmetry_space_group_name_H-M   'P 1'
_cell_length_a   5.71561269
_cell_length_b   8.58581130
_cell_length_c   13.67907807
_cell_angle_alpha   70.99009953
_cell_angle_beta   90.00000000
_cell_angle_gamma   90.00000000
_symmetry_Int_Tables_number   1
_chemical_formula_structural   As2Pb2O5
_chemical_formula_sum   'As8 Pb8 O20'
_cell_volume   634.66591923
_cell_formula_units_Z   4
loop_
 _symmetry_equiv_pos_site_id
 _symmetry_equiv_pos_as_xyz
  1  'x, y, z'
loop_
 _atom_site_type_symbol
 _atom_site_label
 _atom_site_symmetry_multiplicity
 _atom_site_fract_x
 _atom_site_fract_y
 _atom_site_fract_z
 _atom_site_occupancy
  As  As0  1  0.86884724  0.38676196  0.93695413  1
  As  As1  1  0.36884724  0.61323804  0.56304587  1
  As  As2  1  0.13115276  0.61323804  0.06304587  1
  As  As3  1  0.63115276  0.38676196  0.43695413  1
  As  As4  1  0.12797709  0.11656297  0.12933301  1
  As  As5  1  0.62797709  0.88343703  0.37066699  1
  As  As6  1  0.87202291  0.88343703  0.87066699  1
  As  As7  1  0.37202291  0.11656297  0.62933301  1
  Pb  Pb8  1  0.34358577  0.14193102  0.88038420  1
  Pb  Pb9  1  0.84358577  0.85806898  0.61961580  1
  Pb  Pb10  1  0.65641423  0.85806898  0.11961580  1
  Pb  Pb11  1  0.15641423  0.14193102  0.38038420  1
  Pb  Pb12  1  0.65659560  0.34968788  0.20111542  1
  Pb  Pb13  1  0.15659560  0.65031212  0.29888458  1
  Pb  Pb14  1  0.34340440  0.65031212  0.79888458  1
  Pb  Pb15  1  0.84340440  0.34968788  0.70111542  1
  O  O16  1  0.66365605  0.34782205  0.85229460  1
  O  O17  1  0.16365605  0.65217795  0.64770540  1
  O  O18  1  0.33634395  0.65217795  0.14770540  1
  O  O19  1  0.83634395  0.34782205  0.35229460  1
  O  O20  1  0.11974048  0.37936617  0.86200315  1
  O  O21  1  0.61974048  0.62063383  0.63799685  1
  O  O22  1  0.88025952  0.62063383  0.13799685  1
  O  O23  1  0.38025952  0.37936617  0.36200315  1
  O  O24  1  0.88800765  0.17932086  0.03314012  1
  O  O25  1  0.38800765  0.82067914  0.46685988  1
  O  O26  1  0.11199235  0.82067914  0.96685988  1
  O  O27  1  0.61199235  0.17932086  0.53314012  1
  O  O28  1  0.04915402  0.23973080  0.20623330  1
  O  O29  1  0.54915402  0.76026920  0.29376670  1
  O  O30  1  0.95084598  0.76026920  0.79376670  1
  O  O31  1  0.45084598  0.23973080  0.70623330  1
  O  O32  1  0.99931895  0.92969918  0.20004390  1
  O  O33  1  0.49931895  0.07030082  0.29995610  1
  O  O34  1  0.00068105  0.07030082  0.79995610  1
  O  O35  1  0.50068105  0.92969918  0.70004390  1
