# generated using pymatgen
data_La10S19
_symmetry_space_group_name_H-M   'P 1'
_cell_length_a   9.15840477
_cell_length_b   9.15840477
_cell_length_c   16.37264657
_cell_angle_alpha   90.00000000
_cell_angle_beta   90.00000000
_cell_angle_gamma   90.00000000
_symmetry_Int_Tables_number   1
_chemical_formula_structural   La10S19
_chemical_formula_sum   'La20 S38'
_cell_volume   1373.27829144
_cell_formula_units_Z   2
loop_
 _symmetry_equiv_pos_site_id
 _symmetry_equiv_pos_as_xyz
  1  'x, y, z'
loop_
 _atom_site_type_symbol
 _atom_site_label
 _atom_site_symmetry_multiplicity
 _atom_site_fract_x
 _atom_site_fract_y
 _atom_site_fract_z
 _atom_site_occupancy
  La  La0  1  0.54112356  0.84802130  0.87697400  1
  La  La1  1  0.15197870  0.04112356  0.37697300  1
  La  La2  1  0.44384321  0.14659327  0.60150242  1
  La  La3  1  0.65197870  0.54112356  0.62302600  1
  La  La4  1  0.45887644  0.15197870  0.12302600  1
  La  La5  1  0.14659327  0.05615679  0.89849758  1
  La  La6  1  0.75000000  0.25000000  0.88697924  1
  La  La7  1  0.55615679  0.85340673  0.39849758  1
  La  La8  1  0.95887644  0.65197870  0.87697400  1
  La  La9  1  0.75000000  0.25000000  0.38697924  1
  La  La10  1  0.34802130  0.45887644  0.37697300  1
  La  La11  1  0.25000000  0.75000000  0.61302076  1
  La  La12  1  0.04112356  0.34802130  0.12302600  1
  La  La13  1  0.35340673  0.44384321  0.89849758  1
  La  La14  1  0.25000000  0.75000000  0.11302076  1
  La  La15  1  0.84802130  0.95887644  0.62302600  1
  La  La16  1  0.64659327  0.55615679  0.10150242  1
  La  La17  1  0.85340673  0.94384321  0.10150242  1
  La  La18  1  0.94384321  0.64659327  0.39849758  1
  La  La19  1  0.05615679  0.35340673  0.60150242  1
  S  S20  1  0.14794816  0.05367893  0.56207935  1
  S  S21  1  0.05367893  0.35205184  0.93792065  1
  S  S22  1  0.45138993  0.15101948  0.42463305  1
  S  S23  1  0.41720421  0.60959541  0.75001276  1
  S  S24  1  0.75000000  0.25000000  0.56703537  1
  S  S25  1  0.19986250  0.53019379  0.74889869  1
  S  S26  1  0.96980621  0.19986250  0.75110131  1
  S  S27  1  0.03019379  0.80013750  0.24889869  1
  S  S28  1  0.60959541  0.08279579  0.74998724  1
  S  S29  1  0.95138993  0.65101948  0.57536695  1
  S  S30  1  0.65101948  0.54861007  0.92463305  1
  S  S31  1  0.35205184  0.44632107  0.56207935  1
  S  S32  1  0.89040459  0.41720421  0.74998724  1
  S  S33  1  0.15101948  0.04861007  0.07536695  1
  S  S34  1  0.75000000  0.25000000  0.06703537  1
  S  S35  1  0.58279579  0.39040459  0.24998724  1
  S  S36  1  0.55367893  0.85205184  0.06207935  1
  S  S37  1  0.64794816  0.55367893  0.43792065  1
  S  S38  1  0.80013750  0.46980621  0.25110131  1
  S  S39  1  0.30013750  0.96980621  0.74889869  1
  S  S40  1  0.91720421  0.10959541  0.24998724  1
  S  S41  1  0.04861007  0.34898052  0.42463305  1
  S  S42  1  0.75000000  0.75000000  0.75000000  1
  S  S43  1  0.08279579  0.89040459  0.75001276  1
  S  S44  1  0.25000000  0.75000000  0.43296463  1
  S  S45  1  0.46980621  0.69986250  0.24889869  1
  S  S46  1  0.53019379  0.30013750  0.75110131  1
  S  S47  1  0.85205184  0.94632107  0.43792065  1
  S  S48  1  0.39040459  0.91720421  0.25001276  1
  S  S49  1  0.94632107  0.64794816  0.06207935  1
  S  S50  1  0.69986250  0.03019379  0.25110131  1
  S  S51  1  0.44632107  0.14794816  0.93792065  1
  S  S52  1  0.84898052  0.95138993  0.92463305  1
  S  S53  1  0.34898052  0.45138993  0.07536695  1
  S  S54  1  0.25000000  0.25000000  0.25000000  1
  S  S55  1  0.25000000  0.75000000  0.93296463  1
  S  S56  1  0.10959541  0.58279579  0.25001276  1
  S  S57  1  0.54861007  0.84898052  0.57536695  1
