# generated using pymatgen
data_Cs3BiCl6
_symmetry_space_group_name_H-M   'P 1'
_cell_length_a   14.21479890
_cell_length_b   14.21479890
_cell_length_c   13.21026657
_cell_angle_alpha   80.80235238
_cell_angle_beta   80.80235238
_cell_angle_gamma   33.86605250
_symmetry_Int_Tables_number   1
_chemical_formula_structural   Cs3BiCl6
_chemical_formula_sum   'Cs12 Bi4 Cl24'
_cell_volume   1466.55124674
_cell_formula_units_Z   4
loop_
 _symmetry_equiv_pos_site_id
 _symmetry_equiv_pos_as_xyz
  1  'x, y, z'
loop_
 _atom_site_type_symbol
 _atom_site_label
 _atom_site_symmetry_multiplicity
 _atom_site_fract_x
 _atom_site_fract_y
 _atom_site_fract_z
 _atom_site_occupancy
  Cs  Cs0  1  0.02472333  0.65287671  0.29936882  1
  Cs  Cs1  1  0.20240029  0.69788434  0.93275475  1
  Cs  Cs2  1  0.46885709  0.84015981  0.85461248  1
  Cs  Cs3  1  0.97527667  0.34712329  0.70063118  1
  Cs  Cs4  1  0.84015981  0.46885709  0.35461248  1
  Cs  Cs5  1  0.69788434  0.20240029  0.43275475  1
  Cs  Cs6  1  0.65287671  0.02472333  0.79936882  1
  Cs  Cs7  1  0.15984019  0.53114291  0.64538752  1
  Cs  Cs8  1  0.53114291  0.15984019  0.14538752  1
  Cs  Cs9  1  0.30211566  0.79759971  0.56724525  1
  Cs  Cs10  1  0.34712329  0.97527667  0.20063118  1
  Cs  Cs11  1  0.79759971  0.30211566  0.06724525  1
  Bi  Bi12  1  0.78396342  0.21603658  0.75000000  1
  Bi  Bi13  1  0.50000000  -0.00000000  0.50000000  1
  Bi  Bi14  1  0.21603658  0.78396342  0.25000000  1
  Bi  Bi15  1  0.00000000  0.50000000  0.00000000  1
  Cl  Cl16  1  0.38083013  0.27385814  0.41922603  1
  Cl  Cl17  1  0.13978543  0.36089776  0.18707933  1
  Cl  Cl18  1  0.36089776  0.13978543  0.68707933  1
  Cl  Cl19  1  0.83466070  0.28151352  0.56314587  1
  Cl  Cl20  1  0.50365497  0.61099272  0.31975048  1
  Cl  Cl21  1  0.61099272  0.50365497  0.81975048  1
  Cl  Cl22  1  0.22104404  0.13230311  0.46571078  1
  Cl  Cl23  1  0.72614186  0.61916987  0.08077397  1
  Cl  Cl24  1  0.27385814  0.38083013  0.91922603  1
  Cl  Cl25  1  0.86021457  0.63910224  0.81292067  1
  Cl  Cl26  1  0.08586694  0.02941202  0.80705635  1
  Cl  Cl27  1  0.91413306  0.97058798  0.19294365  1
  Cl  Cl28  1  0.13230311  0.22104404  0.96571078  1
  Cl  Cl29  1  0.28151352  0.83466070  0.06314587  1
  Cl  Cl30  1  0.02941202  0.08586694  0.30705635  1
  Cl  Cl31  1  0.77895596  0.86769689  0.53428922  1
  Cl  Cl32  1  0.16533930  0.71848648  0.43685413  1
  Cl  Cl33  1  0.63910224  0.86021457  0.31292067  1
  Cl  Cl34  1  0.97058798  0.91413306  0.69294365  1
  Cl  Cl35  1  0.38900728  0.49634503  0.18024952  1
  Cl  Cl36  1  0.61916987  0.72614186  0.58077397  1
  Cl  Cl37  1  0.86769689  0.77895596  0.03428922  1
  Cl  Cl38  1  0.71848648  0.16533930  0.93685413  1
  Cl  Cl39  1  0.49634503  0.38900728  0.68024952  1
