# generated using pymatgen
data_Pr(IO3)3
_symmetry_space_group_name_H-M   'P 1'
_cell_length_a   5.91978850
_cell_length_b   8.87510290
_cell_length_c   16.82199214
_cell_angle_alpha   65.46730049
_cell_angle_beta   90.00000000
_cell_angle_gamma   90.00000000
_symmetry_Int_Tables_number   1
_chemical_formula_structural   Pr(IO3)3
_chemical_formula_sum   'Pr4 I12 O36'
_cell_volume   804.02005364
_cell_formula_units_Z   4
loop_
 _symmetry_equiv_pos_site_id
 _symmetry_equiv_pos_as_xyz
  1  'x, y, z'
loop_
 _atom_site_type_symbol
 _atom_site_label
 _atom_site_symmetry_multiplicity
 _atom_site_fract_x
 _atom_site_fract_y
 _atom_site_fract_z
 _atom_site_occupancy
  Pr  Pr0  1  0.76529873  0.86178684  0.09905822  1
  Pr  Pr1  1  0.26529873  0.13821316  0.40094178  1
  Pr  Pr2  1  0.73470127  0.86178684  0.59905822  1
  Pr  Pr3  1  0.23470127  0.13821316  0.90094178  1
  I  I4  1  0.63937697  0.36107618  0.47693151  1
  I  I5  1  0.81186281  0.92931866  0.34940310  1
  I  I6  1  0.40864825  0.58417393  0.80074534  1
  I  I7  1  0.09135175  0.58417393  0.30074534  1
  I  I8  1  0.36062303  0.63892382  0.52306849  1
  I  I9  1  0.68813719  0.92931866  0.84940310  1
  I  I10  1  0.90864825  0.41582607  0.69925466  1
  I  I11  1  0.86062303  0.36107618  0.97693151  1
  I  I12  1  0.13937697  0.63892382  0.02306849  1
  I  I13  1  0.59135175  0.41582607  0.19925466  1
  I  I14  1  0.31186281  0.07068134  0.15059690  1
  I  I15  1  0.18813719  0.07068134  0.65059690  1
  O  O16  1  0.90986020  0.33119861  0.61799601  1
  O  O17  1  0.11013032  0.90381625  0.17019186  1
  O  O18  1  0.91426826  0.90942521  0.45568583  1
  O  O19  1  0.18515456  0.34249729  0.74483691  1
  O  O20  1  0.68515456  0.65750271  0.75516309  1
  O  O21  1  0.81484544  0.65750271  0.25516309  1
  O  O22  1  0.08874481  0.36146988  0.05194239  1
  O  O23  1  0.58573174  0.90942521  0.95568583  1
  O  O24  1  0.41426826  0.09057479  0.04431417  1
  O  O25  1  0.08573174  0.09057479  0.54431417  1
  O  O26  1  0.38986968  0.90381625  0.67019186  1
  O  O27  1  0.44954557  0.06012933  0.79408391  1
  O  O28  1  0.05045443  0.06012933  0.29408391  1
  O  O29  1  0.91125519  0.63853012  0.94805761  1
  O  O30  1  0.46954639  0.40520829  0.37994978  1
  O  O31  1  0.41125519  0.36146988  0.55194239  1
  O  O32  1  0.61013032  0.09618375  0.32980814  1
  O  O33  1  0.40593531  0.86265595  0.49122044  1
  O  O34  1  0.94954557  0.93987067  0.70591609  1
  O  O35  1  0.55045443  0.93987067  0.20591609  1
  O  O36  1  0.88986968  0.09618375  0.82980814  1
  O  O37  1  0.03045361  0.40520829  0.87994978  1
  O  O38  1  0.59406469  0.13734405  0.50877956  1
  O  O39  1  0.00236625  0.62755550  0.63231151  1
  O  O40  1  0.53045361  0.59479171  0.62005022  1
  O  O41  1  0.59013980  0.33119861  0.11799601  1
  O  O42  1  0.58874481  0.63853012  0.44805761  1
  O  O43  1  0.50236625  0.37244450  0.86768849  1
  O  O44  1  0.96954639  0.59479171  0.12005022  1
  O  O45  1  0.99763375  0.37244450  0.36768849  1
  O  O46  1  0.90593531  0.13734405  0.00877956  1
  O  O47  1  0.31484544  0.34249729  0.24483691  1
  O  O48  1  0.40986020  0.66880139  0.88200399  1
  O  O49  1  0.49763375  0.62755550  0.13231151  1
  O  O50  1  0.09406469  0.86265595  0.99122044  1
  O  O51  1  0.09013980  0.66880139  0.38200399  1
