# generated using pymatgen
data_Cs3TaO8
_symmetry_space_group_name_H-M   'P 1'
_cell_length_a   6.69476987
_cell_length_b   6.69476940
_cell_length_c   6.69476885
_cell_angle_alpha   103.48914583
_cell_angle_beta   112.54255749
_cell_angle_gamma   112.54253988
_symmetry_Int_Tables_number   1
_chemical_formula_structural   Cs3TaO8
_chemical_formula_sum   'Cs3 Ta1 O8'
_cell_volume   229.12403956
_cell_formula_units_Z   1
loop_
 _symmetry_equiv_pos_site_id
 _symmetry_equiv_pos_as_xyz
  1  'x, y, z'
loop_
 _atom_site_type_symbol
 _atom_site_label
 _atom_site_symmetry_multiplicity
 _atom_site_fract_x
 _atom_site_fract_y
 _atom_site_fract_z
 _atom_site_occupancy
  Cs  Cs0  1  0.00000000  0.50000000  0.50000000  1
  Cs  Cs1  1  0.50000000  0.25000000  0.75000000  1
  Cs  Cs2  1  0.50000000  0.75000000  0.25000000  1
  Ta  Ta3  1  0.00000000  0.00000000  0.00000000  1
  O  O4  1  0.74116800  0.04868840  0.04868840  1
  O  O5  1  -0.00000000  0.78665551  0.17859402  1
  O  O6  1  0.00000000  0.69248060  0.95131160  1
  O  O7  1  0.25883200  0.30751940  0.30751940  1
  O  O8  1  0.00000000  0.95131160  0.69248060  1
  O  O9  1  0.00000000  0.17859402  0.78665551  1
  O  O10  1  0.39193851  0.21334449  0.21334449  1
  O  O11  1  0.60806149  0.82140598  0.82140598  1
