# generated using pymatgen
data_Nd10S19
_symmetry_space_group_name_H-M   'P 1'
_cell_length_a   8.96474174
_cell_length_b   8.96474174
_cell_length_c   16.20806906
_cell_angle_alpha   90.00000000
_cell_angle_beta   90.00000000
_cell_angle_gamma   90.00000000
_symmetry_Int_Tables_number   1
_chemical_formula_structural   Nd10S19
_chemical_formula_sum   'Nd20 S38'
_cell_volume   1302.58731349
_cell_formula_units_Z   2
loop_
 _symmetry_equiv_pos_site_id
 _symmetry_equiv_pos_as_xyz
  1  'x, y, z'
loop_
 _atom_site_type_symbol
 _atom_site_label
 _atom_site_symmetry_multiplicity
 _atom_site_fract_x
 _atom_site_fract_y
 _atom_site_fract_z
 _atom_site_occupancy
  Nd  Nd0  1  0.34811946  0.45909937  0.37739282  1
  Nd  Nd1  1  0.75000000  0.25000000  0.88588952  1
  Nd  Nd2  1  0.14564441  0.05567117  0.89725557  1
  Nd  Nd3  1  0.44432883  0.14564441  0.60274443  1
  Nd  Nd4  1  0.65188054  0.54090063  0.62260718  1
  Nd  Nd5  1  0.15188054  0.04090063  0.37739282  1
  Nd  Nd6  1  0.05567117  0.35435559  0.60274443  1
  Nd  Nd7  1  0.54090063  0.84811946  0.87739282  1
  Nd  Nd8  1  0.94432883  0.64564441  0.39725557  1
  Nd  Nd9  1  0.75000000  0.25000000  0.38588952  1
  Nd  Nd10  1  0.35435559  0.44432883  0.89725557  1
  Nd  Nd11  1  0.95909937  0.65188054  0.87739282  1
  Nd  Nd12  1  0.04090063  0.34811946  0.12260718  1
  Nd  Nd13  1  0.85435559  0.94432883  0.10274443  1
  Nd  Nd14  1  0.45909937  0.15188054  0.12260718  1
  Nd  Nd15  1  0.84811946  0.95909937  0.62260718  1
  Nd  Nd16  1  0.25000000  0.75000000  0.61411048  1
  Nd  Nd17  1  0.64564441  0.55567117  0.10274443  1
  Nd  Nd18  1  0.55567117  0.85435559  0.39725557  1
  Nd  Nd19  1  0.25000000  0.75000000  0.11411048  1
  S  S20  1  0.14816362  0.05317805  0.56197810  1
  S  S21  1  0.25000000  0.75000000  0.43414913  1
  S  S22  1  0.42127216  0.61159858  0.74995241  1
  S  S23  1  0.54904320  0.84823293  0.57361103  1
  S  S24  1  0.95095680  0.65176707  0.57361103  1
  S  S25  1  0.53009868  0.30224444  0.75092183  1
  S  S26  1  0.25000000  0.75000000  0.93414913  1
  S  S27  1  0.03009868  0.80224444  0.24907817  1
  S  S28  1  0.46990132  0.69775556  0.24907817  1
  S  S29  1  0.19775556  0.53009868  0.74907817  1
  S  S30  1  0.61159858  0.07872784  0.75004759  1
  S  S31  1  0.75000000  0.25000000  0.06585087  1
  S  S32  1  0.96990132  0.19775556  0.75092183  1
  S  S33  1  0.04904320  0.34823293  0.42638897  1
  S  S34  1  0.69775556  0.03009868  0.25092183  1
  S  S35  1  0.38840142  0.92127216  0.24995241  1
  S  S36  1  0.57872784  0.38840142  0.25004759  1
  S  S37  1  0.35183638  0.44682195  0.56197810  1
  S  S38  1  0.80224444  0.46990132  0.25092183  1
  S  S39  1  0.75000000  0.75000000  0.75000000  1
  S  S40  1  0.55317805  0.85183638  0.06197810  1
  S  S41  1  0.65176707  0.54904320  0.92638897  1
  S  S42  1  0.07872784  0.88840142  0.74995241  1
  S  S43  1  0.34823293  0.45095680  0.07361103  1
  S  S44  1  0.15176707  0.04904320  0.07361103  1
  S  S45  1  0.30224444  0.96990132  0.74907817  1
  S  S46  1  0.85183638  0.94682195  0.43802190  1
  S  S47  1  0.84823293  0.95095680  0.92638897  1
  S  S48  1  0.75000000  0.25000000  0.56585087  1
  S  S49  1  0.11159858  0.57872784  0.24995241  1
  S  S50  1  0.64816362  0.55317805  0.43802190  1
  S  S51  1  0.88840142  0.42127216  0.75004759  1
  S  S52  1  0.94682195  0.64816362  0.06197810  1
  S  S53  1  0.25000000  0.25000000  0.25000000  1
  S  S54  1  0.92127216  0.11159858  0.25004759  1
  S  S55  1  0.05317805  0.35183638  0.93802190  1
  S  S56  1  0.45095680  0.15176707  0.42638897  1
  S  S57  1  0.44682195  0.14816362  0.93802190  1
