# generated using pymatgen
data_P2S5
_symmetry_space_group_name_H-M   'P 1'
_cell_length_a   9.32090082
_cell_length_b   9.46217098
_cell_length_c   9.46100547
_cell_angle_alpha   92.58533510
_cell_angle_beta   109.13075544
_cell_angle_gamma   101.08104657
_symmetry_Int_Tables_number   1
_chemical_formula_structural   P2S5
_chemical_formula_sum   'P8 S20'
_cell_volume   768.36640391
_cell_formula_units_Z   4
loop_
 _symmetry_equiv_pos_site_id
 _symmetry_equiv_pos_as_xyz
  1  'x, y, z'
loop_
 _atom_site_type_symbol
 _atom_site_label
 _atom_site_symmetry_multiplicity
 _atom_site_fract_x
 _atom_site_fract_y
 _atom_site_fract_z
 _atom_site_occupancy
  P  P0  1  0.74157750  0.18609886  0.90980202  1
  P  P1  1  0.25842250  0.81390114  0.09019798  1
  P  P2  1  0.08366544  0.28194130  0.83723480  1
  P  P3  1  0.91633456  0.71805870  0.16276520  1
  P  P4  1  0.73596028  0.29578075  0.56719899  1
  P  P5  1  0.26403972  0.70421925  0.43280101  1
  P  P6  1  0.82022203  0.96596874  0.65796811  1
  P  P7  1  0.17977797  0.03403126  0.34203189  1
  S  S8  1  0.65229830  0.19106501  0.06407300  1
  S  S9  1  0.34770170  0.80893499  0.93592700  1
  S  S10  1  0.97947753  0.28418774  0.00305249  1
  S  S11  1  0.02052247  0.71581226  0.99694751  1
  S  S12  1  0.63177420  0.29885704  0.73340080  1
  S  S13  1  0.36822580  0.70114296  0.26659920  1
  S  S14  1  0.71519867  0.97010664  0.82332655  1
  S  S15  1  0.28480133  0.02989336  0.17667345  1
  S  S16  1  0.29972724  0.37006354  0.92397736  1
  S  S17  1  0.70027276  0.62993646  0.07602264  1
  S  S18  1  0.97350192  0.39575816  0.66241439  1
  S  S19  1  0.02649808  0.60424184  0.33758561  1
  S  S20  1  0.05750324  0.06582774  0.75240608  1
  S  S21  1  0.94249676  0.93417226  0.24759392  1
  S  S22  1  0.63778418  0.39697932  0.40591516  1
  S  S23  1  0.36221582  0.60302068  0.59408484  1
  S  S24  1  0.71276848  0.08029739  0.48245331  1
  S  S25  1  0.28723152  0.91970261  0.51754669  1
  S  S26  1  0.79729281  0.76997126  0.58054985  1
  S  S27  1  0.20270719  0.23002874  0.41945015  1
