# generated using pymatgen
data_NaY(SeO3)2
_symmetry_space_group_name_H-M   'P 1'
_cell_length_a   5.39608398
_cell_length_b   8.53326652
_cell_length_c   12.69626348
_cell_angle_alpha   90.00000000
_cell_angle_beta   90.00000000
_cell_angle_gamma   90.00000000
_symmetry_Int_Tables_number   1
_chemical_formula_structural   NaY(SeO3)2
_chemical_formula_sum   'Na4 Y4 Se8 O24'
_cell_volume   584.61497649
_cell_formula_units_Z   4
loop_
 _symmetry_equiv_pos_site_id
 _symmetry_equiv_pos_as_xyz
  1  'x, y, z'
loop_
 _atom_site_type_symbol
 _atom_site_label
 _atom_site_symmetry_multiplicity
 _atom_site_fract_x
 _atom_site_fract_y
 _atom_site_fract_z
 _atom_site_occupancy
  Na  Na0  1  0.79499277  0.99024912  0.61820879  1
  Na  Na1  1  0.79499277  0.50975088  0.11820879  1
  Na  Na2  1  0.29499277  0.00975088  0.38179121  1
  Na  Na3  1  0.29499277  0.49024912  0.88179121  1
  Y  Y4  1  0.24122133  0.17639826  0.08409287  1
  Y  Y5  1  0.74122133  0.82360174  0.91590713  1
  Y  Y6  1  0.74122133  0.67639826  0.41590713  1
  Y  Y7  1  0.24122133  0.32360174  0.58409287  1
  Se  Se8  1  0.74868781  0.96899301  0.20182099  1
  Se  Se9  1  0.24868781  0.46899301  0.29817901  1
  Se  Se10  1  0.79551479  0.26550868  0.41660427  1
  Se  Se11  1  0.29551479  0.73449132  0.58339573  1
  Se  Se12  1  0.74868781  0.53100699  0.70182099  1
  Se  Se13  1  0.29551479  0.76550868  0.08339573  1
  Se  Se14  1  0.24868781  0.03100699  0.79817901  1
  Se  Se15  1  0.79551479  0.23449132  0.91660427  1
  O  O16  1  0.99462415  0.14794218  0.48370930  1
  O  O17  1  0.06115654  0.87019669  0.80020791  1
  O  O18  1  0.19378957  0.09585106  0.67358790  1
  O  O19  1  0.37971589  0.56470452  0.51551771  1
  O  O20  1  0.01838535  0.78132684  0.52946198  1
  O  O21  1  0.49462415  0.85205782  0.51629070  1
  O  O22  1  0.54021082  0.54637623  0.28447168  1
  O  O23  1  0.06115654  0.62980331  0.30020791  1
  O  O24  1  0.01838535  0.71867316  0.02946198  1
  O  O25  1  0.69378957  0.90414894  0.32641210  1
  O  O26  1  0.04021082  0.04637623  0.21552832  1
  O  O27  1  0.51838535  0.21867316  0.47053802  1
  O  O28  1  0.69378957  0.59585106  0.82641210  1
  O  O29  1  0.19378957  0.40414894  0.17358790  1
  O  O30  1  0.99462415  0.35205782  0.98370930  1
  O  O31  1  0.37971589  0.93529548  0.01551771  1
  O  O32  1  0.56115654  0.37019669  0.69979209  1
  O  O33  1  0.87971589  0.43529548  0.48448229  1
  O  O34  1  0.49462415  0.64794218  0.01629070  1
  O  O35  1  0.04021082  0.45362377  0.71552832  1
  O  O36  1  0.56115654  0.12980331  0.19979209  1
  O  O37  1  0.54021082  0.95362377  0.78447168  1
  O  O38  1  0.51838535  0.28132684  0.97053802  1
  O  O39  1  0.87971589  0.06470452  0.98448229  1
