# generated using pymatgen
data_BaCr2O4
_symmetry_space_group_name_H-M   'P 1'
_cell_length_a   5.19061902
_cell_length_b   5.97844667
_cell_length_c   12.32684033
_cell_angle_alpha   90.00006833
_cell_angle_beta   90.00005198
_cell_angle_gamma   90.00001534
_symmetry_Int_Tables_number   1
_chemical_formula_structural   BaCr2O4
_chemical_formula_sum   'Ba4 Cr8 O16'
_cell_volume   382.52452444
_cell_formula_units_Z   4
loop_
 _symmetry_equiv_pos_site_id
 _symmetry_equiv_pos_as_xyz
  1  'x, y, z'
loop_
 _atom_site_type_symbol
 _atom_site_label
 _atom_site_symmetry_multiplicity
 _atom_site_fract_x
 _atom_site_fract_y
 _atom_site_fract_z
 _atom_site_occupancy
  Ba  Ba0  1  0.86579200  0.25000068  0.75000049  1
  Ba  Ba1  1  0.13306665  0.75000007  0.24999862  1
  Ba  Ba2  1  0.55380850  0.25000042  0.24999982  1
  Ba  Ba3  1  0.44508425  0.75000050  0.75000040  1
  Cr  Cr4  1  0.49842159  0.25000119  0.50511446  1
  Cr  Cr5  1  0.49841457  0.24999898  0.99488490  1
  Cr  Cr6  1  0.50165040  0.74999704  0.49497201  1
  Cr  Cr7  1  0.50165305  0.74999966  0.00503047  1
  Cr  Cr8  1  0.00003165  0.50004664  0.49995620  1
  Cr  Cr9  1  0.00002342  -0.00005294  0.00004324  1
  Cr  Cr10  1  0.00003232  -0.00004312  0.49995631  1
  Cr  Cr11  1  0.00002595  0.50004626  0.00004327  1
  O  O12  1  0.83104285  0.75000110  0.41552642  1
  O  O13  1  0.83103668  0.74999958  0.08447512  1
  O  O14  1  0.16922230  0.25000117  0.58445483  1
  O  O15  1  0.16921755  0.24999869  0.91554550  1
  O  O16  1  0.16662838  0.75000147  0.57919112  1
  O  O17  1  0.16661517  0.74999979  0.92080732  1
  O  O18  1  0.83341549  0.25000058  0.42074846  1
  O  O19  1  0.83340597  0.24999960  0.07925212  1
  O  O20  1  0.66559682  0.50283802  0.58588345  1
  O  O21  1  0.66559116  0.99716569  0.91411552  1
  O  O22  1  0.33476246  0.00287650  0.41417881  1
  O  O23  1  0.33475601  0.49712289  0.08582143  1
  O  O24  1  0.33476290  0.49712667  0.41417906  1
  O  O25  1  0.33475589  0.00287509  0.08582155  1
  O  O26  1  0.66559710  0.99716917  0.58588368  1
  O  O27  1  0.66559094  0.50283061  0.91411541  1
