# generated using pymatgen
data_K2Be2(Si2O5)3
_symmetry_space_group_name_H-M   'P 1'
_cell_length_a   8.56085952
_cell_length_b   8.56085995
_cell_length_c   11.51563887
_cell_angle_alpha   90.00000000
_cell_angle_beta   90.00000000
_cell_angle_gamma   128.15372949
_symmetry_Int_Tables_number   1
_chemical_formula_structural   K2Be2(Si2O5)3
_chemical_formula_sum   'K4 Be4 Si12 O30'
_cell_volume   663.65447949
_cell_formula_units_Z   2
loop_
 _symmetry_equiv_pos_site_id
 _symmetry_equiv_pos_as_xyz
  1  'x, y, z'
loop_
 _atom_site_type_symbol
 _atom_site_label
 _atom_site_symmetry_multiplicity
 _atom_site_fract_x
 _atom_site_fract_y
 _atom_site_fract_z
 _atom_site_occupancy
  K  K0  1  0.90236266  0.09763734  0.40047984  1
  K  K1  1  0.20704599  0.79295401  0.62139727  1
  K  K2  1  0.79295401  0.20704599  0.12139727  1
  K  K3  1  0.09763734  0.90236266  0.90047984  1
  Be  Be4  1  0.46708360  0.22825036  0.75497006  1
  Be  Be5  1  0.53291640  0.77174964  0.25497006  1
  Be  Be6  1  0.22825036  0.46708360  0.25497006  1
  Be  Be7  1  0.77174964  0.53291640  0.75497006  1
  Si  Si8  1  0.35103462  0.64896538  0.01906283  1
  Si  Si9  1  0.44997691  0.55002309  0.48081890  1
  Si  Si10  1  0.26154746  0.15066738  0.17137626  1
  Si  Si11  1  0.84933262  0.73845254  0.17137626  1
  Si  Si12  1  0.42028502  0.00212854  0.35022855  1
  Si  Si13  1  0.73845254  0.84933262  0.67137626  1
  Si  Si14  1  0.00212854  0.42028502  0.85022855  1
  Si  Si15  1  0.99787146  0.57971498  0.35022855  1
  Si  Si16  1  0.64896538  0.35103462  0.51906283  1
  Si  Si17  1  0.55002309  0.44997591  0.98081890  1
  Si  Si18  1  0.15066738  0.26154746  0.67137626  1
  Si  Si19  1  0.57971498  0.99787146  0.85022855  1
  O  O20  1  0.55335445  0.44664555  0.46326249  1
  O  O21  1  0.07523815  0.92476185  0.13166240  1
  O  O22  1  0.96834058  0.56576452  0.79297545  1
  O  O23  1  0.73396112  0.81621553  0.21693311  1
  O  O24  1  0.18378447  0.26603888  0.21693311  1
  O  O25  1  0.26603888  0.18378447  0.71693311  1
  O  O26  1  0.48256290  0.87827699  0.97352279  1
  O  O27  1  0.60038396  0.75594494  0.55374805  1
  O  O28  1  0.87827699  0.48256290  0.47352279  1
  O  O29  1  0.64693902  0.35306098  0.65774778  1
  O  O30  1  0.92476185  0.07523815  0.63166240  1
  O  O31  1  0.44664555  0.55335445  0.96326249  1
  O  O32  1  0.61027975  0.86573456  0.76740470  1
  O  O33  1  0.59619849  0.40380151  0.85646193  1
  O  O34  1  0.56576452  0.96834058  0.29297545  1
  O  O35  1  0.24405506  0.39961604  0.55374805  1
  O  O36  1  0.75594494  0.60038396  0.05374805  1
  O  O37  1  0.12172301  0.51743710  0.97352279  1
  O  O38  1  0.20210389  0.79789611  0.38618962  1
  O  O39  1  0.43423548  0.03165942  0.79297545  1
  O  O40  1  0.81621553  0.73396112  0.71693311  1
  O  O41  1  0.40380151  0.59619849  0.35646193  1
  O  O42  1  0.86573456  0.61027975  0.26740470  1
  O  O43  1  0.39961604  0.24405506  0.05374805  1
  O  O44  1  0.79789611  0.20210389  0.88618962  1
  O  O45  1  0.35306098  0.64693902  0.15774778  1
  O  O46  1  0.51743710  0.12172301  0.47352279  1
  O  O47  1  0.38972025  0.13426544  0.26740470  1
  O  O48  1  0.13426544  0.38972025  0.76740470  1
  O  O49  1  0.03165942  0.43423548  0.29297545  1
