# generated using pymatgen
data_Na10Co4O9
_symmetry_space_group_name_H-M   'P 1'
_cell_length_a   8.32620457
_cell_length_b   8.23705843
_cell_length_c   11.35868326
_cell_angle_alpha   85.45721593
_cell_angle_beta   110.47722144
_cell_angle_gamma   119.39528305
_symmetry_Int_Tables_number   1
_chemical_formula_structural   Na10Co4O9
_chemical_formula_sum   'Na20 Co8 O18'
_cell_volume   631.73771620
_cell_formula_units_Z   2
loop_
 _symmetry_equiv_pos_site_id
 _symmetry_equiv_pos_as_xyz
  1  'x, y, z'
loop_
 _atom_site_type_symbol
 _atom_site_label
 _atom_site_symmetry_multiplicity
 _atom_site_fract_x
 _atom_site_fract_y
 _atom_site_fract_z
 _atom_site_occupancy
  Na  Na0  1  0.86370841  0.68083254  0.11876939  1
  Na  Na1  1  0.62901310  0.83542403  0.36478477  1
  Na  Na2  1  0.47403438  0.57635015  0.12145802  1
  Na  Na3  1  0.37098690  0.16457597  0.63521523  1
  Na  Na4  1  0.65390436  0.58316029  0.62785634  1
  Na  Na5  1  0.17685980  0.66134241  0.37047144  1
  Na  Na6  1  0.10009998  0.77737202  0.61917711  1
  Na  Na7  1  0.34609564  0.41683971  0.37214366  1
  Na  Na8  1  0.00499817  0.37265665  0.14275485  1
  Na  Na9  1  0.73385800  0.97586995  0.11583518  1
  Na  Na10  1  0.84681899  0.88878412  0.88364375  1
  Na  Na11  1  0.52596562  0.42364985  0.87854198  1
  Na  Na12  1  0.13629159  0.31916746  0.88123061  1
  Na  Na13  1  0.82314020  0.33865759  0.62952856  1
  Na  Na14  1  0.50332252  0.88287771  0.61147259  1
  Na  Na15  1  0.49667748  0.11712229  0.38852741  1
  Na  Na16  1  0.15318101  0.11121588  0.11635625  1
  Na  Na17  1  0.26614200  0.02413005  0.88416482  1
  Na  Na18  1  -0.00499817  0.62734335  0.85724515  1
  Na  Na19  1  0.89990002  0.22262798  0.38082289  1
  Co  Co20  1  0.58167873  0.26015993  0.15138511  1
  Co  Co21  1  0.41832127  0.73984007  0.84861489  1
  Co  Co22  1  0.94068370  0.04002248  0.64107630  1
  Co  Co23  1  0.29629455  0.82160257  0.14241534  1
  Co  Co24  1  0.70370545  0.17839743  0.85758466  1
  Co  Co25  1  0.05931630  0.95997752  0.35892370  1
  Co  Co26  1  0.24021354  0.46377551  0.65084059  1
  Co  Co27  1  0.75978646  0.53622449  0.34915941  1
  O  O28  1  0.55800645  0.03646340  0.21690924  1
  O  O29  1  0.84674756  0.43929009  0.25041451  1
  O  O30  1  0.34938286  0.56315730  0.53597304  1
  O  O31  1  0.25631348  0.93654814  0.47433130  1
  O  O32  1  0.09225553  0.83150306  0.02593147  1
  O  O33  1  0.65061714  0.43684270  0.46402696  1
  O  O34  1  0.20469955  0.24084217  0.72201845  1
  O  O35  1  0.94584030  0.84711632  0.72765067  1
  O  O36  1  0.15325244  0.56070991  0.74958549  1
  O  O37  1  0.44199355  0.96353660  0.78309076  1
  O  O38  1  0.31374815  0.63097808  0.22919050  1
  O  O39  1  0.05415970  0.15288368  0.27234933  1
  O  O40  1  0.39254220  0.28688165  0.03212408  1
  O  O41  1  0.68625185  0.36902192  0.77080950  1
  O  O42  1  0.74368652  0.06345186  0.52566870  1
  O  O43  1  0.79530045  0.75915783  0.27798155  1
  O  O44  1  0.90774447  0.16849694  0.97406853  1
  O  O45  1  0.60745780  0.71311835  0.96787592  1
