# generated using pymatgen
data_BaBeSiO4
_symmetry_space_group_name_H-M   'P 1'
_cell_length_a   5.12008946
_cell_length_b   5.19298789
_cell_length_c   5.19298588
_cell_angle_alpha   61.12163874
_cell_angle_beta   60.65268866
_cell_angle_gamma   60.65271269
_symmetry_Int_Tables_number   1
_chemical_formula_structural   BaBeSiO4
_chemical_formula_sum   'Ba1 Be1 Si1 O4'
_cell_volume   99.41018228
_cell_formula_units_Z   1
loop_
 _symmetry_equiv_pos_site_id
 _symmetry_equiv_pos_as_xyz
  1  'x, y, z'
loop_
 _atom_site_type_symbol
 _atom_site_label
 _atom_site_symmetry_multiplicity
 _atom_site_fract_x
 _atom_site_fract_y
 _atom_site_fract_z
 _atom_site_occupancy
  Ba  Ba0  1  0.02670100  0.98654500  0.98654600  1
  Be  Be1  1  0.26396300  0.25201200  0.25201200  1
  Si  Si2  1  0.51505900  0.50077400  0.50077400  1
  O  O3  1  0.44012800  0.37583800  0.87812000  1
  O  O4  1  0.88907000  0.32855500  0.32855500  1
  O  O5  1  0.44012600  0.87812000  0.37583600  1
  O  O6  1  0.28565300  0.42715600  0.42715800  1
