# generated using pymatgen
data_Pr3Si2ClO8
_symmetry_space_group_name_H-M   'P 1'
_cell_length_a   7.82721017
_cell_length_b   7.82721017
_cell_length_c   8.82315984
_cell_angle_alpha   82.42510659
_cell_angle_beta   82.42510659
_cell_angle_gamma   48.75989170
_symmetry_Int_Tables_number   1
_chemical_formula_structural   Pr3Si2ClO8
_chemical_formula_sum   'Pr6 Si4 Cl2 O16'
_cell_volume   402.19113939
_cell_formula_units_Z   2
loop_
 _symmetry_equiv_pos_site_id
 _symmetry_equiv_pos_as_xyz
  1  'x, y, z'
loop_
 _atom_site_type_symbol
 _atom_site_label
 _atom_site_symmetry_multiplicity
 _atom_site_fract_x
 _atom_site_fract_y
 _atom_site_fract_z
 _atom_site_occupancy
  Pr  Pr0  1  0.70869420  0.91977508  0.17147104  1
  Pr  Pr1  1  0.91977508  0.70869420  0.67147104  1
  Pr  Pr2  1  0.57293416  0.42706584  0.75000000  1
  Pr  Pr3  1  0.29130580  0.08022492  0.82852896  1
  Pr  Pr4  1  0.08022492  0.29130580  0.32852896  1
  Pr  Pr5  1  0.42706584  0.57293416  0.25000000  1
  Si  Si6  1  0.39552788  0.28787909  0.52586640  1
  Si  Si7  1  0.60447212  0.71212091  0.47413360  1
  Si  Si8  1  0.71212091  0.60447212  0.97413360  1
  Si  Si9  1  0.28787909  0.39552788  0.02586640  1
  Cl  Cl10  1  0.02497107  0.97502893  0.75000000  1
  Cl  Cl11  1  0.97502893  0.02497107  0.25000000  1
  O  O12  1  0.76712975  0.54178618  0.15350541  1
  O  O13  1  0.23287025  0.45821382  0.84649459  1
  O  O14  1  0.70299095  0.81924998  0.91874790  1
  O  O15  1  0.54763215  0.29698882  0.03312296  1
  O  O16  1  0.18075002  0.29700905  0.58125210  1
  O  O17  1  0.54178618  0.76712975  0.65350541  1
  O  O18  1  0.59203681  0.11800114  0.64550317  1
  O  O19  1  0.29700905  0.18075002  0.08125210  1
  O  O20  1  0.81924998  0.70299095  0.41874790  1
  O  O21  1  0.40796319  0.88199886  0.35449683  1
  O  O22  1  0.45821382  0.23287025  0.34649459  1
  O  O23  1  0.70301118  0.45236785  0.46687704  1
  O  O24  1  0.11800114  0.59203681  0.14550317  1
  O  O25  1  0.88199886  0.40796319  0.85449683  1
  O  O26  1  0.29698882  0.54763215  0.53312296  1
  O  O27  1  0.45236785  0.70301118  0.96687704  1
