# generated using pymatgen
data_KFeO2
_symmetry_space_group_name_H-M   'P 1'
_cell_length_a   5.58438157
_cell_length_b   11.16743487
_cell_length_c   16.08260022
_cell_angle_alpha   90.00000000
_cell_angle_beta   90.00000000
_cell_angle_gamma   90.00000000
_symmetry_Int_Tables_number   1
_chemical_formula_structural   KFeO2
_chemical_formula_sum   'K16 Fe16 O32'
_cell_volume   1002.96269504
_cell_formula_units_Z   16
loop_
 _symmetry_equiv_pos_site_id
 _symmetry_equiv_pos_as_xyz
  1  'x, y, z'
loop_
 _atom_site_type_symbol
 _atom_site_label
 _atom_site_symmetry_multiplicity
 _atom_site_fract_x
 _atom_site_fract_y
 _atom_site_fract_z
 _atom_site_occupancy
  K  K0  1  0.18773058  0.73248531  0.81655693  1
  K  K1  1  0.75545769  0.48327870  0.56253613  1
  K  K2  1  0.81226942  0.23248531  0.68344307  1
  K  K3  1  0.24454231  0.98327870  0.93746387  1
  K  K4  1  0.25545769  0.48327870  0.93746387  1
  K  K5  1  0.31226942  0.26751469  0.31655693  1
  K  K6  1  0.18773058  0.76751469  0.31655693  1
  K  K7  1  0.25545769  0.01672130  0.43746387  1
  K  K8  1  0.31226942  0.23248531  0.81655693  1
  K  K9  1  0.24454231  0.51672130  0.43746387  1
  K  K10  1  0.75545769  0.01672130  0.06253613  1
  K  K11  1  0.68773058  0.76751469  0.18344307  1
  K  K12  1  0.81226942  0.26751469  0.18344307  1
  K  K13  1  0.68773058  0.73248531  0.68344307  1
  K  K14  1  0.74454231  0.51672130  0.06253613  1
  K  K15  1  0.74454231  0.98327870  0.56253613  1
  Fe  Fe16  1  0.24538800  0.99113055  0.68889311  1
  Fe  Fe17  1  0.20567998  0.73507858  0.56446118  1
  Fe  Fe18  1  0.75461200  0.00886945  0.31110689  1
  Fe  Fe19  1  0.79432002  0.26492142  0.43553882  1
  Fe  Fe20  1  0.75461200  0.49113055  0.81110689  1
  Fe  Fe21  1  0.74538800  0.50886945  0.31110689  1
  Fe  Fe22  1  0.74538800  0.99113055  0.81110689  1
  Fe  Fe23  1  0.70567998  0.73507858  0.93553882  1
  Fe  Fe24  1  0.29432002  0.23507858  0.56446118  1
  Fe  Fe25  1  0.24538800  0.50886945  0.18889311  1
  Fe  Fe26  1  0.20567998  0.76492142  0.06446118  1
  Fe  Fe27  1  0.79432002  0.23507858  0.93553882  1
  Fe  Fe28  1  0.70567998  0.76492142  0.43553882  1
  Fe  Fe29  1  0.29432002  0.26492142  0.06446118  1
  Fe  Fe30  1  0.25461200  0.00886945  0.18889311  1
  Fe  Fe31  1  0.25461200  0.49113055  0.68889311  1
  O  O32  1  0.15691675  0.08723202  0.59734373  1
  O  O33  1  0.34308325  0.91276798  0.09734373  1
  O  O34  1  0.06760013  0.02555468  0.78570413  1
  O  O35  1  0.81281891  0.17028782  0.33919385  1
  O  O36  1  0.89819880  0.79750944  0.02106063  1
  O  O37  1  0.68718109  0.67028782  0.33919385  1
  O  O38  1  0.65691675  0.41276798  0.40265627  1
  O  O39  1  0.43239987  0.52555468  0.78570413  1
  O  O40  1  0.60180120  0.29750944  0.02106063  1
  O  O41  1  0.43239987  0.97444532  0.28570413  1
  O  O42  1  0.56760013  0.47444532  0.21429587  1
  O  O43  1  0.93239987  0.52555468  0.71429587  1
  O  O44  1  0.93239987  0.97444532  0.21429587  1
  O  O45  1  0.31281891  0.17028782  0.16080615  1
  O  O46  1  0.81281891  0.32971218  0.83919385  1
  O  O47  1  0.18718109  0.67028782  0.16080615  1
  O  O48  1  0.06760013  0.47444532  0.28570413  1
  O  O49  1  0.10180120  0.29750944  0.47893937  1
  O  O50  1  0.60180120  0.20249056  0.52106063  1
  O  O51  1  0.34308325  0.58723202  0.59734373  1
  O  O52  1  0.65691675  0.08723202  0.90265627  1
  O  O53  1  0.18718109  0.82971218  0.66080615  1
  O  O54  1  0.84308325  0.58723202  0.90265627  1
  O  O55  1  0.89819880  0.70249056  0.52106063  1
  O  O56  1  0.68718109  0.82971218  0.83919385  1
  O  O57  1  0.84308325  0.91276798  0.40265627  1
  O  O58  1  0.56760013  0.02555468  0.71429587  1
  O  O59  1  0.39819880  0.70249056  0.97893937  1
  O  O60  1  0.31281891  0.32971218  0.66080615  1
  O  O61  1  0.39819880  0.79750944  0.47893937  1
  O  O62  1  0.10180120  0.20249056  0.97893937  1
  O  O63  1  0.15691675  0.41276798  0.09734373  1
