# generated using pymatgen
data_LuMn2O5
_symmetry_space_group_name_H-M   'P 1'
_cell_length_a   5.65348838
_cell_length_b   7.09727523
_cell_length_c   8.36412233
_cell_angle_alpha   90.00000000
_cell_angle_beta   90.00000000
_cell_angle_gamma   90.00000000
_symmetry_Int_Tables_number   1
_chemical_formula_structural   LuMn2O5
_chemical_formula_sum   'Lu4 Mn8 O20'
_cell_volume   335.60508090
_cell_formula_units_Z   4
loop_
 _symmetry_equiv_pos_site_id
 _symmetry_equiv_pos_as_xyz
  1  'x, y, z'
loop_
 _atom_site_type_symbol
 _atom_site_label
 _atom_site_symmetry_multiplicity
 _atom_site_fract_x
 _atom_site_fract_y
 _atom_site_fract_z
 _atom_site_occupancy
  Lu  Lu0  1  0.00000000  0.13596669  0.16993204  1
  Lu  Lu1  1  0.00000000  0.86403331  0.83006796  1
  Lu  Lu2  1  0.00000000  0.63596669  0.33006796  1
  Lu  Lu3  1  0.00000000  0.36403331  0.66993204  1
  Mn  Mn4  1  0.25240194  -0.00000000  0.50000000  1
  Mn  Mn5  1  0.74759806  0.50000000  -0.00000000  1
  Mn  Mn6  1  0.74759806  -0.00000000  0.50000000  1
  Mn  Mn7  1  0.25240194  0.50000000  -0.00000000  1
  Mn  Mn8  1  0.50000000  0.41395507  0.34763480  1
  Mn  Mn9  1  0.50000000  0.58604493  0.65236520  1
  Mn  Mn10  1  0.50000000  0.91395507  0.15236520  1
  Mn  Mn11  1  0.50000000  0.08604493  0.84763480  1
  O  O12  1  0.26700777  -0.00000000  -0.00000000  1
  O  O13  1  0.73299223  0.50000000  0.50000000  1
  O  O14  1  0.73299223  -0.00000000  -0.00000000  1
  O  O15  1  0.26700777  0.50000000  0.50000000  1
  O  O16  1  0.00000000  0.16614224  0.44024210  1
  O  O17  1  0.00000000  0.83385776  0.55975790  1
  O  O18  1  0.00000000  0.66614224  0.05975790  1
  O  O19  1  0.00000000  0.33385776  0.94024210  1
  O  O20  1  0.50000000  0.15248195  0.42958372  1
  O  O21  1  0.50000000  0.84751805  0.57041628  1
  O  O22  1  0.50000000  0.65248195  0.07041628  1
  O  O23  1  0.50000000  0.34751805  0.92958372  1
  O  O24  1  0.23918055  0.38903587  0.20641096  1
  O  O25  1  0.23918055  0.61096413  0.79358904  1
  O  O26  1  0.76081945  0.88903587  0.29358904  1
  O  O27  1  0.76081945  0.11096413  0.70641096  1
  O  O28  1  0.76081945  0.61096413  0.79358904  1
  O  O29  1  0.76081945  0.38903587  0.20641096  1
  O  O30  1  0.23918055  0.11096413  0.70641096  1
  O  O31  1  0.23918055  0.88903587  0.29358904  1
