# generated using pymatgen
data_Ho2Te4O11
_symmetry_space_group_name_H-M   'P 1'
_cell_length_a   6.67056748
_cell_length_b   6.67056748
_cell_length_c   16.04909813
_cell_angle_alpha   75.49306696
_cell_angle_beta   75.49306696
_cell_angle_gamma   44.92614099
_symmetry_Int_Tables_number   1
_chemical_formula_structural   Ho2Te4O11
_chemical_formula_sum   'Ho4 Te8 O22'
_cell_volume   485.43273869
_cell_formula_units_Z   2
loop_
 _symmetry_equiv_pos_site_id
 _symmetry_equiv_pos_as_xyz
  1  'x, y, z'
loop_
 _atom_site_type_symbol
 _atom_site_label
 _atom_site_symmetry_multiplicity
 _atom_site_fract_x
 _atom_site_fract_y
 _atom_site_fract_z
 _atom_site_occupancy
  Ho  Ho0  1  0.63053221  0.13174750  0.03651419  1
  Ho  Ho1  1  0.86825250  0.36946779  0.46348581  1
  Ho  Ho2  1  0.36946779  0.86825250  0.96348581  1
  Ho  Ho3  1  0.13174750  0.63053221  0.53651419  1
  Te  Te4  1  0.59076021  0.15451014  0.37387578  1
  Te  Te5  1  0.84548986  0.40923979  0.12612422  1
  Te  Te6  1  0.40923979  0.84548986  0.62612422  1
  Te  Te7  1  0.15451014  0.59076021  0.87387578  1
  Te  Te8  1  0.15846820  0.59698864  0.19882060  1
  Te  Te9  1  0.40301136  0.84153180  0.30117940  1
  Te  Te10  1  0.84153180  0.40301136  0.80117940  1
  Te  Te11  1  0.59698864  0.15846820  0.69882060  1
  O  O12  1  0.68221654  0.81129662  0.37349798  1
  O  O13  1  0.18870338  0.31778346  0.12650202  1
  O  O14  1  0.31778346  0.18870338  0.62650202  1
  O  O15  1  0.81129662  0.68221654  0.87349798  1
  O  O16  1  0.24642752  0.33848455  0.44669362  1
  O  O17  1  0.66151545  0.75357248  0.05330638  1
  O  O18  1  0.75357248  0.66151545  0.55330638  1
  O  O19  1  0.33848455  0.24642752  0.94669362  1
  O  O20  1  0.82125057  0.03799375  0.45560925  1
  O  O21  1  0.96200625  0.17874943  0.04439075  1
  O  O22  1  0.17874943  0.96200625  0.54439075  1
  O  O23  1  0.03799375  0.82125057  0.95560925  1
  O  O24  1  0.44448594  0.60346758  0.40429855  1
  O  O25  1  0.39653242  0.55551406  0.09570145  1
  O  O26  1  0.55551406  0.39653242  0.59570145  1
  O  O27  1  0.60346758  0.44448594  0.90429855  1
  O  O28  1  0.09001657  0.20353708  0.33316179  1
  O  O29  1  0.79646292  0.90998343  0.16683821  1
  O  O30  1  0.90998343  0.79646292  0.66683821  1
  O  O31  1  0.20353708  0.09001657  0.83316179  1
  O  O32  1  0.15176692  0.84823308  0.25000000  1
  O  O33  1  0.84823308  0.15176692  0.75000000  1
