# generated using pymatgen
data_Pr2Ti3(ClO4)2
_symmetry_space_group_name_H-M   'P 1'
_cell_length_a   5.04961298
_cell_length_b   11.67792692
_cell_length_c   14.83773221
_cell_angle_alpha   90.00000000
_cell_angle_beta   90.00000000
_cell_angle_gamma   90.00000000
_symmetry_Int_Tables_number   1
_chemical_formula_structural   Pr2Ti3(ClO4)2
_chemical_formula_sum   'Pr8 Ti12 Cl8 O32'
_cell_volume   874.96639917
_cell_formula_units_Z   4
loop_
 _symmetry_equiv_pos_site_id
 _symmetry_equiv_pos_as_xyz
  1  'x, y, z'
loop_
 _atom_site_type_symbol
 _atom_site_label
 _atom_site_symmetry_multiplicity
 _atom_site_fract_x
 _atom_site_fract_y
 _atom_site_fract_z
 _atom_site_occupancy
  Pr  Pr0  1  0.02210391  0.86254253  0.16146949  1
  Pr  Pr1  1  0.47789609  0.86254253  0.83853051  1
  Pr  Pr2  1  0.52210391  0.13745747  0.16146949  1
  Pr  Pr3  1  0.97789609  0.13745747  0.83853051  1
  Pr  Pr4  1  0.02210391  0.36254253  0.33853051  1
  Pr  Pr5  1  0.47789609  0.36254253  0.66146949  1
  Pr  Pr6  1  0.97789609  0.63745747  0.66146949  1
  Pr  Pr7  1  0.52210391  0.63745747  0.33853051  1
  Ti  Ti8  1  0.75000000  0.09058488  0.50000000  1
  Ti  Ti9  1  0.25000000  0.40941512  0.00000000  1
  Ti  Ti10  1  0.25000000  0.90941512  0.50000000  1
  Ti  Ti11  1  0.62741208  0.42318764  0.16243118  1
  Ti  Ti12  1  0.12741108  0.07681236  0.33756882  1
  Ti  Ti13  1  0.37258792  0.57681236  0.83756882  1
  Ti  Ti14  1  0.87258792  0.42318764  0.83756882  1
  Ti  Ti15  1  0.75000000  0.59058488  0.00000000  1
  Ti  Ti16  1  0.12741108  0.57681236  0.16243118  1
  Ti  Ti17  1  0.62741208  0.92318764  0.33756882  1
  Ti  Ti18  1  0.37258792  0.07681236  0.66243118  1
  Ti  Ti19  1  0.87258792  0.92318764  0.66243118  1
  Cl  Cl20  1  0.48272480  0.60347559  0.57528758  1
  Cl  Cl21  1  0.51727520  0.39652441  0.42471242  1
  Cl  Cl22  1  0.01727520  0.60347559  0.42471242  1
  Cl  Cl23  1  0.51727520  0.89652441  0.07528758  1
  Cl  Cl24  1  0.01727520  0.10347559  0.07528758  1
  Cl  Cl25  1  0.98272480  0.89652441  0.92471242  1
  Cl  Cl26  1  0.48272480  0.10347559  0.92471242  1
  Cl  Cl27  1  0.98272480  0.39652441  0.57528758  1
  O  O28  1  0.43734738  0.54475513  0.07644541  1
  O  O29  1  0.67154526  0.53078519  0.76296899  1
  O  O30  1  0.82845474  0.53078519  0.23703101  1
  O  O31  1  0.74879329  0.29929320  0.22064988  1
  O  O32  1  0.82845474  0.03078519  0.26296899  1
  O  O33  1  0.57429471  0.18103678  0.58117313  1
  O  O34  1  0.25120671  0.70070680  0.77935012  1
  O  O35  1  0.25120671  0.20070680  0.72064988  1
  O  O36  1  0.67154526  0.03078519  0.73703101  1
  O  O37  1  0.32845474  0.96921481  0.26296899  1
  O  O38  1  0.07429571  0.81896322  0.58117313  1
  O  O39  1  0.75120671  0.79929320  0.72064988  1
  O  O40  1  0.93734738  0.95524487  0.42355459  1
  O  O41  1  0.07429571  0.31896322  0.91882687  1
  O  O42  1  0.17154526  0.96921481  0.73703101  1
  O  O43  1  0.06265262  0.54475513  0.92355459  1
  O  O44  1  0.06265262  0.04475513  0.57644541  1
  O  O45  1  0.57429471  0.68103678  0.91882687  1
  O  O46  1  0.24879329  0.70070680  0.22064988  1
  O  O47  1  0.56265262  0.45524487  0.92355459  1
  O  O48  1  0.32845474  0.46921481  0.23703101  1
  O  O49  1  0.42570529  0.81896322  0.41882687  1
  O  O50  1  0.56265262  0.95524487  0.57644541  1
  O  O51  1  0.92570529  0.68103678  0.08117313  1
  O  O52  1  0.17154526  0.46921481  0.76296899  1
  O  O53  1  0.42570529  0.31896322  0.08117313  1
  O  O54  1  0.74879329  0.79929320  0.27935012  1
  O  O55  1  0.43734738  0.04475513  0.42355459  1
  O  O56  1  0.93734738  0.45524487  0.07644541  1
  O  O57  1  0.92570529  0.18103678  0.41882687  1
  O  O58  1  0.75120671  0.29929320  0.77935012  1
  O  O59  1  0.24879329  0.20070680  0.27935012  1
