# generated using pymatgen
data_KNd(WO4)2
_symmetry_space_group_name_H-M   'P 1'
_cell_length_a   7.44020800
_cell_length_b   7.44020800
_cell_length_c   7.51465862
_cell_angle_alpha   66.12152875
_cell_angle_beta   66.12152875
_cell_angle_gamma   93.11897810
_symmetry_Int_Tables_number   1
_chemical_formula_structural   KNd(WO4)2
_chemical_formula_sum   'K2 Nd2 W4 O16'
_cell_volume   335.76217683
_cell_formula_units_Z   2
loop_
 _symmetry_equiv_pos_site_id
 _symmetry_equiv_pos_as_xyz
  1  'x, y, z'
loop_
 _atom_site_type_symbol
 _atom_site_label
 _atom_site_symmetry_multiplicity
 _atom_site_fract_x
 _atom_site_fract_y
 _atom_site_fract_z
 _atom_site_occupancy
  K  K0  1  0.68889152  0.68889152  0.47378747  1
  K  K1  1  0.31110848  0.31110848  0.52621253  1
  Nd  Nd2  1  0.30390905  0.69609095  0.00000000  1
  Nd  Nd3  1  0.69609095  0.30390905  0.00000000  1
  W  W4  1  0.83564886  0.16435114  0.50000000  1
  W  W5  1  0.20168059  0.20168059  0.05556025  1
  W  W6  1  0.79831941  0.79831941  0.94443975  1
  W  W7  1  0.16435114  0.83564886  0.50000000  1
  O  O8  1  0.21852033  0.68981780  0.35482048  1
  O  O9  1  0.42485365  0.42485365  0.89421238  1
  O  O10  1  0.34509574  0.09342989  0.26306009  1
  O  O11  1  0.98432112  0.98432112  0.34211741  1
  O  O12  1  0.31018220  0.78147967  0.64517952  1
  O  O13  1  0.65490426  0.90657011  0.73693991  1
  O  O14  1  0.95802095  0.70292495  0.06623561  1
  O  O15  1  0.01567888  0.01567888  0.65788259  1
  O  O16  1  0.90657011  0.65490426  0.73693991  1
  O  O17  1  0.78147967  0.31018220  0.64517952  1
  O  O18  1  0.09342989  0.34509574  0.26306009  1
  O  O19  1  0.57514635  0.57514635  0.10578762  1
  O  O20  1  0.04197905  0.29707505  0.93376439  1
  O  O21  1  0.70292495  0.95802095  0.06623561  1
  O  O22  1  0.29707505  0.04197905  0.93376439  1
  O  O23  1  0.68981780  0.21852033  0.35482048  1
