# generated using pymatgen
data_Ca(BiO2)2
_symmetry_space_group_name_H-M   'P 1'
_cell_length_a   10.19674131
_cell_length_b   10.19674131
_cell_length_c   12.41466543
_cell_angle_alpha   61.70359441
_cell_angle_beta   61.70359441
_cell_angle_gamma   68.83986534
_symmetry_Int_Tables_number   1
_chemical_formula_structural   Ca(BiO2)2
_chemical_formula_sum   'Ca8 Bi16 O32'
_cell_volume   985.16599250
_cell_formula_units_Z   8
loop_
 _symmetry_equiv_pos_site_id
 _symmetry_equiv_pos_as_xyz
  1  'x, y, z'
loop_
 _atom_site_type_symbol
 _atom_site_label
 _atom_site_symmetry_multiplicity
 _atom_site_fract_x
 _atom_site_fract_y
 _atom_site_fract_z
 _atom_site_occupancy
  Ca  Ca0  1  0.00477694  0.57931286  0.83813258  1
  Ca  Ca1  1  0.05352586  0.85293863  0.91825302  1
  Ca  Ca2  1  0.99522306  0.42068714  0.16186742  1
  Ca  Ca3  1  0.57931286  0.00477694  0.33813258  1
  Ca  Ca4  1  0.14706137  0.94647414  0.58174698  1
  Ca  Ca5  1  0.94647414  0.14706137  0.08174698  1
  Ca  Ca6  1  0.85293863  0.05352586  0.41825302  1
  Ca  Ca7  1  0.42068714  0.99522306  0.66186742  1
  Bi  Bi8  1  0.65126019  0.47246710  0.06344288  1
  Bi  Bi9  1  0.24818675  0.04387136  0.23340450  1
  Bi  Bi10  1  0.75181325  0.95612864  0.76659550  1
  Bi  Bi11  1  0.34531436  0.27595478  0.78139275  1
  Bi  Bi12  1  0.82376208  0.35057745  0.50667780  1
  Bi  Bi13  1  0.17623792  0.64942255  0.49332220  1
  Bi  Bi14  1  0.52753290  0.34873981  0.43655712  1
  Bi  Bi15  1  0.34873981  0.52753290  0.93655712  1
  Bi  Bi16  1  0.47246710  0.65126019  0.56344288  1
  Bi  Bi17  1  0.64942255  0.17623792  0.99332220  1
  Bi  Bi18  1  0.65468564  0.72404522  0.21860725  1
  Bi  Bi19  1  0.04387136  0.24818675  0.73340450  1
  Bi  Bi20  1  0.72404522  0.65468564  0.71860725  1
  Bi  Bi21  1  0.95612864  0.75181325  0.26659550  1
  Bi  Bi22  1  0.35057745  0.82376208  0.00667780  1
  Bi  Bi23  1  0.27595478  0.34531436  0.28139275  1
  O  O24  1  0.58803464  0.95893311  0.16282416  1
  O  O25  1  0.57193919  0.31438439  0.60118770  1
  O  O26  1  0.30471116  0.29625055  0.61956860  1
  O  O27  1  0.95880775  0.83728778  0.78444929  1
  O  O28  1  0.89617664  0.11331236  0.57332672  1
  O  O29  1  0.22181990  0.64514244  0.64345466  1
  O  O30  1  0.10382336  0.88668764  0.42667328  1
  O  O31  1  0.83728778  0.95880775  0.28444929  1
  O  O32  1  0.04119225  0.16271222  0.21555071  1
  O  O33  1  0.64514244  0.22181990  0.14345466  1
  O  O34  1  0.27368290  0.10192115  0.36452647  1
  O  O35  1  0.41196536  0.04106689  0.83717584  1
  O  O36  1  0.10192115  0.27368290  0.86452647  1
  O  O37  1  0.89807885  0.72631710  0.13547353  1
  O  O38  1  0.04106689  0.41196536  0.33717584  1
  O  O39  1  0.41762278  0.87238358  0.54745929  1
  O  O40  1  0.68561561  0.42806081  0.89881230  1
  O  O41  1  0.95893311  0.58803464  0.66282416  1
  O  O42  1  0.72631710  0.89807885  0.63547353  1
  O  O43  1  0.88668764  0.10382336  0.92667328  1
  O  O44  1  0.87238358  0.41762278  0.04745929  1
  O  O45  1  0.42806081  0.68561561  0.39881230  1
  O  O46  1  0.29625055  0.30471116  0.11956860  1
  O  O47  1  0.16271222  0.04119225  0.71555071  1
  O  O48  1  0.12761642  0.58237722  0.95254071  1
  O  O49  1  0.58237722  0.12761642  0.45254071  1
  O  O50  1  0.69528884  0.70374945  0.38043140  1
  O  O51  1  0.70374945  0.69528884  0.88043140  1
  O  O52  1  0.11331236  0.89617664  0.07332672  1
  O  O53  1  0.77818010  0.35485756  0.35654534  1
  O  O54  1  0.35485756  0.77818010  0.85654534  1
  O  O55  1  0.31438439  0.57193919  0.10118770  1
