# generated using pymatgen
data_Hg6BiSb4Br7
_symmetry_space_group_name_H-M   'P 1'
_cell_length_a   13.19633962
_cell_length_b   13.19633962
_cell_length_c   13.19633962
_cell_angle_alpha   90.00000000
_cell_angle_beta   90.00000000
_cell_angle_gamma   90.00000000
_symmetry_Int_Tables_number   1
_chemical_formula_structural   Hg6BiSb4Br7
_chemical_formula_sum   'Hg24 Bi4 Sb16 Br28'
_cell_volume   2298.05517669
_cell_formula_units_Z   4
loop_
 _symmetry_equiv_pos_site_id
 _symmetry_equiv_pos_as_xyz
  1  'x, y, z'
loop_
 _atom_site_type_symbol
 _atom_site_label
 _atom_site_symmetry_multiplicity
 _atom_site_fract_x
 _atom_site_fract_y
 _atom_site_fract_z
 _atom_site_occupancy
  Hg  Hg0  1  0.18476708  0.30194867  0.44816223  1
  Hg  Hg1  1  0.31523292  0.69805133  0.94816223  1
  Hg  Hg2  1  0.19805133  0.55183777  0.68476708  1
  Hg  Hg3  1  0.80194867  0.05183777  0.81523292  1
  Hg  Hg4  1  0.44816223  0.18476708  0.30194867  1
  Hg  Hg5  1  0.55183777  0.81523292  0.69805133  1
  Hg  Hg6  1  0.94816223  0.18476708  0.19805133  1
  Hg  Hg7  1  0.30194867  0.44816223  0.18476708  1
  Hg  Hg8  1  0.81523292  0.69805133  0.55183777  1
  Hg  Hg9  1  0.05183777  0.68476708  0.30194867  1
  Hg  Hg10  1  0.68476708  0.19805133  0.55183777  1
  Hg  Hg11  1  0.94816223  0.31523292  0.69805133  1
  Hg  Hg12  1  0.81523292  0.80194867  0.05183777  1
  Hg  Hg13  1  0.68476708  0.30194867  0.05183777  1
  Hg  Hg14  1  0.80194867  0.44816223  0.31523292  1
  Hg  Hg15  1  0.18476708  0.19805133  0.94816223  1
  Hg  Hg16  1  0.30194867  0.05183777  0.68476708  1
  Hg  Hg17  1  0.69805133  0.55183777  0.81523292  1
  Hg  Hg18  1  0.05183777  0.81523292  0.80194867  1
  Hg  Hg19  1  0.44816223  0.31523292  0.80194867  1
  Hg  Hg20  1  0.55183777  0.68476708  0.19805133  1
  Hg  Hg21  1  0.31523292  0.80194867  0.44816223  1
  Hg  Hg22  1  0.69805133  0.94816223  0.31523292  1
  Hg  Hg23  1  0.19805133  0.94816223  0.18476708  1
  Bi  Bi24  1  0.00000000  0.50000000  0.00000000  1
  Bi  Bi25  1  0.50000000  0.50000000  0.50000000  1
  Bi  Bi26  1  0.00000000  -0.00000000  0.50000000  1
  Bi  Bi27  1  0.50000000  -0.00000000  0.00000000  1
  Sb  Sb28  1  0.26374362  0.23625638  0.76374362  1
  Sb  Sb29  1  0.86156180  0.63843820  0.36156180  1
  Sb  Sb30  1  0.23625638  0.76374362  0.26374362  1
  Sb  Sb31  1  0.73625638  0.73625638  0.73625638  1
  Sb  Sb32  1  0.13843820  0.36156180  0.63843820  1
  Sb  Sb33  1  0.63843820  0.36156180  0.86156180  1
  Sb  Sb34  1  0.36156180  0.86156180  0.63843820  1
  Sb  Sb35  1  0.63843820  0.13843820  0.36156180  1
  Sb  Sb36  1  0.36156180  0.63843820  0.13843820  1
  Sb  Sb37  1  0.73625638  0.76374362  0.23625638  1
  Sb  Sb38  1  0.23625638  0.73625638  0.76374362  1
  Sb  Sb39  1  0.76374362  0.23625638  0.73625638  1
  Sb  Sb40  1  0.86156180  0.86156180  0.86156180  1
  Sb  Sb41  1  0.13843820  0.13843820  0.13843820  1
  Sb  Sb42  1  0.76374362  0.26374362  0.23625638  1
  Sb  Sb43  1  0.26374362  0.26374362  0.26374362  1
  Br  Br44  1  0.70726812  0.45568828  0.55285072  1
  Br  Br45  1  0.45568828  0.55285072  0.70726812  1
  Br  Br46  1  0.54431172  0.05285072  0.79273188  1
  Br  Br47  1  0.44714928  0.20726812  0.04431172  1
  Br  Br48  1  0.54431172  0.44714928  0.29273188  1
  Br  Br49  1  0.00000000  -0.00000000  0.00000000  1
  Br  Br50  1  0.45568828  0.94714928  0.20726812  1
  Br  Br51  1  0.70726812  0.04431172  0.05285072  1
  Br  Br52  1  0.29273188  0.95568828  0.94714928  1
  Br  Br53  1  0.95568828  0.94714928  0.29273188  1
  Br  Br54  1  0.05285072  0.70726812  0.04431172  1
  Br  Br55  1  0.50000000  -0.00000000  0.50000000  1
  Br  Br56  1  0.44714928  0.29273188  0.54431172  1
  Br  Br57  1  0.00000000  0.50000000  0.50000000  1
  Br  Br58  1  0.05285072  0.79273188  0.54431172  1
  Br  Br59  1  0.04431172  0.05285072  0.70726812  1
  Br  Br60  1  0.29273188  0.54431172  0.44714928  1
  Br  Br61  1  0.20726812  0.04431172  0.44714928  1
  Br  Br62  1  0.20726812  0.45568828  0.94714928  1
  Br  Br63  1  0.94714928  0.29273188  0.95568828  1
  Br  Br64  1  0.79273188  0.54431172  0.05285072  1
  Br  Br65  1  0.04431172  0.44714928  0.20726812  1
  Br  Br66  1  0.55285072  0.70726812  0.45568828  1
  Br  Br67  1  0.95568828  0.55285072  0.79273188  1
  Br  Br68  1  0.79273188  0.95568828  0.55285072  1
  Br  Br69  1  0.55285072  0.79273188  0.95568828  1
  Br  Br70  1  0.94714928  0.20726812  0.45568828  1
  Br  Br71  1  0.50000000  0.50000000  0.00000000  1
