# generated using pymatgen
data_K2Ce(NO3)6
_symmetry_space_group_name_H-M   'P 1'
_cell_length_a   6.66757026
_cell_length_b   8.25275108
_cell_length_c   12.43496699
_cell_angle_alpha   91.93756280
_cell_angle_beta   90.00000000
_cell_angle_gamma   90.00000000
_symmetry_Int_Tables_number   1
_chemical_formula_structural   K2Ce(NO3)6
_chemical_formula_sum   'K4 Ce2 N12 O36'
_cell_volume   683.85277136
_cell_formula_units_Z   2
loop_
 _symmetry_equiv_pos_site_id
 _symmetry_equiv_pos_as_xyz
  1  'x, y, z'
loop_
 _atom_site_type_symbol
 _atom_site_label
 _atom_site_symmetry_multiplicity
 _atom_site_fract_x
 _atom_site_fract_y
 _atom_site_fract_z
 _atom_site_occupancy
  K  K0  1  0.78043746  0.95217634  0.34074430  1
  K  K1  1  0.28043746  0.54782366  0.15925570  1
  K  K2  1  0.21956254  0.04782366  0.65925570  1
  K  K3  1  0.71956254  0.45217634  0.84074430  1
  Ce  Ce4  1  0.50000000  0.50000000  0.50000000  1
  Ce  Ce5  1  0.00000000  0.00000000  0.00000000  1
  N  N6  1  0.28622799  0.78034098  0.88722285  1
  N  N7  1  0.76970417  0.53346702  0.31193901  1
  N  N8  1  0.25473979  0.78556398  0.45101525  1
  N  N9  1  0.21377201  0.28034098  0.38722285  1
  N  N10  1  0.26970417  0.96653298  0.18806099  1
  N  N11  1  0.75473979  0.71443602  0.04898475  1
  N  N12  1  0.23029583  0.46653298  0.68806099  1
  N  N13  1  0.74526021  0.21443602  0.54898475  1
  N  N14  1  0.24526021  0.28556398  0.95101525  1
  N  N15  1  0.71377201  0.21965902  0.11277715  1
  N  N16  1  0.78622799  0.71965902  0.61277715  1
  N  N17  1  0.73029583  0.03346702  0.81193901  1
  O  O18  1  0.35998464  0.40021964  0.94435864  1
  O  O19  1  0.71302629  0.92121453  0.87799798  1
  O  O20  1  0.08386574  0.29783008  0.00665601  1
  O  O21  1  0.70203537  0.18793739  0.01191903  1
  O  O22  1  0.85998464  0.09978036  0.55564136  1
  O  O23  1  0.88777887  0.12266692  0.82341283  1
  O  O24  1  0.38777887  0.37733308  0.67658717  1
  O  O25  1  0.60054536  0.31247097  0.16036407  1
  O  O26  1  0.20203537  0.31206261  0.48808097  1
  O  O27  1  0.41613426  0.79783008  0.50665601  1
  O  O28  1  0.64481961  0.64567584  0.66110165  1
  O  O29  1  0.58386574  0.20216992  0.49334399  1
  O  O30  1  0.89428450  0.55854837  0.24227005  1
  O  O31  1  0.10571550  0.44145163  0.75772995  1
  O  O32  1  0.39428450  0.94145163  0.25772995  1
  O  O33  1  0.61222113  0.62266692  0.32341283  1
  O  O34  1  0.64001536  0.59978036  0.05564136  1
  O  O35  1  0.11222113  0.87733308  0.17658717  1
  O  O36  1  0.10054536  0.18752903  0.33963593  1
  O  O37  1  0.89945464  0.81247097  0.66036407  1
  O  O38  1  0.27738669  0.14788011  0.90547323  1
  O  O39  1  0.79796463  0.68793739  0.51191903  1
  O  O40  1  0.21302629  0.57878547  0.62200202  1
  O  O41  1  0.78697371  0.42121453  0.37799798  1
  O  O42  1  0.14481961  0.85432416  0.83889835  1
  O  O43  1  0.39945464  0.68752903  0.83963593  1
  O  O44  1  0.22261331  0.64788011  0.40547323  1
  O  O45  1  0.14001536  0.90021964  0.44435864  1
  O  O46  1  0.91613426  0.70216992  0.99334399  1
  O  O47  1  0.35518039  0.35432416  0.33889835  1
  O  O48  1  0.77738669  0.35211989  0.59452677  1
  O  O49  1  0.28697371  0.07878547  0.12200202  1
  O  O50  1  0.29796463  0.81206261  0.98808097  1
  O  O51  1  0.60571550  0.05854837  0.74227005  1
  O  O52  1  0.85518039  0.14567584  0.16110165  1
  O  O53  1  0.72261331  0.85211989  0.09452677  1
