# generated using pymatgen
data_CdI2
_symmetry_space_group_name_H-M   'P 1'
_cell_length_a   4.28622767
_cell_length_b   4.28622834
_cell_length_c   29.10699078
_cell_angle_alpha   90.00000000
_cell_angle_beta   90.00000000
_cell_angle_gamma   120.00000288
_symmetry_Int_Tables_number   1
_chemical_formula_structural   CdI2
_chemical_formula_sum   'Cd4 I8'
_cell_volume   463.10393041
_cell_formula_units_Z   4
loop_
 _symmetry_equiv_pos_site_id
 _symmetry_equiv_pos_as_xyz
  1  'x, y, z'
loop_
 _atom_site_type_symbol
 _atom_site_label
 _atom_site_symmetry_multiplicity
 _atom_site_fract_x
 _atom_site_fract_y
 _atom_site_fract_z
 _atom_site_occupancy
  Cd  Cd0  1  0.33333300  0.66666700  0.06250000  1
  Cd  Cd1  1  -0.00000000  -0.00000000  0.81244659  1
  Cd  Cd2  1  0.66666700  0.33333300  0.31255341  1
  Cd  Cd3  1  0.33333300  0.66666700  0.56250000  1
  I  I4  1  0.33333300  0.66666700  0.37166941  1
  I  I5  1  0.00000000  0.00000000  0.50359754  1
  I  I6  1  0.33333300  0.66666700  0.75333059  1
  I  I7  1  0.66666700  0.33333300  0.62140246  1
  I  I8  1  0.66666700  0.33333300  0.87163364  1
  I  I9  1  0.00000000  0.00000000  0.00360254  1
  I  I10  1  0.00000000  0.00000000  0.25336636  1
  I  I11  1  0.66666700  0.33333300  0.12139746  1
