# generated using pymatgen
data_Na2MnF5
_symmetry_space_group_name_H-M   'P 1'
_cell_length_a   5.19064127
_cell_length_b   7.66154754
_cell_length_c   10.74436034
_cell_angle_alpha   71.40746608
_cell_angle_beta   90.00046297
_cell_angle_gamma   89.99971504
_symmetry_Int_Tables_number   1
_chemical_formula_structural   Na2MnF5
_chemical_formula_sum   'Na8 Mn4 F20'
_cell_volume   404.98538557
_cell_formula_units_Z   4
loop_
 _symmetry_equiv_pos_site_id
 _symmetry_equiv_pos_as_xyz
  1  'x, y, z'
loop_
 _atom_site_type_symbol
 _atom_site_label
 _atom_site_symmetry_multiplicity
 _atom_site_fract_x
 _atom_site_fract_y
 _atom_site_fract_z
 _atom_site_occupancy
  Na  Na0  1  0.93796727  0.34388261  0.31746036  1
  Na  Na1  1  0.43796174  0.65611118  0.18254236  1
  Na  Na2  1  0.06203794  0.65612239  0.68254148  1
  Na  Na3  1  0.56202255  0.34386222  0.81746854  1
  Na  Na4  1  0.48722799  0.14987204  0.13007575  1
  Na  Na5  1  0.98724081  0.85013961  0.36992401  1
  Na  Na6  1  0.51278482  0.85012926  0.86991556  1
  Na  Na7  1  0.01279542  0.14987684  0.63008540  1
  Mn  Mn8  1  0.50001167  0.50003039  0.49996942  1
  Mn  Mn9  1  0.00000146  0.49999250  0.00001647  1
  Mn  Mn10  1  0.49999188  0.00001727  0.49998931  1
  Mn  Mn11  1  -0.00004032  -0.00004027  0.00002062  1
  F  F12  1  0.75105214  0.49501516  0.62442397  1
  F  F13  1  0.25106680  0.50498796  0.87557253  1
  F  F14  1  0.24893117  0.50500194  0.37554996  1
  F  F15  1  0.74892294  0.49501539  0.12444499  1
  F  F16  1  0.71624049  0.62211199  0.36156373  1
  F  F17  1  0.21621046  0.37790538  0.13841757  1
  F  F18  1  0.28384477  0.37793522  0.63838987  1
  F  F19  1  0.78381859  0.62210287  0.86158401  1
  F  F20  1  0.67187612  0.25095328  0.49626732  1
  F  F21  1  0.17187725  0.74904670  0.00373356  1
  F  F22  1  0.32815035  0.74907007  0.50372823  1
  F  F23  1  0.82814219  0.25093167  0.99627200  1
  F  F24  1  0.84934888  0.04929733  0.83203680  1
  F  F25  1  0.34937089  0.95069328  0.66797064  1
  F  F26  1  0.15062730  0.95068245  0.16799015  1
  F  F27  1  0.65064691  0.04930938  0.33201935  1
  F  F28  1  0.69597163  0.88997933  0.07324809  1
  F  F29  1  0.19603419  0.10999537  0.42675508  1
  F  F30  1  0.30389844  0.10995386  0.92676303  1
  F  F31  1  0.80396330  0.89001432  0.57325879  1
