# generated using pymatgen
data_Al2BiS4
_symmetry_space_group_name_H-M   'P 1'
_cell_length_a   7.60782797
_cell_length_b   7.60782797
_cell_length_c   11.92363013
_cell_angle_alpha   90.00000000
_cell_angle_beta   90.00000000
_cell_angle_gamma   90.00000000
_symmetry_Int_Tables_number   1
_chemical_formula_structural   Al2BiS4
_chemical_formula_sum   'Al8 Bi4 S16'
_cell_volume   690.12834180
_cell_formula_units_Z   4
loop_
 _symmetry_equiv_pos_site_id
 _symmetry_equiv_pos_as_xyz
  1  'x, y, z'
loop_
 _atom_site_type_symbol
 _atom_site_label
 _atom_site_symmetry_multiplicity
 _atom_site_fract_x
 _atom_site_fract_y
 _atom_site_fract_z
 _atom_site_occupancy
  Al  Al0  1  0.00000000  0.50000000  0.75000000  1
  Al  Al1  1  0.00000000  0.50000000  -0.00000000  1
  Al  Al2  1  0.00000000  0.50000000  0.25000000  1
  Al  Al3  1  0.50000000  0.00000000  0.50000000  1
  Al  Al4  1  0.50000000  0.00000000  0.25000000  1
  Al  Al5  1  0.50000000  0.00000000  0.75000000  1
  Al  Al6  1  0.00000000  0.50000000  0.50000000  1
  Al  Al7  1  0.50000000  0.00000000  -0.00000000  1
  Bi  Bi8  1  0.50000000  0.50000000  0.63154567  1
  Bi  Bi9  1  0.00000000  0.00000000  0.86845433  1
  Bi  Bi10  1  0.50000000  0.50000000  0.36845433  1
  Bi  Bi11  1  0.00000000  0.00000000  0.13154567  1
  S  S12  1  0.84376238  0.33980133  0.87515458  1
  S  S13  1  0.65623762  0.83980133  0.37515458  1
  S  S14  1  0.33980133  0.84376238  0.12484542  1
  S  S15  1  0.83980133  0.65623762  0.62484542  1
  S  S16  1  0.34376238  0.16019867  0.37515458  1
  S  S17  1  0.15623762  0.66019867  0.87515458  1
  S  S18  1  0.83980133  0.34376238  0.37515458  1
  S  S19  1  0.66019867  0.15623762  0.12484542  1
  S  S20  1  0.65623762  0.16019867  0.62484542  1
  S  S21  1  0.16019867  0.34376238  0.62484542  1
  S  S22  1  0.66019867  0.84376238  0.87515458  1
  S  S23  1  0.33980133  0.15623762  0.87515458  1
  S  S24  1  0.16019867  0.65623762  0.37515458  1
  S  S25  1  0.15623762  0.33980133  0.12484542  1
  S  S26  1  0.84376238  0.66019867  0.12484542  1
  S  S27  1  0.34376238  0.83980133  0.62484542  1
