# generated using pymatgen
data_La3NbO7
_symmetry_space_group_name_H-M   'P 1'
_cell_length_a   7.69748668
_cell_length_b   7.78183188
_cell_length_c   11.16611521
_cell_angle_alpha   90.00003002
_cell_angle_beta   90.00106506
_cell_angle_gamma   89.99974216
_symmetry_Int_Tables_number   1
_chemical_formula_structural   La3NbO7
_chemical_formula_sum   'La12 Nb4 O28'
_cell_volume   668.85641159
_cell_formula_units_Z   4
loop_
 _symmetry_equiv_pos_site_id
 _symmetry_equiv_pos_as_xyz
  1  'x, y, z'
loop_
 _atom_site_type_symbol
 _atom_site_label
 _atom_site_symmetry_multiplicity
 _atom_site_fract_x
 _atom_site_fract_y
 _atom_site_fract_z
 _atom_site_occupancy
  La  La0  1  0.04696569  0.75106133  0.47650037  1
  La  La1  1  0.27974336  0.49156544  0.75000754  1
  La  La2  1  0.72028374  0.50843842  0.25000054  1
  La  La3  1  0.45304264  0.25103795  0.02350252  1
  La  La4  1  0.77971363  0.00843229  0.25000325  1
  La  La5  1  0.54696371  0.74895380  0.52348649  1
  La  La6  1  0.54695264  0.74893199  0.97650157  1
  La  La7  1  0.04695648  0.75105605  0.02349421  1
  La  La8  1  0.95304034  0.24893639  0.97650189  1
  La  La9  1  0.95302791  0.24894256  0.52349065  1
  La  La10  1  0.45304914  0.25111114  0.47654311  1
  La  La11  1  0.22029266  0.99156323  0.75000185  1
  Nb  Nb12  1  0.74939009  0.99395069  0.75000448  1
  Nb  Nb13  1  0.25061456  0.00604617  0.25001420  1
  Nb  Nb14  1  0.75062933  0.49394986  0.75000868  1
  Nb  Nb15  1  0.24938054  0.50604735  0.24999844  1
  O  O16  1  0.22657243  0.24550101  0.61860050  1
  O  O17  1  0.54980807  0.46627224  0.62846494  1
  O  O18  1  0.58972295  0.04028148  0.61697468  1
  O  O19  1  0.41027328  0.95972616  0.38302438  1
  O  O20  1  0.04981021  0.03372370  0.37152762  1
  O  O21  1  0.91027007  0.54027884  0.88301874  1
  O  O22  1  0.32279911  0.24655809  0.25000216  1
  O  O23  1  0.77342464  0.75449705  0.38139839  1
  O  O24  1  0.95018703  0.96626911  0.62846763  1
  O  O25  1  0.27341894  0.74550233  0.88139439  1
  O  O26  1  0.72657548  0.25449809  0.11859986  1
  O  O27  1  0.22657461  0.24549798  0.88139912  1
  O  O28  1  0.82279639  0.25344240  0.74999599  1
  O  O29  1  0.08972403  0.45972048  0.11697532  1
  O  O30  1  0.72657082  0.25449933  0.38140003  1
  O  O31  1  0.04980901  0.03372645  0.12846610  1
  O  O32  1  0.95018789  0.96626994  0.87152642  1
  O  O33  1  0.67719688  0.75343958  0.74999424  1
  O  O34  1  0.27342857  0.74550175  0.61859626  1
  O  O35  1  0.17719943  0.74655397  0.24999872  1
  O  O36  1  0.45018699  0.53372950  0.37153147  1
  O  O37  1  0.91027090  0.54028138  0.61697428  1
  O  O38  1  0.08972683  0.45971844  0.38302403  1
  O  O39  1  0.58972590  0.04027646  0.88302040  1
  O  O40  1  0.45018637  0.53372422  0.12846983  1
  O  O41  1  0.41027242  0.95971798  0.11697410  1
  O  O42  1  0.54981101  0.46627311  0.87152481  1
  O  O43  1  0.77342127  0.75449724  0.11859579  1
