# generated using pymatgen
data_Na5HfAs3
_symmetry_space_group_name_H-M   'P 1'
_cell_length_a   7.50226032
_cell_length_b   8.39969176
_cell_length_c   16.07074462
_cell_angle_alpha   59.11443679
_cell_angle_beta   90.00000000
_cell_angle_gamma   90.00000000
_symmetry_Int_Tables_number   1
_chemical_formula_structural   Na5HfAs3
_chemical_formula_sum   'Na20 Hf4 As12'
_cell_volume   869.11469236
_cell_formula_units_Z   4
loop_
 _symmetry_equiv_pos_site_id
 _symmetry_equiv_pos_as_xyz
  1  'x, y, z'
loop_
 _atom_site_type_symbol
 _atom_site_label
 _atom_site_symmetry_multiplicity
 _atom_site_fract_x
 _atom_site_fract_y
 _atom_site_fract_z
 _atom_site_occupancy
  Na  Na0  1  0.49340762  0.91681478  0.26250346  1
  Na  Na1  1  0.99340762  0.08318522  0.23749654  1
  Na  Na2  1  0.50659238  0.08318522  0.73749654  1
  Na  Na3  1  0.00659238  0.91681478  0.76250346  1
  Na  Na4  1  0.01196843  0.25990771  0.40588737  1
  Na  Na5  1  0.51196843  0.74009229  0.09411263  1
  Na  Na6  1  0.98803157  0.74009229  0.59411263  1
  Na  Na7  1  0.48803157  0.25990771  0.90588737  1
  Na  Na8  1  0.47257553  0.59719395  0.58403569  1
  Na  Na9  1  0.97257553  0.40280605  0.91596431  1
  Na  Na10  1  0.52742447  0.40280605  0.41596431  1
  Na  Na11  1  0.02742447  0.59719395  0.08403569  1
  Na  Na12  1  0.84673504  0.67980726  0.24266832  1
  Na  Na13  1  0.34673504  0.32019274  0.25733168  1
  Na  Na14  1  0.15326496  0.32019274  0.75733168  1
  Na  Na15  1  0.65326496  0.67980726  0.74266832  1
  Na  Na16  1  0.66156197  0.00147874  0.41948844  1
  Na  Na17  1  0.16156197  0.99852126  0.08051156  1
  Na  Na18  1  0.33843803  0.99852126  0.58051156  1
  Na  Na19  1  0.83843803  0.00147874  0.91948844  1
  Hf  Hf20  1  0.14166442  0.66176353  0.41352346  1
  Hf  Hf21  1  0.64166442  0.33823647  0.08647654  1
  Hf  Hf22  1  0.85833558  0.33823647  0.58647654  1
  Hf  Hf23  1  0.35833558  0.66176353  0.91352346  1
  As  As24  1  0.79235896  0.65682214  0.43037959  1
  As  As25  1  0.29235896  0.34317786  0.06962041  1
  As  As26  1  0.20764104  0.34317786  0.56962041  1
  As  As27  1  0.70764104  0.65682214  0.93037959  1
  As  As28  1  0.25794081  0.94494935  0.41705015  1
  As  As29  1  0.75794081  0.05505065  0.08294985  1
  As  As30  1  0.74205919  0.05505065  0.58294985  1
  As  As31  1  0.24205919  0.94494935  0.91705015  1
  As  As32  1  0.23724012  0.64811217  0.26434700  1
  As  As33  1  0.73724012  0.35188783  0.23565300  1
  As  As34  1  0.76275988  0.35188783  0.73565300  1
  As  As35  1  0.26275988  0.64811217  0.76434700  1
