# generated using pymatgen
data_CaSiN2
_symmetry_space_group_name_H-M   'P 1'
_cell_length_a   5.12572645
_cell_length_b   10.20527365
_cell_length_c   14.81879670
_cell_angle_alpha   90.00000000
_cell_angle_beta   90.00000000
_cell_angle_gamma   90.00000000
_symmetry_Int_Tables_number   1
_chemical_formula_structural   CaSiN2
_chemical_formula_sum   'Ca16 Si16 N32'
_cell_volume   775.16297282
_cell_formula_units_Z   16
loop_
 _symmetry_equiv_pos_site_id
 _symmetry_equiv_pos_as_xyz
  1  'x, y, z'
loop_
 _atom_site_type_symbol
 _atom_site_label
 _atom_site_symmetry_multiplicity
 _atom_site_fract_x
 _atom_site_fract_y
 _atom_site_fract_z
 _atom_site_occupancy
  Ca  Ca0  1  0.65259141  0.77417956  0.31237198  1
  Ca  Ca1  1  0.74095227  0.00910950  0.43483495  1
  Ca  Ca2  1  0.24095227  0.49089050  0.56516505  1
  Ca  Ca3  1  0.84740859  0.22582044  0.81237198  1
  Ca  Ca4  1  0.34740859  0.22582044  0.68762802  1
  Ca  Ca5  1  0.25904773  0.50910950  0.06516505  1
  Ca  Ca6  1  0.25904773  0.99089050  0.56516505  1
  Ca  Ca7  1  0.34740859  0.27417956  0.18762802  1
  Ca  Ca8  1  0.15259141  0.72582044  0.68762802  1
  Ca  Ca9  1  0.15259141  0.77417956  0.18762802  1
  Ca  Ca10  1  0.74095227  0.49089050  0.93483495  1
  Ca  Ca11  1  0.65259141  0.72582044  0.81237198  1
  Ca  Ca12  1  0.24095227  0.00910950  0.06516505  1
  Ca  Ca13  1  0.75904773  0.50910950  0.43483495  1
  Ca  Ca14  1  0.75904773  0.99089050  0.93483495  1
  Ca  Ca15  1  0.84740859  0.27417956  0.31237198  1
  Si  Si16  1  0.27317392  0.98358114  0.81200209  1
  Si  Si17  1  0.68347106  0.73007027  0.56266942  1
  Si  Si18  1  0.68347106  0.76992973  0.06266942  1
  Si  Si19  1  0.18347106  0.76992973  0.43733058  1
  Si  Si20  1  0.81652894  0.26992973  0.06266942  1
  Si  Si21  1  0.31652894  0.26992973  0.43733058  1
  Si  Si22  1  0.81652894  0.23007027  0.56266942  1
  Si  Si23  1  0.72682608  0.01641886  0.18799791  1
  Si  Si24  1  0.18347106  0.73007027  0.93733058  1
  Si  Si25  1  0.22682608  0.48358114  0.81200209  1
  Si  Si26  1  0.72682608  0.48358114  0.68799791  1
  Si  Si27  1  0.31652894  0.23007027  0.93733058  1
  Si  Si28  1  0.22682608  0.01641886  0.31200209  1
  Si  Si29  1  0.27317392  0.51641886  0.31200209  1
  Si  Si30  1  0.77317392  0.98358114  0.68799791  1
  Si  Si31  1  0.77317392  0.51641886  0.18799791  1
  N  N32  1  0.30276223  0.92676911  0.40894451  1
  N  N33  1  0.59484698  0.02269472  0.78410713  1
  N  N34  1  0.35142306  0.77604089  0.03538532  1
  N  N35  1  0.77644083  0.17978727  0.16153294  1
  N  N36  1  0.90515302  0.52269472  0.78410713  1
  N  N37  1  0.72355917  0.67978727  0.16153294  1
  N  N38  1  0.22355917  0.82021273  0.83846706  1
  N  N39  1  0.40515302  0.97730528  0.21589287  1
  N  N40  1  0.59484698  0.47730528  0.28410713  1
  N  N41  1  0.14857694  0.22395911  0.53538532  1
  N  N42  1  0.19723777  0.42676911  0.40894451  1
  N  N43  1  0.09484698  0.47730528  0.21589287  1
  N  N44  1  0.27644083  0.32021273  0.83846706  1
  N  N45  1  0.80276223  0.92676911  0.09105549  1
  N  N46  1  0.14857694  0.27604089  0.03538532  1
  N  N47  1  0.85142306  0.72395911  0.96461468  1
  N  N48  1  0.64857694  0.22395911  0.96461468  1
  N  N49  1  0.69723777  0.42676911  0.09105549  1
  N  N50  1  0.09484698  0.02269472  0.71589287  1
  N  N51  1  0.19723777  0.07323089  0.90894451  1
  N  N52  1  0.22355917  0.67978727  0.33846706  1
  N  N53  1  0.35142306  0.72395911  0.53538532  1
  N  N54  1  0.40515302  0.52269472  0.71589287  1
  N  N55  1  0.64857694  0.27604089  0.46461468  1
  N  N56  1  0.27644083  0.17978727  0.33846706  1
  N  N57  1  0.72355917  0.82021273  0.66153294  1
  N  N58  1  0.90515302  0.97730528  0.28410713  1
  N  N59  1  0.80276223  0.57323089  0.59105549  1
  N  N60  1  0.85142306  0.77604089  0.46461468  1
  N  N61  1  0.77644083  0.32021273  0.66153294  1
  N  N62  1  0.30276223  0.57323089  0.90894451  1
  N  N63  1  0.69723777  0.07323089  0.59105549  1
