# generated using pymatgen
data_CsSb2F7
_symmetry_space_group_name_H-M   'P 1'
_cell_length_a   5.45384388
_cell_length_b   6.78138870
_cell_length_c   10.22925876
_cell_angle_alpha   109.35803103
_cell_angle_beta   90.29702864
_cell_angle_gamma   89.99998560
_symmetry_Int_Tables_number   1
_chemical_formula_structural   CsSb2F7
_chemical_formula_sum   'Cs2 Sb4 F14'
_cell_volume   356.93165811
_cell_formula_units_Z   2
loop_
 _symmetry_equiv_pos_site_id
 _symmetry_equiv_pos_as_xyz
  1  'x, y, z'
loop_
 _atom_site_type_symbol
 _atom_site_label
 _atom_site_symmetry_multiplicity
 _atom_site_fract_x
 _atom_site_fract_y
 _atom_site_fract_z
 _atom_site_occupancy
  Cs  Cs0  1  0.50000000  -0.00000000  0.50000000  1
  Cs  Cs1  1  -0.00000000  0.50000000  0.50000000  1
  Sb  Sb2  1  0.96902312  0.15215060  0.83833506  1
  Sb  Sb3  1  0.46902312  0.68618546  0.83833506  1
  Sb  Sb4  1  0.53097688  0.31381454  0.16166494  1
  Sb  Sb5  1  0.03097688  0.84784940  0.16166494  1
  F  F6  1  0.83889325  0.46340083  0.15913017  1
  F  F7  1  0.70362050  0.15088228  0.26207056  1
  F  F8  1  0.49765609  0.51045116  0.35489752  1
  F  F9  1  0.33889325  0.69572835  0.15913017  1
  F  F10  1  0.99765609  0.84444735  0.35489752  1
  F  F11  1  0.29637950  0.84911772  0.73792944  1
  F  F12  1  0.16110675  0.53659917  0.84086983  1
  F  F13  1  0.50234391  0.48954884  0.64510248  1
  F  F14  1  0.75000000  0.07788184  0.00000000  1
  F  F15  1  0.25000000  0.92211816  -0.00000000  1
  F  F16  1  0.00234391  0.15555265  0.64510248  1
  F  F17  1  0.20362050  0.11118728  0.26207056  1
  F  F18  1  0.79637950  0.88881272  0.73792944  1
  F  F19  1  0.66110675  0.30427165  0.84086983  1
