# generated using pymatgen
data_Na3AlS3
_symmetry_space_group_name_H-M   'P 1'
_cell_length_a   12.01985618
_cell_length_b   7.59937586
_cell_length_c   13.59936552
_cell_angle_alpha   81.07140052
_cell_angle_beta   90.00000000
_cell_angle_gamma   90.00000000
_symmetry_Int_Tables_number   1
_chemical_formula_structural   Na3AlS3
_chemical_formula_sum   'Na24 Al8 S24'
_cell_volume   1227.15986579
_cell_formula_units_Z   8
loop_
 _symmetry_equiv_pos_site_id
 _symmetry_equiv_pos_as_xyz
  1  'x, y, z'
loop_
 _atom_site_type_symbol
 _atom_site_label
 _atom_site_symmetry_multiplicity
 _atom_site_fract_x
 _atom_site_fract_y
 _atom_site_fract_z
 _atom_site_occupancy
  Na  Na0  1  0.98294164  0.08191137  0.80593330  1
  Na  Na1  1  0.75223109  0.99483072  0.01374276  1
  Na  Na2  1  0.80712544  0.53406490  0.75979288  1
  Na  Na3  1  0.73731753  0.91914970  0.52584365  1
  Na  Na4  1  0.91317644  0.11111801  0.36474221  1
  Na  Na5  1  0.23731753  0.58085030  0.47415635  1
  Na  Na6  1  0.82660849  0.50347358  0.24358889  1
  Na  Na7  1  0.26268247  0.08085030  0.47415635  1
  Na  Na8  1  0.74776891  0.49483072  0.01374276  1
  Na  Na9  1  0.41317644  0.38888199  0.63525779  1
  Na  Na10  1  0.25223109  0.50516928  0.98625724  1
  Na  Na11  1  0.24776891  0.00516928  0.98625724  1
  Na  Na12  1  0.76268247  0.41914970  0.52584365  1
  Na  Na13  1  0.19287456  0.46593510  0.24020712  1
  Na  Na14  1  0.01705836  0.91808863  0.19406670  1
  Na  Na15  1  0.58682356  0.61111801  0.36474221  1
  Na  Na16  1  0.32660849  0.99652642  0.75641111  1
  Na  Na17  1  0.08682356  0.88888199  0.63525779  1
  Na  Na18  1  0.30712544  0.96593510  0.24020712  1
  Na  Na19  1  0.17339151  0.49652642  0.75641111  1
  Na  Na20  1  0.48294164  0.41808863  0.19406670  1
  Na  Na21  1  0.69287456  0.03406490  0.75979288  1
  Na  Na22  1  0.51705836  0.58191137  0.80593330  1
  Na  Na23  1  0.67339151  0.00347358  0.24358889  1
  Al  Al24  1  0.00670486  0.32588013  0.07337287  1
  Al  Al25  1  0.02146101  0.31994126  0.56571019  1
  Al  Al26  1  0.52146101  0.18005874  0.43428981  1
  Al  Al27  1  0.47853899  0.81994126  0.56571019  1
  Al  Al28  1  0.50670486  0.17411987  0.92662713  1
  Al  Al29  1  0.49329514  0.82588013  0.07337287  1
  Al  Al30  1  0.97853899  0.68005874  0.43428981  1
  Al  Al31  1  0.99329514  0.67411987  0.92662713  1
  S  S32  1  0.35878119  0.31006401  0.85362816  1
  S  S33  1  0.16731894  0.20231974  0.12336188  1
  S  S34  1  0.38991049  0.37958595  0.38730556  1
  S  S35  1  0.14121881  0.81006401  0.85362816  1
  S  S36  1  0.00288708  0.61901727  0.09737447  1
  S  S37  1  0.64121881  0.68993599  0.14637184  1
  S  S38  1  0.81513265  0.76213753  0.37022972  1
  S  S39  1  0.11008951  0.87958595  0.38730556  1
  S  S40  1  0.31513265  0.73786247  0.62977028  1
  S  S41  1  0.50288708  0.88098273  0.90262553  1
  S  S42  1  0.66731894  0.29768026  0.87663812  1
  S  S43  1  0.85878119  0.18993599  0.14637184  1
  S  S44  1  0.18486735  0.23786247  0.62977028  1
  S  S45  1  0.03265437  0.40951528  0.39596793  1
  S  S46  1  0.61008951  0.62041405  0.61269444  1
  S  S47  1  0.49711292  0.11901727  0.09737447  1
  S  S48  1  0.68486735  0.26213753  0.37022972  1
  S  S49  1  0.88991049  0.12041405  0.61269444  1
  S  S50  1  0.96734563  0.59048472  0.60403207  1
  S  S51  1  0.99711292  0.38098273  0.90262553  1
  S  S52  1  0.83268106  0.79768026  0.87663812  1
  S  S53  1  0.53265437  0.09048472  0.60403207  1
  S  S54  1  0.33268106  0.70231974  0.12336188  1
  S  S55  1  0.46734563  0.90951528  0.39596793  1
