# generated using pymatgen
data_BaPt2S3
_symmetry_space_group_name_H-M   'P 1'
_cell_length_a   11.14566158
_cell_length_b   11.14566158
_cell_length_c   13.25091140
_cell_angle_alpha   90.00000000
_cell_angle_beta   90.00000000
_cell_angle_gamma   90.00000000
_symmetry_Int_Tables_number   1
_chemical_formula_structural   BaPt2S3
_chemical_formula_sum   'Ba12 Pt24 S36'
_cell_volume   1646.10469911
_cell_formula_units_Z   12
loop_
 _symmetry_equiv_pos_site_id
 _symmetry_equiv_pos_as_xyz
  1  'x, y, z'
loop_
 _atom_site_type_symbol
 _atom_site_label
 _atom_site_symmetry_multiplicity
 _atom_site_fract_x
 _atom_site_fract_y
 _atom_site_fract_z
 _atom_site_occupancy
  Ba  Ba0  1  0.89837842  0.67777398  0.25074970  1
  Ba  Ba1  1  0.82222602  0.39837842  0.50074970  1
  Ba  Ba2  1  0.67777398  0.89837842  0.74925030  1
  Ba  Ba3  1  0.60162158  0.17777398  0.99925030  1
  Ba  Ba4  1  0.17777398  0.60162158  0.00074970  1
  Ba  Ba5  1  0.10162158  0.32222602  0.75074970  1
  Ba  Ba6  1  0.39444303  0.39444303  0.50000000  1
  Ba  Ba7  1  0.32222602  0.10162158  0.24925030  1
  Ba  Ba8  1  0.39837842  0.82222602  0.49925030  1
  Ba  Ba9  1  0.10555697  0.89444303  0.75000000  1
  Ba  Ba10  1  0.89444303  0.10555697  0.25000000  1
  Ba  Ba11  1  0.60555697  0.60555697  -0.00000000  1
  Pt  Pt12  1  0.63436523  0.03958761  0.36716214  1
  Pt  Pt13  1  0.35777326  0.26940534  0.86811438  1
  Pt  Pt14  1  0.11105406  0.11105406  -0.00000000  1
  Pt  Pt15  1  0.03958761  0.63436523  0.63283786  1
  Pt  Pt16  1  0.38645989  0.61354011  0.75000000  1
  Pt  Pt17  1  0.88894594  0.88894594  0.50000000  1
  Pt  Pt18  1  0.76940534  0.14222674  0.61811438  1
  Pt  Pt19  1  0.13436523  0.46041239  0.38283786  1
  Pt  Pt20  1  0.88645989  0.88645989  -0.00000000  1
  Pt  Pt21  1  0.73059466  0.64222674  0.63188562  1
  Pt  Pt22  1  0.85777326  0.23059466  0.88188562  1
  Pt  Pt23  1  0.23059466  0.85777326  0.11811438  1
  Pt  Pt24  1  0.61105406  0.38894594  0.75000000  1
  Pt  Pt25  1  0.46041239  0.13436523  0.61716214  1
  Pt  Pt26  1  0.53958761  0.86563477  0.11716214  1
  Pt  Pt27  1  0.11354011  0.11354011  0.50000000  1
  Pt  Pt28  1  0.14222674  0.76940534  0.38188562  1
  Pt  Pt29  1  0.64222674  0.73059466  0.36811438  1
  Pt  Pt30  1  0.86563477  0.53958761  0.88283786  1
  Pt  Pt31  1  0.38894594  0.61105406  0.25000000  1
  Pt  Pt32  1  0.96041239  0.36563477  0.13283786  1
  Pt  Pt33  1  0.61354011  0.38645989  0.25000000  1
  Pt  Pt34  1  0.36563477  0.96041239  0.86716214  1
  Pt  Pt35  1  0.26940534  0.35777326  0.13188562  1
  S  S36  1  0.11416685  0.32235925  0.25137177  1
  S  S37  1  0.17764075  0.61416685  0.50137177  1
  S  S38  1  0.59842363  0.59842363  0.50000000  1
  S  S39  1  0.31974471  0.11233739  0.98081149  1
  S  S40  1  0.59793495  0.59450955  0.23931329  1
  S  S41  1  0.68025529  0.88766261  0.48081149  1
  S  S42  1  0.09842363  0.90157637  0.25000000  1
  S  S43  1  0.09450955  0.90206505  0.98931329  1
  S  S44  1  0.32424605  0.10503391  0.48273590  1
  S  S45  1  0.82235925  0.38583315  0.00137177  1
  S  S46  1  0.09793495  0.90549045  0.51068671  1
  S  S47  1  0.17575395  0.60503391  0.76726410  1
  S  S48  1  0.39496609  0.82424605  0.73273590  1
  S  S49  1  0.90206505  0.09450955  0.01068671  1
  S  S50  1  0.82424605  0.39496609  0.26726410  1
  S  S51  1  0.32235925  0.11416685  0.74862823  1
  S  S52  1  0.89496609  0.67575395  0.01726410  1
  S  S53  1  0.11233739  0.31974471  0.01918851  1
  S  S54  1  0.61233739  0.18025529  0.73081149  1
  S  S55  1  0.61416685  0.17764075  0.49862823  1
  S  S56  1  0.40157637  0.40157637  -0.00000000  1
  S  S57  1  0.67575395  0.89496609  0.98273590  1
  S  S58  1  0.90549045  0.09793495  0.48931329  1
  S  S59  1  0.40206505  0.40549045  0.73931329  1
  S  S60  1  0.18025529  0.61233739  0.26918851  1
  S  S61  1  0.60503391  0.17575395  0.23273590  1
  S  S62  1  0.81974471  0.38766261  0.76918851  1
  S  S63  1  0.90157637  0.09842363  0.75000000  1
  S  S64  1  0.88583315  0.67764075  0.75137177  1
  S  S65  1  0.38766261  0.81974471  0.23081149  1
  S  S66  1  0.88766261  0.68025529  0.51918851  1
  S  S67  1  0.59450955  0.59793495  0.76068671  1
  S  S68  1  0.67764075  0.88583315  0.24862823  1
  S  S69  1  0.10503391  0.32424605  0.51726410  1
  S  S70  1  0.38583315  0.82235925  0.99862823  1
  S  S71  1  0.40549045  0.40206505  0.26068671  1
