# generated using pymatgen
data_NaLa(GaSe2)4
_symmetry_space_group_name_H-M   'P 1'
_cell_length_a   15.10789304
_cell_length_b   12.46803561
_cell_length_c   12.42159636
_cell_angle_alpha   74.74487718
_cell_angle_beta   52.76752375
_cell_angle_gamma   52.48759908
_symmetry_Int_Tables_number   1
_chemical_formula_structural   NaLa(GaSe2)4
_chemical_formula_sum   'Na4 La4 Ga16 Se32'
_cell_volume   1457.01762160
_cell_formula_units_Z   4
loop_
 _symmetry_equiv_pos_site_id
 _symmetry_equiv_pos_as_xyz
  1  'x, y, z'
loop_
 _atom_site_type_symbol
 _atom_site_label
 _atom_site_symmetry_multiplicity
 _atom_site_fract_x
 _atom_site_fract_y
 _atom_site_fract_z
 _atom_site_occupancy
  Na  Na0  1  0.49692418  0.49692418  0.00307582  1
  Na  Na1  1  0.75307582  0.75307582  0.24692418  1
  Na  Na2  1  0.00307582  0.00307582  0.49692418  1
  Na  Na3  1  0.24692418  0.24692418  0.75307582  1
  La  La4  1  0.75000000  0.75000000  0.75000000  1
  La  La5  1  0.50000000  0.50000000  0.50000000  1
  La  La6  1  0.25000000  0.25000000  0.25000000  1
  La  La7  1  0.00000000  0.00000000  0.00000000  1
  Ga  Ga8  1  0.76137677  0.49275519  0.50896033  1
  Ga  Ga9  1  0.49275519  0.76137677  0.23690771  1
  Ga  Ga10  1  0.98564091  0.26351428  0.15395388  1
  Ga  Ga11  1  0.50896033  0.23690771  0.76137677  1
  Ga  Ga12  1  0.26435909  0.98648572  0.09604612  1
  Ga  Ga13  1  0.23690771  0.50896033  0.49275519  1
  Ga  Ga14  1  0.65311007  0.09604612  0.98648572  1
  Ga  Ga15  1  0.59688993  0.15395388  0.26351428  1
  Ga  Ga16  1  0.15395388  0.59688993  0.98564091  1
  Ga  Ga17  1  0.48862323  0.75724481  0.74103967  1
  Ga  Ga18  1  0.09604612  0.65311007  0.26435909  1
  Ga  Ga19  1  0.01309229  0.74103967  0.75724481  1
  Ga  Ga20  1  0.26351428  0.98564091  0.59688993  1
  Ga  Ga21  1  0.74103967  0.01309229  0.48862323  1
  Ga  Ga22  1  0.75724481  0.48862323  0.01309229  1
  Ga  Ga23  1  0.98648572  0.26435909  0.65311007  1
  Se  Se24  1  0.77870135  0.47441812  0.30565831  1
  Se  Se25  1  0.53650011  0.54256936  0.21627402  1
  Se  Se26  1  0.04233646  0.53595571  0.21056982  1
  Se  Se27  1  0.54256936  0.53650011  0.70465651  1
  Se  Se28  1  0.71404429  0.20766354  0.03886299  1
  Se  Se29  1  0.96990964  0.28342962  0.46514703  1
  Se  Se30  1  0.44122122  0.30565831  0.47441812  1
  Se  Se31  1  0.20766354  0.71404429  0.03943018  1
  Se  Se32  1  0.28342962  0.96990964  0.28151371  1
  Se  Se33  1  0.54534349  0.03372598  0.70743064  1
  Se  Se34  1  0.70743064  0.71349989  0.54534349  1
  Se  Se35  1  0.77558188  0.47129865  0.80877878  1
  Se  Se36  1  0.78485297  0.96848629  0.28009036  1
  Se  Se37  1  0.46514703  0.28151371  0.96990964  1
  Se  Se38  1  0.21113701  0.21056982  0.53595571  1
  Se  Se39  1  0.70465651  0.21627402  0.54256936  1
  Se  Se40  1  0.80877878  0.94434169  0.77558188  1
  Se  Se41  1  0.96657038  0.28009036  0.96848629  1
  Se  Se42  1  0.47129865  0.77558188  0.94434169  1
  Se  Se43  1  0.47441812  0.77870135  0.44122122  1
  Se  Se44  1  0.21627402  0.70465651  0.53650011  1
  Se  Se45  1  0.71349989  0.70743064  0.03372598  1
  Se  Se46  1  0.30565831  0.44122122  0.77870135  1
  Se  Se47  1  0.96848629  0.78485297  0.96657038  1
  Se  Se48  1  0.28009036  0.96657038  0.78485297  1
  Se  Se49  1  0.03886299  0.03943018  0.71404429  1
  Se  Se50  1  0.03372598  0.54534349  0.71349989  1
  Se  Se51  1  0.21056982  0.21113701  0.04233646  1
  Se  Se52  1  0.94434169  0.80877878  0.47129865  1
  Se  Se53  1  0.53595571  0.04233646  0.21113701  1
  Se  Se54  1  0.28151371  0.46514703  0.28342962  1
  Se  Se55  1  0.03943018  0.03886299  0.20766354  1
