# generated using pymatgen
data_KVF4
_symmetry_space_group_name_H-M   'P 1'
_cell_length_a   7.58725362
_cell_length_b   7.71490846
_cell_length_c   12.18903139
_cell_angle_alpha   90.00000000
_cell_angle_beta   90.00000000
_cell_angle_gamma   90.00000000
_symmetry_Int_Tables_number   1
_chemical_formula_structural   KVF4
_chemical_formula_sum   'K8 V8 F32'
_cell_volume   713.48455190
_cell_formula_units_Z   8
loop_
 _symmetry_equiv_pos_site_id
 _symmetry_equiv_pos_as_xyz
  1  'x, y, z'
loop_
 _atom_site_type_symbol
 _atom_site_label
 _atom_site_symmetry_multiplicity
 _atom_site_fract_x
 _atom_site_fract_y
 _atom_site_fract_z
 _atom_site_occupancy
  K  K0  1  0.25000000  0.62413176  0.51174571  1
  K  K1  1  0.75000000  0.37586824  0.48825429  1
  K  K2  1  0.75000000  0.12413176  0.98825429  1
  K  K3  1  0.25000000  0.87586824  0.01174571  1
  K  K4  1  0.25000000  0.12487071  0.52704084  1
  K  K5  1  0.75000000  0.87512929  0.47295916  1
  K  K6  1  0.75000000  0.62487071  0.97295916  1
  K  K7  1  0.25000000  0.37512929  0.02704084  1
  V  V8  1  0.50070365  0.62526317  0.24804345  1
  V  V9  1  0.00070365  0.37473683  0.75195655  1
  V  V10  1  0.49929635  0.12526317  0.25195655  1
  V  V11  1  0.99929635  0.87473683  0.74804345  1
  V  V12  1  0.49929635  0.37473683  0.75195655  1
  V  V13  1  0.99929635  0.62526317  0.24804345  1
  V  V14  1  0.50070365  0.87473683  0.74804345  1
  V  V15  1  0.00070365  0.12526317  0.25195655  1
  F  F16  1  0.44481473  0.37524088  0.24859564  1
  F  F17  1  0.94481473  0.62475912  0.75140436  1
  F  F18  1  0.55518527  0.87524088  0.25140436  1
  F  F19  1  0.05518527  0.12475912  0.74859564  1
  F  F20  1  0.55518527  0.62475912  0.75140436  1
  F  F21  1  0.05518527  0.37524088  0.24859564  1
  F  F22  1  0.44481473  0.12475912  0.74859564  1
  F  F23  1  0.94481473  0.87524088  0.25140436  1
  F  F24  1  0.25000000  0.42602189  0.78764549  1
  F  F25  1  0.75000000  0.57397811  0.21235451  1
  F  F26  1  0.75000000  0.92602189  0.71235451  1
  F  F27  1  0.25000000  0.07397811  0.28764549  1
  F  F28  1  0.75000000  0.32378509  0.71786888  1
  F  F29  1  0.25000000  0.67621491  0.28213112  1
  F  F30  1  0.25000000  0.82378509  0.78213112  1
  F  F31  1  0.75000000  0.17621491  0.21786888  1
  F  F32  1  0.04918308  0.11521198  0.09993148  1
  F  F33  1  0.54918308  0.88478802  0.90006852  1
  F  F34  1  0.95081692  0.61521198  0.40006852  1
  F  F35  1  0.45081692  0.38478802  0.59993148  1
  F  F36  1  0.95081692  0.88478802  0.90006852  1
  F  F37  1  0.45081692  0.11521198  0.09993148  1
  F  F38  1  0.04918308  0.38478802  0.59993148  1
  F  F39  1  0.54918308  0.61521198  0.40006852  1
  F  F40  1  0.95397375  0.13453368  0.40442012  1
  F  F41  1  0.45397375  0.86546632  0.59557988  1
  F  F42  1  0.04602625  0.63453368  0.09557988  1
  F  F43  1  0.54602625  0.36546632  0.90442012  1
  F  F44  1  0.04602625  0.86546632  0.59557988  1
  F  F45  1  0.54602625  0.13453368  0.40442012  1
  F  F46  1  0.95397375  0.36546632  0.90442012  1
  F  F47  1  0.45397375  0.63453368  0.09557988  1
