# generated using pymatgen
data_K2(ReS2)3
_symmetry_space_group_name_H-M   'P 1'
_cell_length_a   9.62774272
_cell_length_b   9.62774272
_cell_length_c   11.92721644
_cell_angle_alpha   88.81548936
_cell_angle_beta   88.81548936
_cell_angle_gamma   61.18018107
_symmetry_Int_Tables_number   1
_chemical_formula_structural   K2(ReS2)3
_chemical_formula_sum   'K8 Re12 S24'
_cell_volume   968.35877750
_cell_formula_units_Z   4
loop_
 _symmetry_equiv_pos_site_id
 _symmetry_equiv_pos_as_xyz
  1  'x, y, z'
loop_
 _atom_site_type_symbol
 _atom_site_label
 _atom_site_symmetry_multiplicity
 _atom_site_fract_x
 _atom_site_fract_y
 _atom_site_fract_z
 _atom_site_occupancy
  K  K0  1  0.60166938  0.39833062  0.25000000  1
  K  K1  1  0.39833062  0.60166938  0.75000000  1
  K  K2  1  0.21100306  0.78899694  0.25000000  1
  K  K3  1  0.78899694  0.21100306  0.75000000  1
  K  K4  1  0.35620276  0.87778785  0.97975249  1
  K  K5  1  0.12221215  0.64379724  0.52024751  1
  K  K6  1  0.64379724  0.12221215  0.02024751  1
  K  K7  1  0.87778785  0.35620276  0.47975249  1
  Re  Re8  1  0.69107235  0.99657579  0.47452706  1
  Re  Re9  1  0.00342421  0.30892765  0.02547294  1
  Re  Re10  1  0.30892765  0.00342421  0.52547294  1
  Re  Re11  1  0.99657579  0.69107235  0.97452706  1
  Re  Re12  1  0.53062186  0.88427322  0.36996047  1
  Re  Re13  1  0.11572678  0.46937814  0.13003953  1
  Re  Re14  1  0.46937814  0.11572678  0.63003953  1
  Re  Re15  1  0.88427322  0.53062186  0.86996047  1
  Re  Re16  1  0.39732005  0.18756951  0.41652440  1
  Re  Re17  1  0.81243049  0.60267995  0.08347560  1
  Re  Re18  1  0.60267995  0.81243049  0.58347560  1
  Re  Re19  1  0.18756951  0.39732005  0.91652440  1
  S  S20  1  0.74352276  0.92867732  0.66931745  1
  S  S21  1  0.07132268  0.25647724  0.83068255  1
  S  S22  1  0.25647724  0.07132268  0.33068255  1
  S  S23  1  0.92867732  0.74352276  0.16931745  1
  S  S24  1  0.28190390  0.20346449  0.06829734  1
  S  S25  1  0.79653551  0.71809610  0.43170266  1
  S  S26  1  0.71809610  0.79653551  0.93170266  1
  S  S27  1  0.20346449  0.28190390  0.56829734  1
  S  S28  1  0.38827737  0.93902413  0.71816700  1
  S  S29  1  0.06097587  0.61172263  0.78183300  1
  S  S30  1  0.61172263  0.06097587  0.28183300  1
  S  S31  1  0.93902413  0.38827737  0.21816700  1
  S  S32  1  0.44490875  0.72202824  0.48001818  1
  S  S33  1  0.27797176  0.55509125  0.01998182  1
  S  S34  1  0.55509125  0.27797176  0.51998182  1
  S  S35  1  0.72202824  0.44490875  0.98001818  1
  S  S36  1  0.00062529  0.94045930  0.92611822  1
  S  S37  1  0.05954070  0.99937471  0.57388178  1
  S  S38  1  0.99937471  0.05954070  0.07388178  1
  S  S39  1  0.94045930  0.00062529  0.42611822  1
  S  S40  1  0.56132145  0.73477100  0.19528468  1
  S  S41  1  0.26522900  0.43867855  0.30471532  1
  S  S42  1  0.43867855  0.26522900  0.80471532  1
  S  S43  1  0.73477100  0.56132145  0.69528468  1
