# generated using pymatgen
data_BaUO4
_symmetry_space_group_name_H-M   'P 1'
_cell_length_a   5.83258474
_cell_length_b   8.15165958
_cell_length_c   8.24151778
_cell_angle_alpha   90.00000000
_cell_angle_beta   90.00000000
_cell_angle_gamma   90.00000000
_symmetry_Int_Tables_number   1
_chemical_formula_structural   BaUO4
_chemical_formula_sum   'Ba4 U4 O16'
_cell_volume   391.84498426
_cell_formula_units_Z   4
loop_
 _symmetry_equiv_pos_site_id
 _symmetry_equiv_pos_as_xyz
  1  'x, y, z'
loop_
 _atom_site_type_symbol
 _atom_site_label
 _atom_site_symmetry_multiplicity
 _atom_site_fract_x
 _atom_site_fract_y
 _atom_site_fract_z
 _atom_site_occupancy
  Ba  Ba0  1  0.48097731  0.19470727  0.25000000  1
  Ba  Ba1  1  0.48097731  0.30529273  0.75000000  1
  Ba  Ba2  1  0.51902269  0.69470727  0.25000000  1
  Ba  Ba3  1  0.51902269  0.80529273  0.75000000  1
  U  U4  1  -0.00000000  -0.00000000  0.00000000  1
  U  U5  1  -0.00000000  0.50000000  0.00000000  1
  U  U6  1  -0.00000000  0.50000000  0.50000000  1
  U  U7  1  -0.00000000  -0.00000000  0.50000000  1
  O  O8  1  0.11625167  0.97352923  0.75000000  1
  O  O9  1  0.11625167  0.52647077  0.25000000  1
  O  O10  1  0.88374833  0.47352923  0.75000000  1
  O  O11  1  0.88374833  0.02647077  0.25000000  1
  O  O12  1  0.14592705  0.25000000  0.50000000  1
  O  O13  1  0.85407295  0.75000000  0.00000000  1
  O  O14  1  0.85407295  0.75000000  0.50000000  1
  O  O15  1  0.14592705  0.25000000  0.00000000  1
  O  O16  1  0.29506158  0.92478872  0.06849397  1
  O  O17  1  0.29506158  0.57521128  0.93150603  1
  O  O18  1  0.70493842  0.42478872  0.43150603  1
  O  O19  1  0.70493842  0.07521128  0.56849397  1
  O  O20  1  0.70493842  0.07521128  0.93150603  1
  O  O21  1  0.70493842  0.42478872  0.06849397  1
  O  O22  1  0.29506158  0.57521128  0.56849397  1
  O  O23  1  0.29506158  0.92478872  0.43150603  1
