# generated using pymatgen
data_NaUBO5
_symmetry_space_group_name_H-M   'P 1'
_cell_length_a   5.80328448
_cell_length_b   6.84230728
_cell_length_c   10.61632663
_cell_angle_alpha   90.00000000
_cell_angle_beta   90.00000000
_cell_angle_gamma   90.00000000
_symmetry_Int_Tables_number   1
_chemical_formula_structural   NaUBO5
_chemical_formula_sum   'Na4 U4 B4 O20'
_cell_volume   421.55156531
_cell_formula_units_Z   4
loop_
 _symmetry_equiv_pos_site_id
 _symmetry_equiv_pos_as_xyz
  1  'x, y, z'
loop_
 _atom_site_type_symbol
 _atom_site_label
 _atom_site_symmetry_multiplicity
 _atom_site_fract_x
 _atom_site_fract_y
 _atom_site_fract_z
 _atom_site_occupancy
  Na  Na0  1  0.60906333  -0.00000000  0.25000000  1
  Na  Na1  1  0.39093667  0.50000000  0.75000000  1
  Na  Na2  1  0.60906333  0.50000000  0.25000000  1
  Na  Na3  1  0.39093667  -0.00000000  0.75000000  1
  U  U4  1  0.89800060  0.75000000  0.56542126  1
  U  U5  1  0.10199940  0.25000000  0.43457874  1
  U  U6  1  0.89800060  0.25000000  0.93457874  1
  U  U7  1  0.10199940  0.75000000  0.06542126  1
  B  B8  1  0.20505530  0.75000000  0.35092350  1
  B  B9  1  0.79494470  0.25000000  0.64907650  1
  B  B10  1  0.79494470  0.75000000  0.85092350  1
  B  B11  1  0.20505530  0.25000000  0.14907650  1
  O  O12  1  0.86600509  0.08202260  0.58856636  1
  O  O13  1  0.86600509  0.58202260  0.91143364  1
  O  O14  1  0.14716825  0.75000000  0.67308135  1
  O  O15  1  0.65654602  0.25000000  0.04541166  1
  O  O16  1  0.13399491  0.08202260  0.08856636  1
  O  O17  1  0.67631975  0.75000000  0.73995676  1
  O  O18  1  0.13399491  0.91797740  0.41143364  1
  O  O19  1  0.32368025  0.25000000  0.26004324  1
  O  O20  1  0.65654602  0.75000000  0.45458834  1
  O  O21  1  0.85283175  0.75000000  0.17308135  1
  O  O22  1  0.34345398  0.25000000  0.54541166  1
  O  O23  1  0.13399491  0.58202260  0.41143364  1
  O  O24  1  0.32368025  0.75000000  0.23995676  1
  O  O25  1  0.86600509  0.41797740  0.58856636  1
  O  O26  1  0.14716825  0.25000000  0.82691865  1
  O  O27  1  0.67631975  0.25000000  0.76004324  1
  O  O28  1  0.13399491  0.41797740  0.08856636  1
  O  O29  1  0.34345398  0.75000000  0.95458834  1
  O  O30  1  0.86600509  0.91797740  0.91143364  1
  O  O31  1  0.85283175  0.25000000  0.32691865  1
