# generated using pymatgen
data_Cs2Ti(Si2O5)3
_symmetry_space_group_name_H-M   'P 1'
_cell_length_a   7.43615671
_cell_length_b   7.67114848
_cell_length_c   15.03870127
_cell_angle_alpha   76.71838434
_cell_angle_beta   75.69152442
_cell_angle_gamma   61.01575744
_symmetry_Int_Tables_number   1
_chemical_formula_structural   Cs2Ti(Si2O5)3
_chemical_formula_sum   'Cs4 Ti2 Si12 O30'
_cell_volume   720.99496322
_cell_formula_units_Z   2
loop_
 _symmetry_equiv_pos_site_id
 _symmetry_equiv_pos_as_xyz
  1  'x, y, z'
loop_
 _atom_site_type_symbol
 _atom_site_label
 _atom_site_symmetry_multiplicity
 _atom_site_fract_x
 _atom_site_fract_y
 _atom_site_fract_z
 _atom_site_occupancy
  Cs  Cs0  1  0.62324683  0.82547247  0.40931438  1
  Cs  Cs1  1  0.37675317  0.17452753  0.59068562  1
  Cs  Cs2  1  0.14193154  0.32528047  0.90938242  1
  Cs  Cs3  1  0.85806846  0.67471953  0.09061758  1
  Ti  Ti4  1  0.50000000  0.50000000  -0.00000000  1
  Ti  Ti5  1  -0.00000000  -0.00000000  0.50000000  1
  Si  Si6  1  0.39661594  0.18903784  0.16923943  1
  Si  Si7  1  0.11592947  0.33573060  0.35983672  1
  Si  Si8  1  0.81143545  0.16434650  0.14019623  1
  Si  Si9  1  0.24514613  0.68889016  0.66922716  1
  Si  Si10  1  0.18856555  0.83565350  0.85980377  1
  Si  Si11  1  0.26885368  0.85963989  0.14538229  1
  Si  Si12  1  0.27389013  0.64049412  0.35455414  1
  Si  Si13  1  0.88407053  0.66426940  0.64016328  1
  Si  Si14  1  0.60338406  0.81096216  0.83076057  1
  Si  Si15  1  0.72610987  0.35950588  0.64544586  1
  Si  Si16  1  0.75485387  0.31110984  0.33077284  1
  Si  Si17  1  0.73114632  0.14036011  0.85461771  1
  O  O18  1  0.33749773  0.03189452  0.14409556  1
  O  O19  1  0.29367417  0.23750106  0.27424394  1
  O  O20  1  0.03693387  0.97568816  0.11700056  1
  O  O21  1  0.78622959  0.20837610  0.57459839  1
  O  O22  1  0.48649599  0.53165785  0.64417311  1
  O  O23  1  0.66250227  0.96810548  0.85590444  1
  O  O24  1  0.87027433  0.47564631  0.61700599  1
  O  O25  1  0.25043189  0.75002504  0.24996087  1
  O  O26  1  0.66121562  0.61295540  0.90357860  1
  O  O27  1  0.56931293  0.29138231  0.92550396  1
  O  O28  1  0.74956811  0.24997496  0.75003913  1
  O  O29  1  0.75620915  0.33205099  0.05282850  1
  O  O30  1  0.43068707  0.70861769  0.07449604  1
  O  O31  1  0.11257875  0.56788801  0.67142885  1
  O  O32  1  0.19444374  0.73749961  0.77421896  1
  O  O33  1  0.33878438  0.38704460  0.09642140  1
  O  O34  1  0.85900149  0.83191224  0.55277323  1
  O  O35  1  0.96306613  0.02431184  0.88299944  1
  O  O36  1  0.80555626  0.26250039  0.22578104  1
  O  O37  1  0.51350401  0.46834215  0.35582689  1
  O  O38  1  0.17790465  0.88684553  0.59637754  1
  O  O39  1  0.14099851  0.16808776  0.44722677  1
  O  O40  1  0.64795480  0.06804569  0.17148058  1
  O  O41  1  0.21377041  0.79162390  0.42540161  1
  O  O42  1  0.88742125  0.43211199  0.32857115  1
  O  O43  1  0.12972567  0.52435369  0.38299401  1
  O  O44  1  0.35204520  0.93195431  0.82851942  1
  O  O45  1  0.70632583  0.76249894  0.72575606  1
  O  O46  1  0.82209635  0.11315447  0.40362246  1
  O  O47  1  0.24379185  0.66794901  0.94717150  1
