# generated using pymatgen
data_Ho3CuGeS7
_symmetry_space_group_name_H-M   'P 1'
_cell_length_a   9.77150245
_cell_length_b   9.77150245
_cell_length_c   5.84474572
_cell_angle_alpha   90.00000000
_cell_angle_beta   90.00000000
_cell_angle_gamma   119.99999622
_symmetry_Int_Tables_number   1
_chemical_formula_structural   Ho3CuGeS7
_chemical_formula_sum   'Ho6 Cu2 Ge2 S14'
_cell_volume   483.30240970
_cell_formula_units_Z   2
loop_
 _symmetry_equiv_pos_site_id
 _symmetry_equiv_pos_as_xyz
  1  'x, y, z'
loop_
 _atom_site_type_symbol
 _atom_site_label
 _atom_site_symmetry_multiplicity
 _atom_site_fract_x
 _atom_site_fract_y
 _atom_site_fract_z
 _atom_site_occupancy
  Ho  Ho0  1  0.64163194  0.77854425  0.75133733  1
  Ho  Ho1  1  0.22145575  0.86308770  0.75133733  1
  Ho  Ho2  1  0.13691230  0.35836806  0.75133733  1
  Ho  Ho3  1  0.86308770  0.64163194  0.25133733  1
  Ho  Ho4  1  0.77854425  0.13691230  0.25133733  1
  Ho  Ho5  1  0.35836806  0.22145575  0.25133733  1
  Cu  Cu6  1  0.00000000  0.00000000  0.68399092  1
  Cu  Cu7  1  0.00000000  0.00000000  0.18399092  1
  Ge  Ge8  1  0.66666700  0.33333300  0.83278726  1
  Ge  Ge9  1  0.33333300  0.66666700  0.33278726  1
  S  S10  1  0.15651859  0.89698048  0.20191906  1
  S  S11  1  0.84348141  0.10301952  0.70191906  1
  S  S12  1  0.66666700  0.33333300  0.45756793  1
  S  S13  1  0.74046088  0.84348141  0.20191906  1
  S  S14  1  0.42405204  0.52152989  0.49336257  1
  S  S15  1  0.57594796  0.47847011  0.99336257  1
  S  S16  1  0.10301952  0.25953912  0.20191906  1
  S  S17  1  0.52152989  0.09747784  0.99336257  1
  S  S18  1  0.90252216  0.42405204  0.99336257  1
  S  S19  1  0.89698048  0.74046088  0.70191906  1
  S  S20  1  0.25953912  0.15651859  0.70191906  1
  S  S21  1  0.47847011  0.90252216  0.49336257  1
  S  S22  1  0.33333300  0.66666700  0.95756793  1
  S  S23  1  0.09747784  0.57594796  0.49336257  1
