# generated using pymatgen
data_CsReO4
_symmetry_space_group_name_H-M   'P 1'
_cell_length_a   8.47396620
_cell_length_b   8.47451989
_cell_length_c   8.47498639
_cell_angle_alpha   139.22780239
_cell_angle_beta   139.22812309
_cell_angle_gamma   59.03024801
_symmetry_Int_Tables_number   1
_chemical_formula_structural   CsReO4
_chemical_formula_sum   'Cs2 Re2 O8'
_cell_volume   257.06781174
_cell_formula_units_Z   2
loop_
 _symmetry_equiv_pos_site_id
 _symmetry_equiv_pos_as_xyz
  1  'x, y, z'
loop_
 _atom_site_type_symbol
 _atom_site_label
 _atom_site_symmetry_multiplicity
 _atom_site_fract_x
 _atom_site_fract_y
 _atom_site_fract_z
 _atom_site_occupancy
  Cs  Cs0  1  0.75000506  0.25001886  0.50002314  1
  Cs  Cs1  1  0.00007140  0.99999709  0.00005277  1
  Re  Re2  1  0.50003362  0.49996377  0.00000839  1
  Re  Re3  1  0.24992278  0.75002832  0.49995419  1
  O  O4  1  0.07536497  0.81754814  0.25784756  1
  O  O5  1  0.56753411  0.80962015  0.24214097  1
  O  O6  1  0.56753831  0.32535369  0.75787105  1
  O  O7  1  0.67463023  0.43245794  0.24214197  1
  O  O8  1  0.19037504  0.43245676  0.75788514  1
  O  O9  1  0.18247102  0.44037093  0.25785496  1
  O  O10  1  0.18246444  0.92465004  0.74213743  1
  O  O11  1  0.55959002  0.81753433  0.74208245  1
