# generated using pymatgen
data_Ag10Te4Br3
_symmetry_space_group_name_H-M   'P 1'
_cell_length_a   11.05468881
_cell_length_b   11.05468881
_cell_length_c   13.81732461
_cell_angle_alpha   90.00000000
_cell_angle_beta   90.00000000
_cell_angle_gamma   90.93531589
_symmetry_Int_Tables_number   1
_chemical_formula_structural   Ag10Te4Br3
_chemical_formula_sum   'Ag40 Te16 Br12'
_cell_volume   1688.33698808
_cell_formula_units_Z   4
loop_
 _symmetry_equiv_pos_site_id
 _symmetry_equiv_pos_as_xyz
  1  'x, y, z'
loop_
 _atom_site_type_symbol
 _atom_site_label
 _atom_site_symmetry_multiplicity
 _atom_site_fract_x
 _atom_site_fract_y
 _atom_site_fract_z
 _atom_site_occupancy
  Ag  Ag0  1  0.82900210  0.36455251  0.10147342  1
  Ag  Ag1  1  0.37160645  0.62839355  0.25000000  1
  Ag  Ag2  1  0.84816735  0.36858699  0.63276368  1
  Ag  Ag3  1  0.84816735  0.36858699  0.86723632  1
  Ag  Ag4  1  0.40283409  0.31399535  0.64585270  1
  Ag  Ag5  1  0.31399535  0.40283409  0.14585270  1
  Ag  Ag6  1  0.93734081  0.88011356  0.75000000  1
  Ag  Ag7  1  0.17099790  0.63544749  0.89852658  1
  Ag  Ag8  1  0.63544749  0.17099790  0.39852658  1
  Ag  Ag9  1  0.85785233  0.14214767  0.75000000  1
  Ag  Ag10  1  0.36455251  0.82900210  0.60147342  1
  Ag  Ag11  1  0.17817151  0.01717203  0.07416950  1
  Ag  Ag12  1  0.98282797  0.82182849  0.42583050  1
  Ag  Ag13  1  0.40283409  0.31399535  0.85414730  1
  Ag  Ag14  1  0.36455251  0.82900210  0.89852658  1
  Ag  Ag15  1  0.15183265  0.63141301  0.13276368  1
  Ag  Ag16  1  0.62839355  0.37160645  0.75000000  1
  Ag  Ag17  1  0.82182849  0.98282797  0.57416950  1
  Ag  Ag18  1  0.11988644  0.06265919  0.75000000  1
  Ag  Ag19  1  0.14214767  0.85785233  0.25000000  1
  Ag  Ag20  1  0.36858699  0.84816735  0.36723632  1
  Ag  Ag21  1  0.01717203  0.17817151  0.57416950  1
  Ag  Ag22  1  0.63141301  0.15183265  0.86723632  1
  Ag  Ag23  1  0.98282797  0.82182849  0.07416950  1
  Ag  Ag24  1  0.88011356  0.93734081  0.25000000  1
  Ag  Ag25  1  0.36858699  0.84816735  0.13276368  1
  Ag  Ag26  1  0.59716591  0.68600465  0.35414730  1
  Ag  Ag27  1  0.15183265  0.63141301  0.36723632  1
  Ag  Ag28  1  0.31399535  0.40283409  0.35414730  1
  Ag  Ag29  1  0.17099790  0.63544749  0.60147342  1
  Ag  Ag30  1  0.17817151  0.01717203  0.42583050  1
  Ag  Ag31  1  0.63141301  0.15183265  0.63276368  1
  Ag  Ag32  1  0.82182849  0.98282797  0.92583050  1
  Ag  Ag33  1  0.68600465  0.59716591  0.64585270  1
  Ag  Ag34  1  0.63544749  0.17099790  0.10147342  1
  Ag  Ag35  1  0.06265919  0.11988644  0.25000000  1
  Ag  Ag36  1  0.68600465  0.59716591  0.85414730  1
  Ag  Ag37  1  0.01717203  0.17817151  0.92583050  1
  Ag  Ag38  1  0.82900210  0.36455251  0.39852658  1
  Ag  Ag39  1  0.59716591  0.68600465  0.14585270  1
  Te  Te40  1  0.68973832  0.95147290  0.75000000  1
  Te  Te41  1  0.29756225  0.51895313  0.75000000  1
  Te  Te42  1  0.38107218  0.61892782  0.45187457  1
  Te  Te43  1  0.88426026  0.11573974  0.40957803  1
  Te  Te44  1  0.95147290  0.68973832  0.25000000  1
  Te  Te45  1  0.04852710  0.31026168  0.75000000  1
  Te  Te46  1  0.48104687  0.70243775  0.75000000  1
  Te  Te47  1  0.31026168  0.04852710  0.25000000  1
  Te  Te48  1  0.61892782  0.38107218  0.54812543  1
  Te  Te49  1  0.51895313  0.29756225  0.25000000  1
  Te  Te50  1  0.88426026  0.11573974  0.09042197  1
  Te  Te51  1  0.38107218  0.61892782  0.04812543  1
  Te  Te52  1  0.11573974  0.88426026  0.90957803  1
  Te  Te53  1  0.11573974  0.88426026  0.59042197  1
  Te  Te54  1  0.61892782  0.38107218  0.95187457  1
  Te  Te55  1  0.70243775  0.48104687  0.25000000  1
  Br  Br56  1  0.24912007  0.24912007  0.50000000  1
  Br  Br57  1  0.90111471  0.63535081  0.75000000  1
  Br  Br58  1  0.24912007  0.24912007  -0.00000000  1
  Br  Br59  1  0.75087993  0.75087993  0.50000000  1
  Br  Br60  1  0.09888529  0.36464919  0.25000000  1
  Br  Br61  1  0.00000000  0.50000000  0.50000000  1
  Br  Br62  1  0.75087993  0.75087993  -0.00000000  1
  Br  Br63  1  0.36464919  0.09888529  0.75000000  1
  Br  Br64  1  0.00000000  0.50000000  -0.00000000  1
  Br  Br65  1  0.63535081  0.90111471  0.25000000  1
  Br  Br66  1  0.50000000  0.00000000  0.50000000  1
  Br  Br67  1  0.50000000  0.00000000  -0.00000000  1
