# generated using pymatgen
data_Cs3Y2Br9
_symmetry_space_group_name_H-M   'P 1'
_cell_length_a   10.27000672
_cell_length_b   10.27000672
_cell_length_c   10.27000758
_cell_angle_alpha   83.77250645
_cell_angle_beta   83.77250645
_cell_angle_gamma   83.77250436
_symmetry_Int_Tables_number   1
_chemical_formula_structural   Cs3Y2Br9
_chemical_formula_sum   'Cs6 Y4 Br18'
_cell_volume   1065.32453978
_cell_formula_units_Z   2
loop_
 _symmetry_equiv_pos_site_id
 _symmetry_equiv_pos_as_xyz
  1  'x, y, z'
loop_
 _atom_site_type_symbol
 _atom_site_label
 _atom_site_symmetry_multiplicity
 _atom_site_fract_x
 _atom_site_fract_y
 _atom_site_fract_z
 _atom_site_occupancy
  Cs  Cs0  1  0.08932508  0.75000000  0.41067492  1
  Cs  Cs1  1  0.75000000  0.41067492  0.08932508  1
  Cs  Cs2  1  0.25000000  0.58932508  0.91067492  1
  Cs  Cs3  1  0.41067492  0.08932508  0.75000000  1
  Cs  Cs4  1  0.91067492  0.25000000  0.58932508  1
  Cs  Cs5  1  0.58932508  0.91067492  0.25000000  1
  Y  Y6  1  0.34906727  0.34906727  0.34906727  1
  Y  Y7  1  0.65093273  0.65093273  0.65093273  1
  Y  Y8  1  0.84906727  0.84906727  0.84906727  1
  Y  Y9  1  0.15093273  0.15093273  0.15093273  1
  Br  Br10  1  0.26605769  0.91528584  0.08047973  1
  Br  Br11  1  0.73394231  0.08471416  0.91952027  1
  Br  Br12  1  0.90694167  0.59305833  0.75000000  1
  Br  Br13  1  0.08471416  0.91952027  0.73394231  1
  Br  Br14  1  0.59305833  0.75000000  0.90694167  1
  Br  Br15  1  0.41952027  0.58471416  0.23394231  1
  Br  Br16  1  0.25000000  0.09305833  0.40694167  1
  Br  Br17  1  0.91528584  0.08047973  0.26605769  1
  Br  Br18  1  0.58047973  0.41528584  0.76605769  1
  Br  Br19  1  0.08047973  0.26605769  0.91528584  1
  Br  Br20  1  0.91952027  0.73394231  0.08471416  1
  Br  Br21  1  0.41528584  0.76605769  0.58047973  1
  Br  Br22  1  0.23394231  0.41952027  0.58471416  1
  Br  Br23  1  0.75000000  0.90694167  0.59305833  1
  Br  Br24  1  0.09305833  0.40694167  0.25000000  1
  Br  Br25  1  0.76605769  0.58047973  0.41528584  1
  Br  Br26  1  0.40694167  0.25000000  0.09305833  1
  Br  Br27  1  0.58471416  0.23394231  0.41952027  1
