# generated using pymatgen
data_Na3CrF6
_symmetry_space_group_name_H-M   'P 1'
_cell_length_a   5.67859266
_cell_length_b   5.41198261
_cell_length_c   9.44738146
_cell_angle_alpha   55.64952835
_cell_angle_beta   90.00000000
_cell_angle_gamma   90.00000000
_symmetry_Int_Tables_number   1
_chemical_formula_structural   Na3CrF6
_chemical_formula_sum   'Na6 Cr2 F12'
_cell_volume   239.70609057
_cell_formula_units_Z   2
loop_
 _symmetry_equiv_pos_site_id
 _symmetry_equiv_pos_as_xyz
  1  'x, y, z'
loop_
 _atom_site_type_symbol
 _atom_site_label
 _atom_site_symmetry_multiplicity
 _atom_site_fract_x
 _atom_site_fract_y
 _atom_site_fract_z
 _atom_site_occupancy
  Na  Na0  1  0.56140476  0.72411493  0.25617437  1
  Na  Na1  1  0.06140476  0.27588507  0.24382563  1
  Na  Na2  1  0.43859524  0.27588507  0.74382563  1
  Na  Na3  1  0.93859524  0.72411493  0.75617437  1
  Na  Na4  1  0.50000000  0.50000000  0.00000000  1
  Na  Na5  1  -0.00000000  0.50000000  0.50000000  1
  Cr  Cr6  1  0.50000000  -0.00000000  0.50000000  1
  Cr  Cr7  1  -0.00000000  -0.00000000  0.00000000  1
  F  F8  1  0.22085762  0.75749522  0.57335805  1
  F  F9  1  0.72085762  0.24250478  0.92664195  1
  F  F10  1  0.77914238  0.24250478  0.42664195  1
  F  F11  1  0.27914238  0.75749522  0.07335805  1
  F  F12  1  0.32138602  0.34113550  0.44696509  1
  F  F13  1  0.82138602  0.65886450  0.05303491  1
  F  F14  1  0.67861398  0.65886450  0.55303491  1
  F  F15  1  0.17861398  0.34113550  0.94696509  1
  F  F16  1  0.05724028  0.10731852  0.77192059  1
  F  F17  1  0.55724028  0.89268148  0.72807941  1
  F  F18  1  0.94275972  0.89268148  0.22807941  1
  F  F19  1  0.44275972  0.10731852  0.27192059  1
