# generated using pymatgen
data_Cs3ClO
_symmetry_space_group_name_H-M   'P 1'
_cell_length_a   4.44156614
_cell_length_b   9.55407043
_cell_length_c   16.43001581
_cell_angle_alpha   90.00000000
_cell_angle_beta   90.00000000
_cell_angle_gamma   90.00000000
_symmetry_Int_Tables_number   1
_chemical_formula_structural   Cs3ClO
_chemical_formula_sum   'Cs12 Cl4 O4'
_cell_volume   697.20830779
_cell_formula_units_Z   4
loop_
 _symmetry_equiv_pos_site_id
 _symmetry_equiv_pos_as_xyz
  1  'x, y, z'
loop_
 _atom_site_type_symbol
 _atom_site_label
 _atom_site_symmetry_multiplicity
 _atom_site_fract_x
 _atom_site_fract_y
 _atom_site_fract_z
 _atom_site_occupancy
  Cs  Cs0  1  0.75000000  0.71217225  0.29108285  1
  Cs  Cs1  1  0.25000000  0.02695931  0.40099670  1
  Cs  Cs2  1  0.25000000  0.52695931  0.09900330  1
  Cs  Cs3  1  0.25000000  0.78782775  0.79108285  1
  Cs  Cs4  1  0.75000000  0.82878135  0.00129930  1
  Cs  Cs5  1  0.25000000  0.28782775  0.70891715  1
  Cs  Cs6  1  0.25000000  0.17121865  0.99870070  1
  Cs  Cs7  1  0.75000000  0.47304069  0.90099670  1
  Cs  Cs8  1  0.25000000  0.67121865  0.50129930  1
  Cs  Cs9  1  0.75000000  0.32878135  0.49870070  1
  Cs  Cs10  1  0.75000000  0.21217225  0.20891715  1
  Cs  Cs11  1  0.75000000  0.97304069  0.59900330  1
  Cl  Cl12  1  0.75000000  0.57685398  0.67220423  1
  Cl  Cl13  1  0.25000000  0.42314602  0.32779577  1
  Cl  Cl14  1  0.25000000  0.92314602  0.17220423  1
  Cl  Cl15  1  0.75000000  0.07685398  0.82779577  1
  O  O16  1  0.25000000  0.16593124  0.56126810  1
  O  O17  1  0.75000000  0.83406876  0.43873190  1
  O  O18  1  0.75000000  0.33406876  0.06126810  1
  O  O19  1  0.25000000  0.66593124  0.93873190  1
