# generated using pymatgen
data_KAu(SO4)2
_symmetry_space_group_name_H-M   'P 1'
_cell_length_a   6.62614915
_cell_length_b   6.62614915
_cell_length_c   9.45180257
_cell_angle_alpha   66.40357777
_cell_angle_beta   66.40357777
_cell_angle_gamma   65.82692731
_symmetry_Int_Tables_number   1
_chemical_formula_structural   KAu(SO4)2
_chemical_formula_sum   'K2 Au2 S4 O16'
_cell_volume   332.78862292
_cell_formula_units_Z   2
loop_
 _symmetry_equiv_pos_site_id
 _symmetry_equiv_pos_as_xyz
  1  'x, y, z'
loop_
 _atom_site_type_symbol
 _atom_site_label
 _atom_site_symmetry_multiplicity
 _atom_site_fract_x
 _atom_site_fract_y
 _atom_site_fract_z
 _atom_site_occupancy
  K  K0  1  0.97505156  0.02494844  0.25000000  1
  K  K1  1  0.02494844  0.97505156  0.75000000  1
  Au  Au2  1  0.50000000  0.50000000  0.50000000  1
  Au  Au3  1  0.50000000  0.50000000  0.00000000  1
  S  S4  1  0.68292733  0.71691500  0.13836704  1
  S  S5  1  0.28308500  0.31707267  0.36163296  1
  S  S6  1  0.71691500  0.68292733  0.63836704  1
  S  S7  1  0.31707267  0.28308500  0.86163296  1
  O  O8  1  0.14900856  0.55346759  0.32126509  1
  O  O9  1  0.49875659  0.27211835  0.21788968  1
  O  O10  1  0.85520197  0.83015159  0.08417323  1
  O  O11  1  0.39044565  0.26108754  0.49560238  1
  O  O12  1  0.14479803  0.16984841  0.91582677  1
  O  O13  1  0.16984841  0.14479803  0.41582677  1
  O  O14  1  0.50124341  0.72788165  0.78211032  1
  O  O15  1  0.26108754  0.39044565  0.99560238  1
  O  O16  1  0.27211835  0.49875659  0.71788968  1
  O  O17  1  0.73891246  0.60955435  0.00439762  1
  O  O18  1  0.72788165  0.50124341  0.28211032  1
  O  O19  1  0.85099144  0.44653241  0.67873491  1
  O  O20  1  0.55346759  0.14900856  0.82126509  1
  O  O21  1  0.44653241  0.85099144  0.17873491  1
  O  O22  1  0.83015159  0.85520197  0.58417323  1
  O  O23  1  0.60955435  0.73891246  0.50439762  1
