# generated using pymatgen
data_HgI2
_symmetry_space_group_name_H-M   'P 1'
_cell_length_a   8.99120940
_cell_length_b   8.99120940
_cell_length_c   12.70644701
_cell_angle_alpha   90.00000000
_cell_angle_beta   90.00000000
_cell_angle_gamma   90.00000000
_symmetry_Int_Tables_number   1
_chemical_formula_structural   HgI2
_chemical_formula_sum   'Hg8 I16'
_cell_volume   1027.21263842
_cell_formula_units_Z   8
loop_
 _symmetry_equiv_pos_site_id
 _symmetry_equiv_pos_as_xyz
  1  'x, y, z'
loop_
 _atom_site_type_symbol
 _atom_site_label
 _atom_site_symmetry_multiplicity
 _atom_site_fract_x
 _atom_site_fract_y
 _atom_site_fract_z
 _atom_site_occupancy
  Hg  Hg0  1  0.00118827  0.75000000  0.12531158  1
  Hg  Hg1  1  0.25000000  0.99881173  0.37468842  1
  Hg  Hg2  1  0.50118827  0.25000000  0.87468842  1
  Hg  Hg3  1  0.25000000  0.50118827  0.37468842  1
  Hg  Hg4  1  0.49881173  0.75000000  0.12531158  1
  Hg  Hg5  1  0.75000000  0.00118827  0.62531158  1
  Hg  Hg6  1  0.75000000  0.49881173  0.62531158  1
  Hg  Hg7  1  0.99881173  0.25000000  0.87468842  1
  I  I8  1  0.75000000  0.25000000  0.01167470  1
  I  I9  1  0.25000000  0.25000000  0.51121045  1
  I  I10  1  0.98898606  0.01101394  0.25000000  1
  I  I11  1  0.48898606  0.51101394  0.75000000  1
  I  I12  1  0.75000000  0.25000000  0.48832530  1
  I  I13  1  0.01101394  0.51101394  0.75000000  1
  I  I14  1  0.01101394  0.98898606  0.75000000  1
  I  I15  1  0.25000000  0.25000000  0.01121045  1
  I  I16  1  0.25000000  0.75000000  0.51167470  1
  I  I17  1  0.48898606  0.98898606  0.75000000  1
  I  I18  1  0.25000000  0.75000000  0.98832530  1
  I  I19  1  0.75000000  0.75000000  0.48878955  1
  I  I20  1  0.98898606  0.48898606  0.25000000  1
  I  I21  1  0.51101394  0.01101394  0.25000000  1
  I  I22  1  0.51101394  0.48898606  0.25000000  1
  I  I23  1  0.75000000  0.75000000  0.98878955  1
