# generated using pymatgen
data_Pr7BP2O17
_symmetry_space_group_name_H-M   'P 1'
_cell_length_a   17.75551424
_cell_length_b   6.94152634
_cell_length_c   13.49517515
_cell_angle_alpha   66.39098609
_cell_angle_beta   90.00000000
_cell_angle_gamma   90.00000000
_symmetry_Int_Tables_number   1
_chemical_formula_structural   Pr7BP2O17
_chemical_formula_sum   'Pr28 B4 P8 O68'
_cell_volume   1524.06790451
_cell_formula_units_Z   4
loop_
 _symmetry_equiv_pos_site_id
 _symmetry_equiv_pos_as_xyz
  1  'x, y, z'
loop_
 _atom_site_type_symbol
 _atom_site_label
 _atom_site_symmetry_multiplicity
 _atom_site_fract_x
 _atom_site_fract_y
 _atom_site_fract_z
 _atom_site_occupancy
  Pr  Pr0  1  0.27443040  0.79748564  0.17862696  1
  Pr  Pr1  1  0.77443040  0.20251436  0.32137304  1
  Pr  Pr2  1  0.48302466  0.79957542  0.21132299  1
  Pr  Pr3  1  0.77765028  0.71434614  0.59685551  1
  Pr  Pr4  1  0.10499042  0.30779214  0.69775393  1
  Pr  Pr5  1  0.60499042  0.69220786  0.80224607  1
  Pr  Pr6  1  0.86725469  0.21934611  0.57093495  1
  Pr  Pr7  1  0.72234972  0.71434614  0.09685551  1
  Pr  Pr8  1  0.72556960  0.20251436  0.82137304  1
  Pr  Pr9  1  0.89500958  0.69220786  0.30224607  1
  Pr  Pr10  1  0.36725469  0.78065389  0.92906505  1
  Pr  Pr11  1  0.63274531  0.21934611  0.07093495  1
  Pr  Pr12  1  0.44463838  0.28138674  0.49235174  1
  Pr  Pr13  1  0.55536162  0.71861326  0.50764826  1
  Pr  Pr14  1  0.98302466  0.20042458  0.28867701  1
  Pr  Pr15  1  0.15385053  0.81298400  0.92736603  1
  Pr  Pr16  1  0.34614947  0.81298400  0.42736603  1
  Pr  Pr17  1  0.22556960  0.79748564  0.67862696  1
  Pr  Pr18  1  0.05536162  0.28138674  0.99235174  1
  Pr  Pr19  1  0.27765028  0.28565386  0.90314449  1
  Pr  Pr20  1  0.94463838  0.71861326  0.00764826  1
  Pr  Pr21  1  0.84614947  0.18701600  0.07263397  1
  Pr  Pr22  1  0.01697534  0.79957542  0.71132299  1
  Pr  Pr23  1  0.65385053  0.18701600  0.57263397  1
  Pr  Pr24  1  0.22234972  0.28565386  0.40314449  1
  Pr  Pr25  1  0.51697534  0.20042458  0.78867701  1
  Pr  Pr26  1  0.13274531  0.78065389  0.42906505  1
  Pr  Pr27  1  0.39500958  0.30779214  0.19775393  1
  B  B28  1  0.06749387  0.24830596  0.50106304  1
  B  B29  1  0.43250613  0.24830596  0.00106304  1
  B  B30  1  0.93250613  0.75169404  0.49893696  1
  B  B31  1  0.56749387  0.75169404  0.99893696  1
  P  P32  1  0.69761504  0.71047095  0.33740063  1
  P  P33  1  0.19761504  0.28952905  0.16259937  1
  P  P34  1  0.43855883  0.77893321  0.68249353  1
  P  P35  1  0.93855983  0.22106679  0.81750647  1
  P  P36  1  0.56144117  0.22106679  0.31750647  1
  P  P37  1  0.80238496  0.71047095  0.83740063  1
  P  P38  1  0.30238496  0.28952905  0.66259937  1
  P  P39  1  0.06144117  0.77893321  0.18249353  1
  O  O40  1  0.01293980  0.19426361  0.58065423  1
  O  O41  1  0.75418657  0.36630734  0.12492444  1
  O  O42  1  0.54172236  0.36554876  0.59728011  1
  O  O43  1  0.74581343  0.36630734  0.62492444  1
  O  O44  1  0.24331399  0.42257328  0.69267116  1
  O  O45  1  0.36432957  0.43216843  0.59193963  1
  O  O46  1  0.89105410  0.31888852  0.37572215  1
  O  O47  1  0.76688946  0.09024537  0.50930598  1
  O  O48  1  0.37986582  0.40121086  0.99911505  1
  O  O49  1  0.50506466  0.40568749  0.27575732  1
  O  O50  1  0.74331399  0.57742672  0.80732884  1
  O  O51  1  0.16729815  0.13070372  0.27093539  1
  O  O52  1  0.51293980  0.80573639  0.91934577  1
  O  O53  1  0.25418657  0.63369266  0.37507556  1
  O  O54  1  0.25668601  0.42257328  0.19267116  1
  O  O55  1  0.86432957  0.56783157  0.90806037  1
  O  O56  1  0.86769892  0.04832356  0.26003833  1
  O  O57  1  0.08020797  0.15516561  0.43034919  1
  O  O58  1  0.98706020  0.80573639  0.41934577  1
  O  O59  1  0.73450652  0.82580077  0.40125082  1
  O  O60  1  0.13230108  0.95167644  0.73996167  1
  O  O61  1  0.99493534  0.40568749  0.77575732  1
  O  O62  1  0.12013418  0.40121086  0.49911505  1
  O  O63  1  0.26549348  0.17419923  0.59874918  1
  O  O64  1  0.95827764  0.36554876  0.09728011  1
  O  O65  1  0.39105410  0.68111148  0.12427785  1
  O  O66  1  0.14466113  0.20289182  0.88036682  1
  O  O67  1  0.35533887  0.20289182  0.38036682  1
  O  O68  1  0.23450652  0.17419923  0.09874918  1
  O  O69  1  0.41979203  0.15516561  0.93034919  1
  O  O70  1  0.13716437  0.71484329  0.23739149  1
  O  O71  1  0.48706020  0.19426361  0.08065423  1
  O  O72  1  0.87986582  0.59878914  0.50088495  1
  O  O73  1  0.52787843  0.03388639  0.29962165  1
  O  O74  1  0.13567043  0.43216843  0.09193963  1
  O  O75  1  0.00506466  0.59431251  0.22424268  1
  O  O76  1  0.86283563  0.28515671  0.76260851  1
  O  O77  1  0.47212157  0.96611361  0.70037835  1
  O  O78  1  0.02787843  0.96611361  0.20037835  1
  O  O79  1  0.36769892  0.95167644  0.23996167  1
  O  O80  1  0.97212157  0.03388639  0.79962165  1
  O  O81  1  0.63716437  0.28515671  0.26260851  1
  O  O82  1  0.43495422  0.85449936  0.55785929  1
  O  O83  1  0.64466113  0.79710818  0.61963318  1
  O  O84  1  0.58020797  0.84483439  0.06965081  1
  O  O85  1  0.33270185  0.13070372  0.77093539  1
  O  O86  1  0.85533887  0.79710818  0.11963318  1
  O  O87  1  0.73311054  0.09024537  0.00930598  1
  O  O88  1  0.91979203  0.84483439  0.56965081  1
  O  O89  1  0.93495422  0.14550064  0.94214071  1
  O  O90  1  0.75668601  0.57742672  0.30732884  1
  O  O91  1  0.62013418  0.59878914  0.00088495  1
  O  O92  1  0.49493534  0.59431251  0.72424268  1
  O  O93  1  0.06504578  0.85449936  0.05785929  1
  O  O94  1  0.76549348  0.82580077  0.90125082  1
  O  O95  1  0.66729815  0.86929628  0.22906461  1
  O  O96  1  0.10894590  0.68111148  0.62427785  1
  O  O97  1  0.60894590  0.31888852  0.87572215  1
  O  O98  1  0.63567043  0.56783157  0.40806037  1
  O  O99  1  0.23311054  0.90975463  0.49069402  1
  O  O100  1  0.63230108  0.04832356  0.76003833  1
  O  O101  1  0.04172236  0.63445124  0.90271989  1
  O  O102  1  0.26688946  0.90975463  0.99069402  1
  O  O103  1  0.45827764  0.63445124  0.40271989  1
  O  O104  1  0.24581343  0.63369266  0.87507556  1
  O  O105  1  0.83270185  0.86929628  0.72906461  1
  O  O106  1  0.36283563  0.71484329  0.73739149  1
  O  O107  1  0.56504578  0.14550064  0.44214071  1
