# generated using pymatgen
data_K2FeF5
_symmetry_space_group_name_H-M   'P 1'
_cell_length_a   5.67345055
_cell_length_b   7.27279571
_cell_length_c   22.93083903
_cell_angle_alpha   90.00000000
_cell_angle_beta   90.00000000
_cell_angle_gamma   90.00000000
_symmetry_Int_Tables_number   1
_chemical_formula_structural   K2FeF5
_chemical_formula_sum   'K16 Fe8 F40'
_cell_volume   946.16876753
_cell_formula_units_Z   8
loop_
 _symmetry_equiv_pos_site_id
 _symmetry_equiv_pos_as_xyz
  1  'x, y, z'
loop_
 _atom_site_type_symbol
 _atom_site_label
 _atom_site_symmetry_multiplicity
 _atom_site_fract_x
 _atom_site_fract_y
 _atom_site_fract_z
 _atom_site_occupancy
  K  K0  1  -0.00000000  0.62844278  0.41679633  1
  K  K1  1  0.50000000  0.45167198  0.16761605  1
  K  K2  1  -0.00000000  0.80245575  0.23628533  1
  K  K3  1  -0.00000000  0.19754425  0.76371467  1
  K  K4  1  0.50000000  0.95167198  0.33238395  1
  K  K5  1  0.50000000  0.23125688  0.48558497  1
  K  K6  1  -0.00000000  0.69754425  0.73628533  1
  K  K7  1  -0.00000000  0.12844278  0.08320367  1
  K  K8  1  0.50000000  0.54832802  0.83238395  1
  K  K9  1  -0.00000000  0.30245575  0.26371467  1
  K  K10  1  0.50000000  0.76874312  0.51441503  1
  K  K11  1  -0.00000000  0.37155722  0.58320367  1
  K  K12  1  -0.00000000  0.87155722  0.91679633  1
  K  K13  1  0.50000000  0.26874312  0.98558497  1
  K  K14  1  0.50000000  0.04832802  0.66761605  1
  K  K15  1  0.50000000  0.73125688  0.01441503  1
  Fe  Fe16  1  0.50000000  0.03941321  0.84396203  1
  Fe  Fe17  1  0.50000000  0.53941321  0.65603797  1
  Fe  Fe18  1  -0.00000000  0.38485355  0.90697045  1
  Fe  Fe19  1  0.50000000  0.46058679  0.34396203  1
  Fe  Fe20  1  -0.00000000  0.11514645  0.40697045  1
  Fe  Fe21  1  -0.00000000  0.61514645  0.09302955  1
  Fe  Fe22  1  0.50000000  0.96058679  0.15603797  1
  Fe  Fe23  1  -0.00000000  0.88485355  0.59302955  1
  F  F24  1  0.74810782  0.78085347  0.12708918  1
  F  F25  1  0.75676221  0.04167477  0.56681880  1
  F  F26  1  0.25462776  0.61689522  0.31894326  1
  F  F27  1  0.24323779  0.45832523  0.06681880  1
  F  F28  1  0.74537224  0.61689522  0.31894326  1
  F  F29  1  0.25462776  0.88310478  0.81894326  1
  F  F30  1  0.50000000  0.81773461  0.22532177  1
  F  F31  1  0.74537224  0.88310478  0.81894326  1
  F  F32  1  -0.00000000  0.99733949  0.66973822  1
  F  F33  1  0.25189218  0.71914653  0.62708918  1
  F  F34  1  -0.00000000  0.00266051  0.33026178  1
  F  F35  1  0.50000000  0.44453789  0.57729145  1
  F  F36  1  0.25462776  0.11689522  0.18105674  1
  F  F37  1  0.24323779  0.95832523  0.43318120  1
  F  F38  1  0.50000000  0.31773461  0.27467823  1
  F  F39  1  -0.00000000  0.21732909  0.97116950  1
  F  F40  1  0.74810782  0.28085347  0.37291082  1
  F  F41  1  -0.00000000  0.71732909  0.52883050  1
  F  F42  1  0.25462776  0.38310478  0.68105674  1
  F  F43  1  0.50000000  0.18226539  0.77467823  1
  F  F44  1  0.74810782  0.21914653  0.87291082  1
  F  F45  1  -0.00000000  0.49733949  0.83026178  1
  F  F46  1  -0.00000000  0.50266051  0.16973822  1
  F  F47  1  0.24323779  0.04167477  0.56681880  1
  F  F48  1  0.25189218  0.21914653  0.87291082  1
  F  F49  1  0.74537224  0.11689522  0.18105674  1
  F  F50  1  0.50000000  0.94453789  0.92270855  1
  F  F51  1  0.74810782  0.71914653  0.62708918  1
  F  F52  1  0.50000000  0.55546211  0.42270855  1
  F  F53  1  -0.00000000  0.28267091  0.47116950  1
  F  F54  1  0.50000000  0.05546211  0.07729145  1
  F  F55  1  0.50000000  0.68226539  0.72532177  1
  F  F56  1  0.75676221  0.95832523  0.43318120  1
  F  F57  1  0.25189218  0.78085347  0.12708918  1
  F  F58  1  -0.00000000  0.78267091  0.02883050  1
  F  F59  1  0.74537224  0.38310478  0.68105674  1
  F  F60  1  0.75676221  0.45832523  0.06681880  1
  F  F61  1  0.75676221  0.54167477  0.93318120  1
  F  F62  1  0.25189218  0.28085347  0.37291082  1
  F  F63  1  0.24323779  0.54167477  0.93318120  1
