# generated using pymatgen
data_KNd(CO3)2
_symmetry_space_group_name_H-M   'P 1'
_cell_length_a   6.49085764
_cell_length_b   8.49547253
_cell_length_c   9.75491279
_cell_angle_alpha   90.00000000
_cell_angle_beta   90.00000000
_cell_angle_gamma   90.00000000
_symmetry_Int_Tables_number   1
_chemical_formula_structural   KNd(CO3)2
_chemical_formula_sum   'K4 Nd4 C8 O24'
_cell_volume   537.91420757
_cell_formula_units_Z   4
loop_
 _symmetry_equiv_pos_site_id
 _symmetry_equiv_pos_as_xyz
  1  'x, y, z'
loop_
 _atom_site_type_symbol
 _atom_site_label
 _atom_site_symmetry_multiplicity
 _atom_site_fract_x
 _atom_site_fract_y
 _atom_site_fract_z
 _atom_site_occupancy
  K  K0  1  0.45479220  0.68752510  0.23793040  1
  K  K1  1  0.45479220  0.68752510  0.76206960  1
  K  K2  1  0.54520780  0.18752510  0.26206960  1
  K  K3  1  0.54520780  0.18752510  0.73793040  1
  Nd  Nd4  1  0.96785537  0.95273955  0.00000000  1
  Nd  Nd5  1  0.03695375  0.45459111  0.00000000  1
  Nd  Nd6  1  0.03214463  0.45273955  0.50000000  1
  Nd  Nd7  1  0.96304625  0.95459111  0.50000000  1
  C  C8  1  0.96097279  0.76154300  0.75051584  1
  C  C9  1  0.03902721  0.26154300  0.74948416  1
  C  C10  1  0.47387488  0.44224852  0.50000000  1
  C  C11  1  0.03902721  0.26154300  0.25051584  1
  C  C12  1  0.40561306  0.95664098  0.50000000  1
  C  C13  1  0.96097279  0.76154300  0.24948416  1
  C  C14  1  0.59438694  0.45664098  0.00000000  1
  C  C15  1  0.52612512  0.94224852  0.00000000  1
  O  O16  1  0.39770981  0.47374646  0.00000000  1
  O  O17  1  0.36704365  0.31341563  0.50000000  1
  O  O18  1  0.32915985  0.93751412  0.00000000  1
  O  O19  1  0.02997337  0.19416359  0.13332754  1
  O  O20  1  0.03620373  0.70311153  0.86140172  1
  O  O21  1  0.87933009  0.90088800  0.75499090  1
  O  O22  1  0.97002663  0.69416359  0.36667246  1
  O  O23  1  0.60229019  0.97374646  0.50000000  1
  O  O24  1  0.69610999  0.44959580  0.88581495  1
  O  O25  1  0.12066991  0.40088800  0.74500910  1
  O  O26  1  0.96379627  0.20311153  0.63859828  1
  O  O27  1  0.63295635  0.81341563  0.00000000  1
  O  O28  1  0.12066991  0.40088800  0.25499090  1
  O  O29  1  0.96379627  0.20311153  0.36140172  1
  O  O30  1  0.62408361  0.07564959  0.00000000  1
  O  O31  1  0.87933009  0.90088800  0.24500910  1
  O  O32  1  0.69610999  0.44959580  0.11418505  1
  O  O33  1  0.97002663  0.69416359  0.63332754  1
  O  O34  1  0.37591639  0.57564959  0.50000000  1
  O  O35  1  0.30389001  0.94959580  0.38581495  1
  O  O36  1  0.03620373  0.70311153  0.13859828  1
  O  O37  1  0.02997337  0.19416359  0.86667246  1
  O  O38  1  0.30389001  0.94959580  0.61418505  1
  O  O39  1  0.67084015  0.43751412  0.50000000  1
