# generated using pymatgen
data_AgAuCl4
_symmetry_space_group_name_H-M   'P 1'
_cell_length_a   4.14791694
_cell_length_b   6.71121053
_cell_length_c   11.86065281
_cell_angle_alpha   85.51424078
_cell_angle_beta   79.94012178
_cell_angle_gamma   72.01922105
_symmetry_Int_Tables_number   1
_chemical_formula_structural   AgAuCl4
_chemical_formula_sum   'Ag2 Au2 Cl8'
_cell_volume   309.11367955
_cell_formula_units_Z   2
loop_
 _symmetry_equiv_pos_site_id
 _symmetry_equiv_pos_as_xyz
  1  'x, y, z'
loop_
 _atom_site_type_symbol
 _atom_site_label
 _atom_site_symmetry_multiplicity
 _atom_site_fract_x
 _atom_site_fract_y
 _atom_site_fract_z
 _atom_site_occupancy
  Ag  Ag0  1  0.50488834  0.74993562  0.25002592  1
  Ag  Ag1  1  0.49511166  0.25006438  0.74997408  1
  Au  Au2  1  -0.00000000  -0.00000000  0.00000000  1
  Au  Au3  1  -0.00000000  0.50000000  0.50000000  1
  Cl  Cl4  1  0.84232367  0.32246367  0.90760843  1
  Cl  Cl5  1  0.07307146  0.17735802  0.59245470  1
  Cl  Cl6  1  0.17885827  0.61748869  0.64894315  1
  Cl  Cl7  1  0.44501131  0.88263347  0.85086476  1
  Cl  Cl8  1  0.82114173  0.38251131  0.35105685  1
  Cl  Cl9  1  0.15767633  0.67753633  0.09239157  1
  Cl  Cl10  1  0.92692854  0.82264198  0.40754530  1
  Cl  Cl11  1  0.55498869  0.11736653  0.14913524  1
