# generated using pymatgen
data_N2O5
_symmetry_space_group_name_H-M   'P 1'
_cell_length_a   5.37288842
_cell_length_b   5.37288750
_cell_length_c   6.51592440
_cell_angle_alpha   90.00000000
_cell_angle_beta   90.00000000
_cell_angle_gamma   119.99999941
_symmetry_Int_Tables_number   1
_chemical_formula_structural   N2O5
_chemical_formula_sum   'N4 O10'
_cell_volume   162.90043329
_cell_formula_units_Z   2
loop_
 _symmetry_equiv_pos_site_id
 _symmetry_equiv_pos_as_xyz
  1  'x, y, z'
loop_
 _atom_site_type_symbol
 _atom_site_label
 _atom_site_symmetry_multiplicity
 _atom_site_fract_x
 _atom_site_fract_y
 _atom_site_fract_z
 _atom_site_occupancy
  N  N0  1  0.66666700  0.33333300  0.25000000  1
  N  N1  1  -0.00000000  -0.00000000  0.75000000  1
  N  N2  1  0.33333300  0.66666700  0.75000000  1
  N  N3  1  -0.00000000  -0.00000000  0.25000000  1
  O  O4  1  0.33333300  0.66666700  0.57632898  1
  O  O5  1  0.66666700  0.33333300  0.42367102  1
  O  O6  1  0.86443820  0.72887639  0.75000000  1
  O  O7  1  0.66666700  0.33333300  0.07632898  1
  O  O8  1  0.27112361  0.13556180  0.75000000  1
  O  O9  1  0.13556180  0.27112361  0.25000000  1
  O  O10  1  0.13556180  0.86443820  0.25000000  1
  O  O11  1  0.86443820  0.13556180  0.75000000  1
  O  O12  1  0.33333300  0.66666700  0.92367102  1
  O  O13  1  0.72887639  0.86443820  0.25000000  1
