# generated using pymatgen
data_Rb2Ge2Se5
_symmetry_space_group_name_H-M   'P 1'
_cell_length_a   11.56212012
_cell_length_b   11.56212012
_cell_length_c   9.46884889
_cell_angle_alpha   80.11582904
_cell_angle_beta   80.11582904
_cell_angle_gamma   90.00875373
_symmetry_Int_Tables_number   1
_chemical_formula_structural   Rb2Ge2Se5
_chemical_formula_sum   'Rb8 Ge8 Se20'
_cell_volume   1227.94951384
_cell_formula_units_Z   4
loop_
 _symmetry_equiv_pos_site_id
 _symmetry_equiv_pos_as_xyz
  1  'x, y, z'
loop_
 _atom_site_type_symbol
 _atom_site_label
 _atom_site_symmetry_multiplicity
 _atom_site_fract_x
 _atom_site_fract_y
 _atom_site_fract_z
 _atom_site_occupancy
  Rb  Rb0  1  0.78883883  0.52521162  0.11846235  1
  Rb  Rb1  1  0.47478838  0.21116117  0.38153765  1
  Rb  Rb2  1  0.21116117  0.47478838  0.88153765  1
  Rb  Rb3  1  0.52521162  0.78883883  0.61846235  1
  Rb  Rb4  1  0.05237562  0.21243087  0.38596653  1
  Rb  Rb5  1  0.78756913  0.94762438  0.11403347  1
  Rb  Rb6  1  0.94762438  0.78756913  0.61403347  1
  Rb  Rb7  1  0.21243087  0.05237562  0.88596653  1
  Ge  Ge8  1  0.73307677  0.47145971  0.59773015  1
  Ge  Ge9  1  0.52854029  0.26692323  0.90226985  1
  Ge  Ge10  1  0.26692323  0.52854029  0.40226985  1
  Ge  Ge11  1  0.47145971  0.73307677  0.09773015  1
  Ge  Ge12  1  0.13303020  0.73045475  0.11225810  1
  Ge  Ge13  1  0.26954525  0.86696980  0.38774190  1
  Ge  Ge14  1  0.86696980  0.26954525  0.88774190  1
  Ge  Ge15  1  0.73045475  0.13303020  0.61225810  1
  Se  Se16  1  0.88967565  0.45689438  0.73633551  1
  Se  Se17  1  0.54310562  0.11032435  0.76366449  1
  Se  Se18  1  0.11032435  0.54310562  0.26366449  1
  Se  Se19  1  0.45689438  0.88967565  0.23633551  1
  Se  Se20  1  0.24648971  0.68093146  0.54734518  1
  Se  Se21  1  0.31906854  0.75351029  0.95265482  1
  Se  Se22  1  0.75351029  0.31906854  0.45265482  1
  Se  Se23  1  0.68093146  0.24648971  0.04734518  1
  Se  Se24  1  0.75679583  0.64645820  0.44498211  1
  Se  Se25  1  0.35354180  0.24320417  0.05501789  1
  Se  Se26  1  0.24320417  0.35354180  0.55501789  1
  Se  Se27  1  0.64645820  0.75679583  0.94498211  1
  Se  Se28  1  0.00566208  0.24549823  0.03176042  1
  Se  Se29  1  0.75450177  0.99433792  0.46823958  1
  Se  Se30  1  0.99433792  0.75450177  0.96823958  1
  Se  Se31  1  0.24549823  0.00566208  0.53176042  1
  Se  Se32  1  0.88671655  0.11328345  0.75000000  1
  Se  Se33  1  0.11328345  0.88671655  0.25000000  1
  Se  Se34  1  0.54507737  0.45492263  0.75000000  1
  Se  Se35  1  0.45492263  0.54507737  0.25000000  1
