# generated using pymatgen
data_GaNi2BO5
_symmetry_space_group_name_H-M   'P 1'
_cell_length_a   2.96302628
_cell_length_b   9.23252153
_cell_length_c   12.14773694
_cell_angle_alpha   90.00000000
_cell_angle_beta   90.00000000
_cell_angle_gamma   90.00000000
_symmetry_Int_Tables_number   1
_chemical_formula_structural   GaNi2BO5
_chemical_formula_sum   'Ga4 Ni8 B4 O20'
_cell_volume   332.31596895
_cell_formula_units_Z   4
loop_
 _symmetry_equiv_pos_site_id
 _symmetry_equiv_pos_as_xyz
  1  'x, y, z'
loop_
 _atom_site_type_symbol
 _atom_site_label
 _atom_site_symmetry_multiplicity
 _atom_site_fract_x
 _atom_site_fract_y
 _atom_site_fract_z
 _atom_site_occupancy
  Ga  Ga0  1  0.00000000  0.23870543  0.11562546  1
  Ga  Ga1  1  0.00000000  0.76129457  0.88437454  1
  Ga  Ga2  1  0.00000000  0.73870543  0.38437454  1
  Ga  Ga3  1  -0.00000000  0.26129457  0.61562546  1
  Ni  Ni4  1  0.50000000  0.99926319  0.28179579  1
  Ni  Ni5  1  0.50000000  0.00073681  0.71820421  1
  Ni  Ni6  1  0.50000000  0.49926319  0.21820421  1
  Ni  Ni7  1  0.50000000  0.50073681  0.78179579  1
  Ni  Ni8  1  0.50000000  0.00000000  0.00000000  1
  Ni  Ni9  1  0.50000000  0.50000000  0.50000000  1
  Ni  Ni10  1  0.00000000  0.50000000  0.00000000  1
  Ni  Ni11  1  0.00000000  0.00000000  0.50000000  1
  B  B12  1  0.00000000  0.27184502  0.36101113  1
  B  B13  1  0.00000000  0.72815498  0.63898887  1
  B  B14  1  0.00000000  0.77184502  0.13898887  1
  B  B15  1  0.00000000  0.22815498  0.86101113  1
  O  O16  1  0.00000000  0.15158364  0.95913820  1
  O  O17  1  0.00000000  0.84841636  0.04086180  1
  O  O18  1  0.00000000  0.65158364  0.54086180  1
  O  O19  1  0.00000000  0.34841636  0.45913820  1
  O  O20  1  0.50000000  0.10954416  0.14351326  1
  O  O21  1  0.50000000  0.89045584  0.85648674  1
  O  O22  1  0.50000000  0.60954416  0.35648674  1
  O  O23  1  0.50000000  0.39045584  0.64351326  1
  O  O24  1  0.00000000  0.12313708  0.35963603  1
  O  O25  1  0.00000000  0.87686292  0.64036397  1
  O  O26  1  0.00000000  0.62313708  0.14036397  1
  O  O27  1  0.00000000  0.37686292  0.85963603  1
  O  O28  1  0.50000000  0.38071524  0.07815770  1
  O  O29  1  0.50000000  0.61928476  0.92184230  1
  O  O30  1  0.50000000  0.88071524  0.42184230  1
  O  O31  1  0.50000000  0.11928476  0.57815770  1
  O  O32  1  0.00000000  0.34666571  0.26206844  1
  O  O33  1  -0.00000000  0.65333429  0.73793156  1
  O  O34  1  0.00000000  0.84666571  0.23793156  1
  O  O35  1  0.00000000  0.15333429  0.76206844  1
