# generated using pymatgen
data_K2SeO4
_symmetry_space_group_name_H-M   'P 1'
_cell_length_a   5.96881945
_cell_length_b   7.61982623
_cell_length_c   10.41087262
_cell_angle_alpha   90.00000000
_cell_angle_beta   90.00000000
_cell_angle_gamma   90.00000000
_symmetry_Int_Tables_number   1
_chemical_formula_structural   K2SeO4
_chemical_formula_sum   'K8 Se4 O16'
_cell_volume   473.50071850
_cell_formula_units_Z   4
loop_
 _symmetry_equiv_pos_site_id
 _symmetry_equiv_pos_as_xyz
  1  'x, y, z'
loop_
 _atom_site_type_symbol
 _atom_site_label
 _atom_site_symmetry_multiplicity
 _atom_site_fract_x
 _atom_site_fract_y
 _atom_site_fract_z
 _atom_site_occupancy
  K  K0  1  0.25000000  0.00171586  0.29446555  1
  K  K1  1  0.75000000  0.99828414  0.70553445  1
  K  K2  1  0.25000000  0.50171586  0.20553445  1
  K  K3  1  0.75000000  0.49828414  0.79446555  1
  K  K4  1  0.25000000  0.83573404  0.91969382  1
  K  K5  1  0.75000000  0.16426596  0.08030618  1
  K  K6  1  0.25000000  0.33573404  0.58030618  1
  K  K7  1  0.75000000  0.66426596  0.41969382  1
  Se  Se8  1  0.25000000  0.77853896  0.58118884  1
  Se  Se9  1  0.75000000  0.22146104  0.41881116  1
  Se  Se10  1  0.25000000  0.27853896  0.91881116  1
  Se  Se11  1  0.75000000  0.72146104  0.08118884  1
  O  O12  1  0.25000000  0.99407264  0.57098511  1
  O  O13  1  0.75000000  0.00592736  0.42901489  1
  O  O14  1  0.25000000  0.49407264  0.92901489  1
  O  O15  1  0.75000000  0.50592736  0.07098511  1
  O  O16  1  0.25000000  0.68731452  0.43613344  1
  O  O17  1  0.75000000  0.31268548  0.56386656  1
  O  O18  1  0.25000000  0.18731452  0.06386656  1
  O  O19  1  0.75000000  0.81268548  0.93613344  1
  O  O20  1  0.52378946  0.28974088  0.34148011  1
  O  O21  1  0.02378946  0.71025912  0.65851989  1
  O  O22  1  0.97621054  0.78974088  0.15851989  1
  O  O23  1  0.47621054  0.21025912  0.84148011  1
  O  O24  1  0.52378946  0.78974088  0.15851989  1
  O  O25  1  0.02378946  0.21025912  0.84148011  1
  O  O26  1  0.97621054  0.28974088  0.34148011  1
  O  O27  1  0.47621054  0.71025912  0.65851989  1
