# generated using pymatgen
data_Nd3S3N
_symmetry_space_group_name_H-M   'P 1'
_cell_length_a   4.02356749
_cell_length_b   12.27877997
_cell_length_c   13.16208217
_cell_angle_alpha   90.00000000
_cell_angle_beta   90.00000000
_cell_angle_gamma   90.00000000
_symmetry_Int_Tables_number   1
_chemical_formula_structural   Nd3S3N
_chemical_formula_sum   'Nd12 S12 N4'
_cell_volume   650.26608731
_cell_formula_units_Z   4
loop_
 _symmetry_equiv_pos_site_id
 _symmetry_equiv_pos_as_xyz
  1  'x, y, z'
loop_
 _atom_site_type_symbol
 _atom_site_label
 _atom_site_symmetry_multiplicity
 _atom_site_fract_x
 _atom_site_fract_y
 _atom_site_fract_z
 _atom_site_occupancy
  Nd  Nd0  1  0.75000000  0.78052640  0.86546973  1
  Nd  Nd1  1  0.75000000  0.95719961  0.14817884  1
  Nd  Nd2  1  0.25000000  0.04280039  0.85182116  1
  Nd  Nd3  1  0.25000000  0.21947360  0.13453027  1
  Nd  Nd4  1  0.25000000  0.57926804  0.12852330  1
  Nd  Nd5  1  0.25000000  0.54280039  0.64817884  1
  Nd  Nd6  1  0.75000000  0.28052640  0.63453027  1
  Nd  Nd7  1  0.25000000  0.71947360  0.36546973  1
  Nd  Nd8  1  0.75000000  0.42073196  0.87147670  1
  Nd  Nd9  1  0.25000000  0.07926804  0.37147670  1
  Nd  Nd10  1  0.75000000  0.45719961  0.35182116  1
  Nd  Nd11  1  0.75000000  0.92073196  0.62852330  1
  S  S12  1  0.75000000  0.72836744  0.19611115  1
  S  S13  1  0.25000000  0.77163256  0.69611115  1
  S  S14  1  0.75000000  0.22836744  0.30388885  1
  S  S15  1  0.75000000  0.41518320  0.10602170  1
  S  S16  1  0.75000000  0.63698421  0.49493335  1
  S  S17  1  0.75000000  0.13698421  0.00506665  1
  S  S18  1  0.25000000  0.36301579  0.50506665  1
  S  S19  1  0.25000000  0.08481680  0.60602170  1
  S  S20  1  0.75000000  0.91518320  0.39397830  1
  S  S21  1  0.25000000  0.86301579  0.99493335  1
  S  S22  1  0.25000000  0.27163256  0.80388885  1
  S  S23  1  0.25000000  0.58481680  0.89397830  1
  N  N24  1  0.25000000  0.54375063  0.29790963  1
  N  N25  1  0.25000000  0.04375063  0.20209037  1
  N  N26  1  0.75000000  0.95624937  0.79790963  1
  N  N27  1  0.75000000  0.45624937  0.70209037  1
