# generated using pymatgen
data_Ho2Te5O13
_symmetry_space_group_name_H-M   'P 1'
_cell_length_a   6.93044245
_cell_length_b   8.63283291
_cell_length_c   10.55263560
_cell_angle_alpha   88.81224330
_cell_angle_beta   86.85377617
_cell_angle_gamma   74.90468080
_symmetry_Int_Tables_number   1
_chemical_formula_structural   Ho2Te5O13
_chemical_formula_sum   'Ho4 Te10 O26'
_cell_volume   608.63931355
_cell_formula_units_Z   2
loop_
 _symmetry_equiv_pos_site_id
 _symmetry_equiv_pos_as_xyz
  1  'x, y, z'
loop_
 _atom_site_type_symbol
 _atom_site_label
 _atom_site_symmetry_multiplicity
 _atom_site_fract_x
 _atom_site_fract_y
 _atom_site_fract_z
 _atom_site_occupancy
  Ho  Ho0  1  0.99854804  0.73866767  0.23807624  1
  Ho  Ho1  1  0.00145196  0.26133233  0.76192376  1
  Ho  Ho2  1  0.55214621  0.52820368  0.17925206  1
  Ho  Ho3  1  0.44785379  0.47179632  0.82074794  1
  Te  Te4  1  0.29234496  0.87857402  0.97334984  1
  Te  Te5  1  0.70765504  0.12142598  0.02665016  1
  Te  Te6  1  0.15492078  0.80409999  0.63953519  1
  Te  Te7  1  0.84507922  0.19590001  0.36046481  1
  Te  Te8  1  0.72734356  0.60435069  0.51547594  1
  Te  Te9  1  0.27265644  0.39564931  0.48452406  1
  Te  Te10  1  0.87643962  0.65025694  0.89370656  1
  Te  Te11  1  0.12356038  0.34974306  0.10629344  1
  Te  Te12  1  0.56347604  0.09779733  0.69754427  1
  Te  Te13  1  0.43652396  0.90220267  0.30245573  1
  O  O14  1  0.93919506  0.98463955  0.30569038  1
  O  O15  1  0.06080494  0.01536045  0.69430962  1
  O  O16  1  0.32910234  0.73980539  0.77187208  1
  O  O17  1  0.67089766  0.26019461  0.22812792  1
  O  O18  1  0.93804257  0.18120072  0.96442964  1
  O  O19  1  0.06195743  0.81879928  0.03557036  1
  O  O20  1  0.87567663  0.50873317  0.10394078  1
  O  O21  1  0.12432337  0.49126683  0.89605922  1
  O  O22  1  0.54190271  0.80497736  0.47968394  1
  O  O23  1  0.45809729  0.19502264  0.52031606  1
  O  O24  1  0.95511356  0.64919174  0.43492183  1
  O  O25  1  0.04488644  0.35080826  0.56507817  1
  O  O26  1  0.65458064  0.01941080  0.87499727  1
  O  O27  1  0.34541936  0.98058920  0.12500273  1
  O  O28  1  0.32940701  0.22483013  0.77711033  1
  O  O29  1  0.67059299  0.77516987  0.22288967  1
  O  O30  1  0.53340494  0.32789240  0.00174212  1
  O  O31  1  0.46659506  0.67210760  0.99825788  1
  O  O32  1  0.23403265  0.49700716  0.18434998  1
  O  O33  1  0.76596735  0.50299284  0.81565002  1
  O  O34  1  0.31387484  0.73446134  0.28904729  1
  O  O35  1  0.68612516  0.26553866  0.71095271  1
  O  O36  1  0.66548982  0.48625318  0.38294783  1
  O  O37  1  0.33451018  0.51374682  0.61705217  1
  O  O38  1  0.06231075  0.26963908  0.27814432  1
  O  O39  1  0.93768925  0.73036092  0.72185568  1
