# generated using pymatgen
data_La4Ti9O24
_symmetry_space_group_name_H-M   'P 1'
_cell_length_a   10.23584197
_cell_length_b   10.23584215
_cell_length_c   19.26780935
_cell_angle_alpha   104.80942723
_cell_angle_beta   104.80942749
_cell_angle_gamma   92.16090514
_symmetry_Int_Tables_number   1
_chemical_formula_structural   La4Ti9O24
_chemical_formula_sum   'La16 Ti36 O96'
_cell_volume   1875.34327649
_cell_formula_units_Z   4
loop_
 _symmetry_equiv_pos_site_id
 _symmetry_equiv_pos_as_xyz
  1  'x, y, z'
loop_
 _atom_site_type_symbol
 _atom_site_label
 _atom_site_symmetry_multiplicity
 _atom_site_fract_x
 _atom_site_fract_y
 _atom_site_fract_z
 _atom_site_occupancy
  La  La0  1  0.87151928  0.82401841  0.25587775  1
  La  La1  1  0.11564153  0.56814066  0.74412225  1
  La  La2  1  0.26761963  0.01761963  0.03523927  1
  La  La3  1  0.24317843  0.49317843  0.98635685  1
  La  La4  1  0.12848072  0.17598159  0.74412225  1
  La  La5  1  0.01761963  0.26761963  0.53523927  1
  La  La6  1  0.82401841  0.87151928  0.75587775  1
  La  La7  1  0.49317843  0.24317843  0.48635685  1
  La  La8  1  0.98238037  0.73238037  0.46476073  1
  La  La9  1  0.75682157  0.50682157  0.01364315  1
  La  La10  1  0.73238037  0.98238037  0.96476073  1
  La  La11  1  0.50682157  0.75682157  0.51364315  1
  La  La12  1  0.43185934  0.88435847  0.75587775  1
  La  La13  1  0.56814066  0.11564153  0.24412225  1
  La  La14  1  0.88435847  0.43185934  0.25587775  1
  La  La15  1  0.17598159  0.12848072  0.24412225  1
  Ti  Ti16  1  0.18327843  0.68748145  0.33145469  1
  Ti  Ti17  1  0.28598632  0.03964037  0.59128433  1
  Ti  Ti18  1  0.57193008  0.26158911  0.07512329  1
  Ti  Ti19  1  0.26158911  0.57193008  0.57512329  1
  Ti  Ti20  1  0.56964049  0.56227049  0.15935211  1
  Ti  Ti21  1  0.64817626  0.64397324  0.33145469  1
  Ti  Ti22  1  0.99680679  0.18646582  0.92487671  1
  Ti  Ti23  1  0.35182374  0.35602676  0.66854531  1
  Ti  Ti24  1  0.80529801  0.55164396  0.59128433  1
  Ti  Ti25  1  0.08971161  0.59708162  0.15935211  1
  Ti  Ti26  1  0.56227049  0.56964049  0.65935211  1
  Ti  Ti27  1  0.07994594  0.82994594  0.65989187  1
  Ti  Ti28  1  0.59708162  0.08971161  0.65935211  1
  Ti  Ti29  1  0.73841089  0.42806992  0.42487671  1
  Ti  Ti30  1  0.42806992  0.73841089  0.92487671  1
  Ti  Ti31  1  0.64397324  0.64817626  0.83145469  1
  Ti  Ti32  1  0.81672157  0.31251855  0.66854531  1
  Ti  Ti33  1  0.35602676  0.35182374  0.16854531  1
  Ti  Ti34  1  0.31251855  0.81672157  0.16854531  1
  Ti  Ti35  1  0.44835604  0.19470199  0.90871567  1
  Ti  Ti36  1  0.00319321  0.81353418  0.07512329  1
  Ti  Ti37  1  0.18646582  0.99680679  0.42487671  1
  Ti  Ti38  1  0.96035963  0.71401368  0.90871567  1
  Ti  Ti39  1  0.92005406  0.17005406  0.34010813  1
  Ti  Ti40  1  0.17005406  0.92005406  0.84010813  1
  Ti  Ti41  1  0.40291838  0.91028839  0.34064789  1
  Ti  Ti42  1  0.82994594  0.07994594  0.15989187  1
  Ti  Ti43  1  0.43035951  0.43772951  0.84064789  1
  Ti  Ti44  1  0.91028839  0.40291838  0.84064789  1
  Ti  Ti45  1  0.19470199  0.44835604  0.40871567  1
  Ti  Ti46  1  0.03964037  0.28598632  0.09128433  1
  Ti  Ti47  1  0.43772951  0.43035951  0.34064789  1
  Ti  Ti48  1  0.55164396  0.80529801  0.09128433  1
  Ti  Ti49  1  0.81353418  0.00319321  0.57512329  1
  Ti  Ti50  1  0.71401368  0.96035963  0.40871567  1
  Ti  Ti51  1  0.68748145  0.18327843  0.83145469  1
  O  O52  1  0.69629933  0.13319048  0.08625793  1
  O  O53  1  0.35511845  0.35319280  0.40137894  1
  O  O54  1  0.23043185  0.97180602  0.66817111  1
  O  O55  1  0.07448664  0.84063837  0.98931379  1
  O  O56  1  0.08155574  0.58339215  0.38055983  1
  O  O57  1  0.11022052  0.32284737  0.00802614  1
  O  O58  1  0.78772554  0.21227446  0.25000000  1
  O  O59  1  0.31291984  0.58885531  0.85623539  1
  O  O60  1  0.11004140  0.04693255  0.91374207  1
  O  O61  1  0.31482123  0.60219438  0.49197386  1
  O  O62  1  0.36413693  0.28123288  0.25361990  1
  O  O63  1  0.02761298  0.61051703  0.24638010  1
  O  O64  1  0.73261993  0.95668445  0.64376461  1
  O  O65  1  0.14867542  0.41482715  0.48931379  1
  O  O66  1  0.45450324  0.20343681  0.66454356  1
  O  O67  1  0.83117146  0.06787178  0.85984120  1
  O  O68  1  0.95668445  0.73261993  0.14376461  1
  O  O69  1  0.04818614  0.54626049  0.90137894  1
  O  O70  1  0.63586307  0.71876712  0.74638010  1
  O  O71  1  0.68708016  0.41114469  0.14376461  1
  O  O72  1  0.79656319  0.54549676  0.83545644  1
  O  O73  1  0.67715263  0.88977948  0.49197386  1
  O  O74  1  0.58885531  0.31291984  0.35623539  1
  O  O75  1  0.03772554  0.96227446  0.75000000  1
  O  O76  1  0.04331555  0.26738007  0.85623539  1
  O  O77  1  0.67140144  0.17279139  0.59560059  1
  O  O78  1  0.13319048  0.69629933  0.58625793  1
  O  O79  1  0.15936163  0.92551336  0.51068621  1
  O  O80  1  0.75145240  0.24854760  0.75000000  1
  O  O81  1  0.16882854  0.93212822  0.14015880  1
  O  O82  1  0.97238702  0.38948297  0.75361990  1
  O  O83  1  0.52866974  0.79196942  0.85984120  1
  O  O84  1  0.20099591  0.20283232  0.61944017  1
  O  O85  1  0.58339215  0.08155574  0.88055983  1
  O  O86  1  0.06787178  0.83117146  0.35984120  1
  O  O87  1  0.57719080  0.57580085  0.90439941  1
  O  O88  1  0.24854760  0.75145240  0.25000000  1
  O  O89  1  0.69636509  0.93773925  0.16817111  1
  O  O90  1  0.82720861  0.32859856  0.90439941  1
  O  O91  1  0.71004032  0.46110675  0.66454356  1
  O  O92  1  0.58517285  0.85132458  0.01068621  1
  O  O93  1  0.85132458  0.58517285  0.51068621  1
  O  O94  1  0.06226075  0.30363491  0.33182889  1
  O  O95  1  0.68517877  0.39780562  0.50802614  1
  O  O96  1  0.64680720  0.64488155  0.09862106  1
  O  O97  1  0.93773925  0.69636509  0.66817111  1
  O  O98  1  0.04693255  0.11004140  0.41374207  1
  O  O99  1  0.60219438  0.31482123  0.99197386  1
  O  O100  1  0.86680952  0.30370067  0.41374207  1
  O  O101  1  0.84063837  0.07448664  0.48931379  1
  O  O102  1  0.97180602  0.23043185  0.16817111  1
  O  O103  1  0.47133026  0.20803058  0.14015880  1
  O  O104  1  0.79900409  0.79716768  0.38055983  1
  O  O105  1  0.42280920  0.42419915  0.09560059  1
  O  O106  1  0.17279139  0.67140144  0.09560059  1
  O  O107  1  0.02819398  0.76956815  0.83182889  1
  O  O108  1  0.79716768  0.79900409  0.88055983  1
  O  O109  1  0.93212822  0.16882854  0.64015880  1
  O  O110  1  0.30363491  0.06226075  0.83182889  1
  O  O111  1  0.54626049  0.04818614  0.40137894  1
  O  O112  1  0.41114469  0.68708016  0.64376461  1
  O  O113  1  0.41482715  0.14867542  0.98931379  1
  O  O114  1  0.71876712  0.63586307  0.24638010  1
  O  O115  1  0.38948297  0.97238702  0.25361990  1
  O  O116  1  0.45373951  0.95181386  0.59862106  1
  O  O117  1  0.28995968  0.53889325  0.33545644  1
  O  O118  1  0.54549676  0.79656319  0.33545644  1
  O  O119  1  0.96227446  0.03772554  0.25000000  1
  O  O120  1  0.20803058  0.47133026  0.64015880  1
  O  O121  1  0.46110675  0.71004032  0.16454356  1
  O  O122  1  0.88995860  0.95306745  0.08625793  1
  O  O123  1  0.42419915  0.42280920  0.59560059  1
  O  O124  1  0.61051703  0.02761298  0.74638010  1
  O  O125  1  0.26738007  0.04331555  0.35623539  1
  O  O126  1  0.30370067  0.86680952  0.91374207  1
  O  O127  1  0.21227446  0.78772554  0.75000000  1
  O  O128  1  0.91844426  0.41660785  0.61944017  1
  O  O129  1  0.32859856  0.82720861  0.40439941  1
  O  O130  1  0.32284737  0.11022052  0.50802614  1
  O  O131  1  0.35319280  0.35511845  0.90137894  1
  O  O132  1  0.20343681  0.45450324  0.16454356  1
  O  O133  1  0.92551336  0.15936163  0.01068621  1
  O  O134  1  0.76956815  0.02819398  0.33182889  1
  O  O135  1  0.95306745  0.88995860  0.58625793  1
  O  O136  1  0.79196942  0.52866974  0.35984120  1
  O  O137  1  0.50145240  0.49854760  0.25000000  1
  O  O138  1  0.28123288  0.36413693  0.75361990  1
  O  O139  1  0.49854760  0.50145240  0.75000000  1
  O  O140  1  0.64488155  0.64680720  0.59862106  1
  O  O141  1  0.41660785  0.91844426  0.11944017  1
  O  O142  1  0.57580085  0.57719080  0.40439941  1
  O  O143  1  0.20283232  0.20099591  0.11944017  1
  O  O144  1  0.53889325  0.28995968  0.83545644  1
  O  O145  1  0.39780562  0.68517877  0.00802614  1
  O  O146  1  0.88977948  0.67715263  0.99197386  1
  O  O147  1  0.95181386  0.45373951  0.09862106  1
