# generated using pymatgen
data_GaF3
_symmetry_space_group_name_H-M   'P 1'
_cell_length_a   5.22554865
_cell_length_b   5.22554882
_cell_length_c   5.22554850
_cell_angle_alpha   55.99392440
_cell_angle_beta   55.99392480
_cell_angle_gamma   55.99393712
_symmetry_Int_Tables_number   1
_chemical_formula_structural   GaF3
_chemical_formula_sum   'Ga2 F6'
_cell_volume   91.53311636
_cell_formula_units_Z   2
loop_
 _symmetry_equiv_pos_site_id
 _symmetry_equiv_pos_as_xyz
  1  'x, y, z'
loop_
 _atom_site_type_symbol
 _atom_site_label
 _atom_site_symmetry_multiplicity
 _atom_site_fract_x
 _atom_site_fract_y
 _atom_site_fract_z
 _atom_site_occupancy
  Ga  Ga0  1  0.50000000  0.50000000  0.50000000  1
  Ga  Ga1  1  -0.00000000  0.00000000  0.00000000  1
  F  F2  1  0.25000000  0.62384664  0.87615336  1
  F  F3  1  0.62384664  0.87615336  0.25000000  1
  F  F4  1  0.12384664  0.75000000  0.37615336  1
  F  F5  1  0.37615336  0.12384664  0.75000000  1
  F  F6  1  0.75000000  0.37615336  0.12384664  1
  F  F7  1  0.87615336  0.25000000  0.62384664  1
