# generated using pymatgen
data_Lu2Te4O11
_symmetry_space_group_name_H-M   'P 1'
_cell_length_a   6.60619319
_cell_length_b   6.60619319
_cell_length_c   15.91314891
_cell_angle_alpha   75.40300150
_cell_angle_beta   75.40300150
_cell_angle_gamma   44.83043757
_symmetry_Int_Tables_number   1
_chemical_formula_structural   Lu2Te4O11
_chemical_formula_sum   'Lu4 Te8 O22'
_cell_volume   471.06965340
_cell_formula_units_Z   2
loop_
 _symmetry_equiv_pos_site_id
 _symmetry_equiv_pos_as_xyz
  1  'x, y, z'
loop_
 _atom_site_type_symbol
 _atom_site_label
 _atom_site_symmetry_multiplicity
 _atom_site_fract_x
 _atom_site_fract_y
 _atom_site_fract_z
 _atom_site_occupancy
  Lu  Lu0  1  0.63085196  0.13008725  0.03609534  1
  Lu  Lu1  1  0.86991275  0.36914804  0.46390466  1
  Lu  Lu2  1  0.36914804  0.86991275  0.96390466  1
  Lu  Lu3  1  0.13008725  0.63085196  0.53609534  1
  Te  Te4  1  0.59190156  0.15569018  0.37442433  1
  Te  Te5  1  0.84430982  0.40809844  0.12557567  1
  Te  Te6  1  0.40809844  0.84430982  0.62557567  1
  Te  Te7  1  0.15569018  0.59190156  0.87442433  1
  Te  Te8  1  0.15955627  0.59463383  0.19762827  1
  Te  Te9  1  0.40536617  0.84044373  0.30237173  1
  Te  Te10  1  0.84044373  0.40536617  0.80237173  1
  Te  Te11  1  0.59463383  0.15955627  0.69762827  1
  O  O12  1  0.68444313  0.80788078  0.37408961  1
  O  O13  1  0.19211922  0.31555687  0.12591039  1
  O  O14  1  0.31555687  0.19211922  0.62591039  1
  O  O15  1  0.80788078  0.68444313  0.87408961  1
  O  O16  1  0.24357665  0.34127337  0.44808977  1
  O  O17  1  0.65872663  0.75642335  0.05191023  1
  O  O18  1  0.75642335  0.65872663  0.55191023  1
  O  O19  1  0.34127337  0.24357665  0.94808977  1
  O  O20  1  0.82764725  0.03265601  0.45656546  1
  O  O21  1  0.96734399  0.17235275  0.04343454  1
  O  O22  1  0.17235275  0.96734399  0.54343454  1
  O  O23  1  0.03265601  0.82764725  0.95656546  1
  O  O24  1  0.44932594  0.59782321  0.40664769  1
  O  O25  1  0.40217679  0.55067406  0.09335231  1
  O  O26  1  0.55067406  0.40217679  0.59335231  1
  O  O27  1  0.59782321  0.44932594  0.90664769  1
  O  O28  1  0.08782486  0.20599951  0.33528024  1
  O  O29  1  0.79400049  0.91217514  0.16471976  1
  O  O30  1  0.91217514  0.79400049  0.66471976  1
  O  O31  1  0.20599951  0.08782486  0.83528024  1
  O  O32  1  0.15045184  0.84954816  0.25000000  1
  O  O33  1  0.84954816  0.15045184  0.75000000  1
