# generated using pymatgen
data_Na3Sb3(AsO7)2
_symmetry_space_group_name_H-M   'P 1'
_cell_length_a   7.27940198
_cell_length_b   6.46442379
_cell_length_c   12.53604156
_cell_angle_alpha   72.63528780
_cell_angle_beta   90.00000000
_cell_angle_gamma   90.00000000
_symmetry_Int_Tables_number   1
_chemical_formula_structural   Na3Sb3(AsO7)2
_chemical_formula_sum   'Na6 Sb6 As4 O28'
_cell_volume   563.02469503
_cell_formula_units_Z   2
loop_
 _symmetry_equiv_pos_site_id
 _symmetry_equiv_pos_as_xyz
  1  'x, y, z'
loop_
 _atom_site_type_symbol
 _atom_site_label
 _atom_site_symmetry_multiplicity
 _atom_site_fract_x
 _atom_site_fract_y
 _atom_site_fract_z
 _atom_site_occupancy
  Na  Na0  1  -0.00000000  0.00000000  -0.00000000  1
  Na  Na1  1  0.71170461  0.53787828  0.56721409  1
  Na  Na2  1  0.28829539  0.46212172  0.43278591  1
  Na  Na3  1  0.78829539  0.53787828  0.06721409  1
  Na  Na4  1  0.50000000  0.00000000  0.50000000  1
  Na  Na5  1  0.21170461  0.46212172  0.93278591  1
  Sb  Sb6  1  0.24033701  0.02276370  0.74717255  1
  Sb  Sb7  1  0.25966299  0.02276370  0.24717255  1
  Sb  Sb8  1  0.75966299  0.97723630  0.25282745  1
  Sb  Sb9  1  0.74033701  0.97723630  0.75282745  1
  Sb  Sb10  1  -0.00000000  0.00000000  0.50000000  1
  Sb  Sb11  1  0.50000000  0.00000000  -0.00000000  1
  As  As12  1  0.76495660  0.41580597  0.33940332  1
  As  As13  1  0.73504340  0.41580597  0.83940332  1
  As  As14  1  0.26495660  0.58419403  0.16059668  1
  As  As15  1  0.23504340  0.58419403  0.66059668  1
  O  O16  1  0.99362435  0.93269432  0.80247102  1
  O  O17  1  0.53134665  0.31709391  0.90691723  1
  O  O18  1  0.27443121  0.70535129  0.76235190  1
  O  O19  1  0.09513144  0.61124635  0.07027727  1
  O  O20  1  0.81134002  0.67057120  0.25566399  1
  O  O21  1  0.79652534  0.03387415  0.59443755  1
  O  O22  1  0.96865335  0.31709391  0.40691723  1
  O  O23  1  0.03134665  0.68290609  0.59308277  1
  O  O24  1  0.59513144  0.38875365  0.42972273  1
  O  O25  1  0.81118865  0.89903367  0.41537838  1
  O  O26  1  0.31134002  0.32942880  0.24433601  1
  O  O27  1  0.68865998  0.67057120  0.75566399  1
  O  O28  1  0.77443121  0.29464871  0.73764810  1
  O  O29  1  0.90486856  0.38875365  0.92972273  1
  O  O30  1  0.00637565  0.06730568  0.19752898  1
  O  O31  1  0.46865335  0.68290609  0.09308277  1
  O  O32  1  0.20347466  0.96612585  0.40556245  1
  O  O33  1  0.49362435  0.06730568  0.69752898  1
  O  O34  1  0.68881135  0.89903367  0.91537838  1
  O  O35  1  0.40486856  0.61124635  0.57027727  1
  O  O36  1  0.22556879  0.70535129  0.26235190  1
  O  O37  1  0.31118865  0.10096633  0.08462162  1
  O  O38  1  0.72556879  0.29464871  0.23764810  1
  O  O39  1  0.29652534  0.96612585  0.90556245  1
  O  O40  1  0.50637565  0.93269432  0.30247102  1
  O  O41  1  0.70347466  0.03387415  0.09443755  1
  O  O42  1  0.18881135  0.10096633  0.58462162  1
  O  O43  1  0.18865998  0.32942880  0.74433601  1
