# generated using pymatgen
data_Ca5V3O12F
_symmetry_space_group_name_H-M   'P 1'
_cell_length_a   7.02209091
_cell_length_b   9.62315870
_cell_length_c   9.68770145
_cell_angle_alpha   119.81720825
_cell_angle_beta   91.05876977
_cell_angle_gamma   90.48032320
_symmetry_Int_Tables_number   1
_chemical_formula_structural   Ca5V3O12F
_chemical_formula_sum   'Ca10 V6 O24 F2'
_cell_volume   567.76577041
_cell_formula_units_Z   2
loop_
 _symmetry_equiv_pos_site_id
 _symmetry_equiv_pos_as_xyz
  1  'x, y, z'
loop_
 _atom_site_type_symbol
 _atom_site_label
 _atom_site_symmetry_multiplicity
 _atom_site_fract_x
 _atom_site_fract_y
 _atom_site_fract_z
 _atom_site_occupancy
  Ca  Ca0  1  0.76180447  0.76480906  -0.00447242  1
  Ca  Ca1  1  0.99701859  0.33933569  0.69490556  1
  Ca  Ca2  1  0.25048708  0.76000995  0.75593033  1
  Ca  Ca3  1  0.50132236  0.33953476  0.65262036  1
  Ca  Ca4  1  0.74951292  0.23999005  0.24406967  1
  Ca  Ca5  1  0.23819553  0.23519094  0.00447242  1
  Ca  Ca6  1  0.26229171  -0.00418440  0.24319903  1
  Ca  Ca7  1  0.49867764  0.66046524  0.34737964  1
  Ca  Ca8  1  0.00298141  0.66066431  0.30509444  1
  Ca  Ca9  1  0.73770829  0.00418440  0.75680097  1
  V  V10  1  0.76196205  0.97655319  0.36749364  1
  V  V11  1  0.27178982  0.60229645  0.97315021  1
  V  V12  1  0.75924884  0.63095957  0.60467424  1
  V  V13  1  0.72821018  0.39770355  0.02684979  1
  V  V14  1  0.24075116  0.36904043  0.39532576  1
  V  V15  1  0.23803795  0.02344681  0.63250636  1
  O  O16  1  0.72420428  0.87593215  0.47134039  1
  O  O17  1  0.95963720  0.89539437  0.25479322  1
  O  O18  1  0.21055830  0.47077083  0.59944829  1
  O  O19  1  0.55149616  0.33104397  0.09978898  1
  O  O20  1  0.27515342  0.39509918  0.87513074  1
  O  O21  1  0.22077954  0.81969460  0.51280864  1
  O  O22  1  0.45211299  0.27231041  0.36760792  1
  O  O23  1  0.41441401  0.06090341  0.77033604  1
  O  O24  1  0.28106761  0.69502532  0.17752526  1
  O  O25  1  0.54788701  0.72768959  0.63239208  1
  O  O26  1  0.27579572  0.12406785  0.52865961  1
  O  O27  1  0.24470285  0.48665130  0.30877939  1
  O  O28  1  0.71893239  0.30497468  0.82247474  1
  O  O29  1  0.72484658  0.60490082  0.12486926  1
  O  O30  1  0.92655272  0.77878358  0.70394723  1
  O  O31  1  0.78944170  0.52922917  0.40055171  1
  O  O32  1  0.06406271  0.65092684  0.91544652  1
  O  O33  1  0.07344728  0.22121642  0.29605277  1
  O  O34  1  0.58558599  0.93909659  0.22966396  1
  O  O35  1  0.75529715  0.51334870  0.69122061  1
  O  O36  1  0.04036280  0.10460563  0.74520678  1
  O  O37  1  0.93593729  0.34907316  0.08455348  1
  O  O38  1  0.77922046  0.18030540  0.48719136  1
  O  O39  1  0.44850384  0.66895603  0.90021102  1
  F  F40  1  0.24693209  0.99150191  0.00188907  1
  F  F41  1  0.75306791  0.00849809  0.99811093  1
