# generated using pymatgen
data_Gd(IO3)3
_symmetry_space_group_name_H-M   'P 1'
_cell_length_a   7.12532763
_cell_length_b   8.45966494
_cell_length_c   13.35108438
_cell_angle_alpha   90.00000000
_cell_angle_beta   99.95394505
_cell_angle_gamma   90.00000000
_symmetry_Int_Tables_number   1
_chemical_formula_structural   Gd(IO3)3
_chemical_formula_sum   'Gd4 I12 O36'
_cell_volume   792.66085182
_cell_formula_units_Z   4
loop_
 _symmetry_equiv_pos_site_id
 _symmetry_equiv_pos_as_xyz
  1  'x, y, z'
loop_
 _atom_site_type_symbol
 _atom_site_label
 _atom_site_symmetry_multiplicity
 _atom_site_fract_x
 _atom_site_fract_y
 _atom_site_fract_z
 _atom_site_occupancy
  Gd  Gd0  1  0.17533980  0.24265687  0.64469732  1
  Gd  Gd1  1  0.82466020  0.74265687  0.85530268  1
  Gd  Gd2  1  0.17533980  0.25734313  0.14469732  1
  Gd  Gd3  1  0.82466020  0.75734313  0.35530268  1
  I  I4  1  0.27069516  0.01842926  0.38978669  1
  I  I5  1  0.83073908  0.21005994  0.88691963  1
  I  I6  1  0.16926092  0.71005994  0.61308037  1
  I  I7  1  0.32963031  0.95925088  0.85967351  1
  I  I8  1  0.27069516  0.48157074  0.88978669  1
  I  I9  1  0.72930484  0.51842926  0.11021331  1
  I  I10  1  0.16926092  0.78994006  0.11308037  1
  I  I11  1  0.83073908  0.28994006  0.38691963  1
  I  I12  1  0.32963031  0.54074912  0.35967351  1
  I  I13  1  0.67036969  0.04074912  0.14032649  1
  I  I14  1  0.72930484  0.98157074  0.61021331  1
  I  I15  1  0.67036969  0.45925088  0.64032649  1
  O  O16  1  0.34363227  0.47169560  0.23216130  1
  O  O17  1  0.14709846  0.69189653  0.32486824  1
  O  O18  1  0.03122345  0.33078581  0.48645874  1
  O  O19  1  0.36396100  0.83535803  0.04641622  1
  O  O20  1  0.83993441  0.02794155  0.81565919  1
  O  O21  1  0.01992766  0.97776115  0.38608462  1
  O  O22  1  0.76287006  0.78981162  0.67420040  1
  O  O23  1  0.23712994  0.21018838  0.32579960  1
  O  O24  1  0.32227299  0.42638246  0.02237158  1
  O  O25  1  0.03122345  0.16921419  0.98645874  1
  O  O26  1  0.01992766  0.52223885  0.88608462  1
  O  O27  1  0.96877655  0.66921419  0.51354126  1
  O  O28  1  0.65636773  0.97169560  0.26783870  1
  O  O29  1  0.98007234  0.02223885  0.61391538  1
  O  O30  1  0.47193292  0.17321621  0.13161642  1
  O  O31  1  0.32227299  0.07361754  0.52237158  1
  O  O32  1  0.65636773  0.52830440  0.76783870  1
  O  O33  1  0.63603900  0.16464197  0.95358378  1
  O  O34  1  0.23712994  0.28981162  0.82579960  1
  O  O35  1  0.85290254  0.19189653  0.17513176  1
  O  O36  1  0.96877655  0.83078581  0.01354126  1
  O  O37  1  0.98007234  0.47776115  0.11391538  1
  O  O38  1  0.52806708  0.82678379  0.86838358  1
  O  O39  1  0.47193292  0.32678379  0.63161642  1
  O  O40  1  0.52806708  0.67321621  0.36838358  1
  O  O41  1  0.63603900  0.33535803  0.45358378  1
  O  O42  1  0.85290254  0.30810347  0.67513176  1
  O  O43  1  0.36396100  0.66464197  0.54641622  1
  O  O44  1  0.34363227  0.02830440  0.73216130  1
  O  O45  1  0.83993441  0.47205845  0.31565919  1
  O  O46  1  0.67772701  0.57361754  0.97762842  1
  O  O47  1  0.14709846  0.80810347  0.82486824  1
  O  O48  1  0.67772701  0.92638246  0.47762842  1
  O  O49  1  0.16006559  0.97205845  0.18434081  1
  O  O50  1  0.16006559  0.52794155  0.68434081  1
  O  O51  1  0.76287006  0.71018838  0.17420040  1
