# generated using pymatgen
data_GaBiO3
_symmetry_space_group_name_H-M   'P 1'
_cell_length_a   5.15381992
_cell_length_b   5.43275855
_cell_length_c   9.93184812
_cell_angle_alpha   90.00000000
_cell_angle_beta   90.00000000
_cell_angle_gamma   90.00000000
_symmetry_Int_Tables_number   1
_chemical_formula_structural   GaBiO3
_chemical_formula_sum   'Ga4 Bi4 O12'
_cell_volume   278.08637657
_cell_formula_units_Z   4
loop_
 _symmetry_equiv_pos_site_id
 _symmetry_equiv_pos_as_xyz
  1  'x, y, z'
loop_
 _atom_site_type_symbol
 _atom_site_label
 _atom_site_symmetry_multiplicity
 _atom_site_fract_x
 _atom_site_fract_y
 _atom_site_fract_z
 _atom_site_occupancy
  Ga  Ga0  1  0.50000000  0.75000000  0.35802599  1
  Ga  Ga1  1  0.50000000  0.75000000  0.85802599  1
  Ga  Ga2  1  0.50000000  0.25000000  0.14197401  1
  Ga  Ga3  1  0.50000000  0.25000000  0.64197401  1
  Bi  Bi4  1  -0.00000000  0.25000000  0.88778566  1
  Bi  Bi5  1  -0.00000000  0.75000000  0.11221434  1
  Bi  Bi6  1  -0.00000000  0.25000000  0.38778566  1
  Bi  Bi7  1  -0.00000000  0.75000000  0.61221434  1
  O  O8  1  0.76932046  0.09542805  0.05255753  1
  O  O9  1  0.23067954  0.90457195  0.94744247  1
  O  O10  1  0.23067954  0.59542805  0.44744247  1
  O  O11  1  0.76932046  0.40457195  0.55255753  1
  O  O12  1  0.76932046  0.90457195  0.44744247  1
  O  O13  1  0.35867187  0.00000000  0.25000000  1
  O  O14  1  0.35867187  0.50000000  0.75000000  1
  O  O15  1  0.76932046  0.59542805  0.94744247  1
  O  O16  1  0.23067954  0.40457195  0.05255753  1
  O  O17  1  0.64132813  0.50000000  0.25000000  1
  O  O18  1  0.23067954  0.09542805  0.55255753  1
  O  O19  1  0.64132813  0.00000000  0.75000000  1
