# generated using pymatgen
data_MoF6
_symmetry_space_group_name_H-M   'P 1'
_cell_length_a   4.89564225
_cell_length_b   8.53560957
_cell_length_c   9.36766006
_cell_angle_alpha   90.00000000
_cell_angle_beta   90.00000000
_cell_angle_gamma   90.00000000
_symmetry_Int_Tables_number   1
_chemical_formula_structural   MoF6
_chemical_formula_sum   'Mo4 F24'
_cell_volume   391.44913542
_cell_formula_units_Z   4
loop_
 _symmetry_equiv_pos_site_id
 _symmetry_equiv_pos_as_xyz
  1  'x, y, z'
loop_
 _atom_site_type_symbol
 _atom_site_label
 _atom_site_symmetry_multiplicity
 _atom_site_fract_x
 _atom_site_fract_y
 _atom_site_fract_z
 _atom_site_occupancy
  Mo  Mo0  1  0.06969538  0.25000000  0.12831032  1
  Mo  Mo1  1  0.56969538  0.75000000  0.37168968  1
  Mo  Mo2  1  0.93030462  0.75000000  0.87168968  1
  Mo  Mo3  1  0.43030462  0.25000000  0.62831032  1
  F  F4  1  0.22611909  0.75000000  0.99179130  1
  F  F5  1  0.40761184  0.90224603  0.26282407  1
  F  F6  1  0.09238816  0.59775397  0.76282407  1
  F  F7  1  0.27388091  0.75000000  0.49179130  1
  F  F8  1  0.63384079  0.75000000  0.75137950  1
  F  F9  1  0.90761184  0.40224603  0.23717593  1
  F  F10  1  0.13384079  0.25000000  0.74862050  1
  F  F11  1  0.40761184  0.59775397  0.26282407  1
  F  F12  1  0.86615921  0.75000000  0.25137950  1
  F  F13  1  0.26607488  0.09848357  0.51911283  1
  F  F14  1  0.59238816  0.40224603  0.73717593  1
  F  F15  1  0.73392512  0.90151643  0.48088717  1
  F  F16  1  0.36615921  0.25000000  0.24862050  1
  F  F17  1  0.09238816  0.90224603  0.76282407  1
  F  F18  1  0.26607488  0.40151643  0.51911283  1
  F  F19  1  0.23392512  0.09848357  0.01911283  1
  F  F20  1  0.72611909  0.25000000  0.50820870  1
  F  F21  1  0.77388091  0.25000000  0.00820870  1
  F  F22  1  0.90761184  0.09775397  0.23717593  1
  F  F23  1  0.23392512  0.40151643  0.01911283  1
  F  F24  1  0.76607488  0.59848357  0.98088717  1
  F  F25  1  0.76607488  0.90151643  0.98088717  1
  F  F26  1  0.73392512  0.59848357  0.48088717  1
  F  F27  1  0.59238816  0.09775397  0.73717593  1
