# generated using pymatgen
data_K3AlP2
_symmetry_space_group_name_H-M   'P 1'
_cell_length_a   8.85534384
_cell_length_b   11.85032972
_cell_length_c   15.22706502
_cell_angle_alpha   72.60806426
_cell_angle_beta   73.35656621
_cell_angle_gamma   71.69889717
_symmetry_Int_Tables_number   1
_chemical_formula_structural   K3AlP2
_chemical_formula_sum   'K24 Al8 P16'
_cell_volume   1414.65450723
_cell_formula_units_Z   8
loop_
 _symmetry_equiv_pos_site_id
 _symmetry_equiv_pos_as_xyz
  1  'x, y, z'
loop_
 _atom_site_type_symbol
 _atom_site_label
 _atom_site_symmetry_multiplicity
 _atom_site_fract_x
 _atom_site_fract_y
 _atom_site_fract_z
 _atom_site_occupancy
  K  K0  1  0.34527514  0.91513126  0.69312131  1
  K  K1  1  0.65472486  0.08486874  0.30687869  1
  K  K2  1  0.81856088  0.39863994  0.69220812  1
  K  K3  1  0.18143912  0.60136006  0.30779188  1
  K  K4  1  0.81258476  0.76350200  0.68104452  1
  K  K5  1  0.18741524  0.23649800  0.31895548  1
  K  K6  1  0.22363142  0.74709078  0.61915097  1
  K  K7  1  0.77636858  0.25290922  0.38084903  1
  K  K8  1  0.15977749  0.42018559  0.75700875  1
  K  K9  1  0.84022251  0.57981441  0.24299125  1
  K  K10  1  0.98119125  0.10795719  0.58433814  1
  K  K11  1  0.01880875  0.89204281  0.41566186  1
  K  K12  1  0.53248411  0.08181812  0.74443960  1
  K  K13  1  0.46751589  0.91818188  0.25556040  1
  K  K14  1  0.48734272  0.57463814  0.83866583  1
  K  K15  1  0.51265728  0.42536186  0.16133417  1
  K  K16  1  0.03183462  0.09726869  0.84780633  1
  K  K17  1  0.96816538  0.90273131  0.15219367  1
  K  K18  1  0.50790070  0.37661989  0.58331448  1
  K  K19  1  0.49209930  0.62338011  0.41668552  1
  K  K20  1  0.31874160  0.08403077  0.02504349  1
  K  K21  1  0.68125840  0.91596923  0.97495651  1
  K  K22  1  0.82348589  0.62000389  0.97833790  1
  K  K23  1  0.17651411  0.37999611  0.02166210  1
  Al  Al24  1  0.15450253  0.38752880  0.50951427  1
  Al  Al25  1  0.84549747  0.61247120  0.49048573  1
  Al  Al26  1  0.40576720  0.14132798  0.50884062  1
  Al  Al27  1  0.59423280  0.85867202  0.49115938  1
  Al  Al28  1  0.15210786  0.77819963  0.92654040  1
  Al  Al29  1  0.84789214  0.22180037  0.07345960  1
  Al  Al30  1  0.63920392  0.26625750  0.94584668  1
  Al  Al31  1  0.36079608  0.73374250  0.05415332  1
  P  P32  1  0.21733707  0.21827082  0.64095932  1
  P  P33  1  0.78266293  0.78172918  0.35904068  1
  P  P34  1  0.33008735  0.98559738  0.46232977  1
  P  P35  1  0.66991265  0.01440262  0.53767023  1
  P  P36  1  0.59543907  0.66421520  0.60442597  1
  P  P37  1  0.40456093  0.33578480  0.39557403  1
  P  P38  1  0.09533899  0.58769218  0.54025699  1
  P  P39  1  0.90466101  0.41230782  0.45974301  1
  P  P40  1  0.99937627  0.82396706  0.81950281  1
  P  P41  1  0.00062373  0.17603294  0.18049719  1
  P  P42  1  0.48515617  0.29373209  0.84410834  1
  P  P43  1  0.51484383  0.70626791  0.15589166  1
  P  P44  1  0.84032624  0.36624610  0.92982862  1
  P  P45  1  0.15967376  0.63375390  0.07017138  1
  P  P46  1  0.36128187  0.87160826  0.90968672  1
  P  P47  1  0.63871813  0.12839174  0.09031328  1
