# generated using pymatgen
data_Cs7Co4F15
_symmetry_space_group_name_H-M   'P 1'
_cell_length_a   10.91588859
_cell_length_b   7.88086023
_cell_length_c   11.55044895
_cell_angle_alpha   87.42509440
_cell_angle_beta   90.00000000
_cell_angle_gamma   90.00000000
_symmetry_Int_Tables_number   1
_chemical_formula_structural   Cs7Co4F15
_chemical_formula_sum   'Cs14 Co8 F30'
_cell_volume   992.64252007
_cell_formula_units_Z   2
loop_
 _symmetry_equiv_pos_site_id
 _symmetry_equiv_pos_as_xyz
  1  'x, y, z'
loop_
 _atom_site_type_symbol
 _atom_site_label
 _atom_site_symmetry_multiplicity
 _atom_site_fract_x
 _atom_site_fract_y
 _atom_site_fract_z
 _atom_site_occupancy
  Cs  Cs0  1  0.65445254  0.83831707  0.80351277  1
  Cs  Cs1  1  0.99723444  0.67177715  0.66577621  1
  Cs  Cs2  1  0.81906439  0.50197413  0.02830414  1
  Cs  Cs3  1  0.49723444  0.32822285  0.83422379  1
  Cs  Cs4  1  0.50276556  0.67177715  0.16577621  1
  Cs  Cs5  1  0.50000000  -0.00000000  0.50000000  1
  Cs  Cs6  1  0.15445254  0.16168293  0.69648723  1
  Cs  Cs7  1  0.84554746  0.83831707  0.30351277  1
  Cs  Cs8  1  0.00276556  0.32822285  0.33422379  1
  Cs  Cs9  1  0.34554746  0.16168293  0.19648723  1
  Cs  Cs10  1  0.68093561  0.50197413  0.52830414  1
  Cs  Cs11  1  0.31906439  0.49802587  0.47169586  1
  Cs  Cs12  1  0.00000000  -0.00000000  -0.00000000  1
  Cs  Cs13  1  0.18093561  0.49802587  0.97169586  1
  Co  Co14  1  0.17080187  0.73924870  0.23036140  1
  Co  Co15  1  0.83705970  0.07645822  0.57012426  1
  Co  Co16  1  0.66294030  0.07645822  0.07012426  1
  Co  Co17  1  0.32919813  0.73924870  0.73036140  1
  Co  Co18  1  0.67080187  0.26075130  0.26963860  1
  Co  Co19  1  0.82919813  0.26075130  0.76963860  1
  Co  Co20  1  0.16294030  0.92354178  0.42987574  1
  Co  Co21  1  0.33705970  0.92354178  0.92987574  1
  F  F22  1  0.09052413  0.68801820  0.39573898  1
  F  F23  1  0.40947587  0.68801820  0.89573898  1
  F  F24  1  0.24815930  0.51251605  0.22131174  1
  F  F25  1  0.97467881  0.33124882  0.85737412  1
  F  F26  1  0.23701158  0.82958862  0.58156003  1
  F  F27  1  0.25184070  0.51251605  0.72131174  1
  F  F28  1  0.74815930  0.48748395  0.27868826  1
  F  F29  1  0.73701158  0.17041138  0.91843997  1
  F  F30  1  0.18867560  0.82622003  0.83461369  1
  F  F31  1  0.75184070  0.48748395  0.77868826  1
  F  F32  1  0.59052413  0.31198180  0.10426102  1
  F  F33  1  0.90947587  0.31198180  0.60426102  1
  F  F34  1  0.47467881  0.66875118  0.64262588  1
  F  F35  1  0.31132440  0.82622003  0.33461369  1
  F  F36  1  0.26238170  0.14888880  0.94228790  1
  F  F37  1  0.81132440  0.17377997  0.16538631  1
  F  F38  1  0.60042565  0.02109104  0.24097921  1
  F  F39  1  0.52532119  0.33124882  0.35737412  1
  F  F40  1  0.73761830  0.85111120  0.05771210  1
  F  F41  1  0.76238170  0.85111120  0.55771210  1
  F  F42  1  0.68867560  0.17377997  0.66538631  1
  F  F43  1  0.02532119  0.66875118  0.14262588  1
  F  F44  1  0.10042565  0.97890896  0.25902079  1
  F  F45  1  0.23761830  0.14888880  0.44228790  1
  F  F46  1  0.76298842  0.17041138  0.41843997  1
  F  F47  1  0.39957435  0.97890896  0.75902079  1
  F  F48  1  0.26298842  0.82958862  0.08156003  1
  F  F49  1  0.00000000  -0.00000000  0.50000000  1
  F  F50  1  0.89957435  0.02109104  0.74097921  1
  F  F51  1  0.50000000  -0.00000000  -0.00000000  1
