# generated using pymatgen
data_CdI2
_symmetry_space_group_name_H-M   'P 1'
_cell_length_a   4.28414694
_cell_length_b   4.28414524
_cell_length_c   66.00603802
_cell_angle_alpha   90.00000000
_cell_angle_beta   90.00000000
_cell_angle_gamma   119.99999810
_symmetry_Int_Tables_number   1
_chemical_formula_structural   CdI2
_chemical_formula_sum   'Cd9 I18'
_cell_volume   1049.16271760
_cell_formula_units_Z   9
loop_
 _symmetry_equiv_pos_site_id
 _symmetry_equiv_pos_as_xyz
  1  'x, y, z'
loop_
 _atom_site_type_symbol
 _atom_site_label
 _atom_site_symmetry_multiplicity
 _atom_site_fract_x
 _atom_site_fract_y
 _atom_site_fract_z
 _atom_site_occupancy
  Cd  Cd0  1  0.33333300  0.66666700  0.36103089  1
  Cd  Cd1  1  -0.00000000  0.00000000  0.47221583  1
  Cd  Cd2  1  0.33333300  0.66666700  0.13887263  1
  Cd  Cd3  1  0.33333300  0.66666700  0.80561730  1
  Cd  Cd4  1  -0.00000000  0.00000000  0.69442708  1
  Cd  Cd5  1  0.66666700  0.33333300  0.02781603  1
  Cd  Cd6  1  0.33333300  0.66666700  0.91672297  1
  Cd  Cd7  1  0.33333300  0.66666700  0.58332007  1
  Cd  Cd8  1  0.66666700  0.33333300  0.24998133  1
  I  I9  1  -0.00000000  0.00000000  0.22412996  1
  I  I10  1  0.33333300  0.66666700  0.66856587  1
  I  I11  1  0.66666700  0.33333300  0.72029162  1
  I  I12  1  0.33333300  0.66666700  0.27586050  1
  I  I13  1  -0.00000000  0.00000000  0.77973257  1
  I  I14  1  -0.00000000  0.00000000  0.11299203  1
  I  I15  1  0.66666700  0.33333300  0.83146729  1
  I  I16  1  0.33333300  0.66666700  0.05366192  1
  I  I17  1  0.66666700  0.33333300  0.49809942  1
  I  I18  1  0.66666700  0.33333300  0.60920078  1
  I  I19  1  -0.00000000  0.00000000  0.00193395  1
  I  I20  1  0.33333300  0.66666700  0.44635871  1
  I  I21  1  -0.00000000  0.00000000  0.55746760  1
  I  I22  1  0.66666700  0.33333300  0.38692663  1
  I  I23  1  0.66666700  0.33333300  0.94256743  1
  I  I24  1  -0.00000000  0.00000000  0.33518681  1
  I  I25  1  0.66666700  0.33333300  0.16471973  1
  I  I26  1  -0.00000000  0.00000000  0.89083106  1
