# generated using pymatgen
data_Mn3(PO4)2
_symmetry_space_group_name_H-M   'P 1'
_cell_length_a   6.65548072
_cell_length_b   5.24218584
_cell_length_c   9.94230422
_cell_angle_alpha   63.62628285
_cell_angle_beta   90.00000000
_cell_angle_gamma   90.00000000
_symmetry_Int_Tables_number   1
_chemical_formula_structural   Mn3(PO4)2
_chemical_formula_sum   'Mn6 P4 O16'
_cell_volume   310.77494925
_cell_formula_units_Z   2
loop_
 _symmetry_equiv_pos_site_id
 _symmetry_equiv_pos_as_xyz
  1  'x, y, z'
loop_
 _atom_site_type_symbol
 _atom_site_label
 _atom_site_symmetry_multiplicity
 _atom_site_fract_x
 _atom_site_fract_y
 _atom_site_fract_z
 _atom_site_occupancy
  Mn  Mn0  1  0.65664600  0.78375439  0.12657935  1
  Mn  Mn1  1  0.34335400  0.21624561  0.87342065  1
  Mn  Mn2  1  0.84335400  0.78375439  0.62657935  1
  Mn  Mn3  1  0.50000000  0.50000000  0.50000000  1
  Mn  Mn4  1  0.15664600  0.21624561  0.37342065  1
  Mn  Mn5  1  -0.00000000  0.50000000  -0.00000000  1
  P  P6  1  0.83417533  0.15642045  0.80638878  1
  P  P7  1  0.66582467  0.15642045  0.30638878  1
  P  P8  1  0.16582467  0.84357955  0.19361122  1
  P  P9  1  0.33417533  0.84357955  0.69361122  1
  O  O10  1  0.87263104  0.85736777  0.81695517  1
  O  O11  1  0.62736896  0.85736777  0.31695517  1
  O  O12  1  0.48412000  0.26332065  0.36267740  1
  O  O13  1  0.29197755  0.63158723  0.85740350  1
  O  O14  1  0.70802245  0.36841277  0.14259650  1
  O  O15  1  0.34380084  0.86785397  0.08937984  1
  O  O16  1  0.12736896  0.14263223  0.18304483  1
  O  O17  1  0.37263104  0.14263223  0.68304483  1
  O  O18  1  0.65619916  0.13214603  0.91062016  1
  O  O19  1  0.20802245  0.63158723  0.35740350  1
  O  O20  1  0.79197755  0.36841277  0.64259650  1
  O  O21  1  0.51588000  0.73667935  0.63732260  1
  O  O22  1  0.01588000  0.26332065  0.86267740  1
  O  O23  1  0.98412000  0.73667935  0.13732260  1
  O  O24  1  0.84380084  0.13214603  0.41062016  1
  O  O25  1  0.15619916  0.86785397  0.58937984  1
