# generated using pymatgen
data_Mo6PbCl14
_symmetry_space_group_name_H-M   'P 1'
_cell_length_a   13.12403183
_cell_length_b   13.12403183
_cell_length_c   13.12403183
_cell_angle_alpha   90.00000000
_cell_angle_beta   90.00000000
_cell_angle_gamma   90.00000000
_symmetry_Int_Tables_number   1
_chemical_formula_structural   Mo6PbCl14
_chemical_formula_sum   'Mo24 Pb4 Cl56'
_cell_volume   2260.48601780
_cell_formula_units_Z   4
loop_
 _symmetry_equiv_pos_site_id
 _symmetry_equiv_pos_as_xyz
  1  'x, y, z'
loop_
 _atom_site_type_symbol
 _atom_site_label
 _atom_site_symmetry_multiplicity
 _atom_site_fract_x
 _atom_site_fract_y
 _atom_site_fract_z
 _atom_site_occupancy
  Mo  Mo0  1  0.78535105  0.11743362  0.27779161  1
  Mo  Mo1  1  0.27779161  0.78535105  0.11743362  1
  Mo  Mo2  1  0.61743362  0.22220839  0.28535105  1
  Mo  Mo3  1  0.11743362  0.72220839  0.21464895  1
  Mo  Mo4  1  0.72220839  0.21464895  0.11743362  1
  Mo  Mo5  1  0.88256638  0.72220839  0.78535105  1
  Mo  Mo6  1  0.38256638  0.22220839  0.71464895  1
  Mo  Mo7  1  0.22220839  0.28535105  0.61743362  1
  Mo  Mo8  1  0.72220839  0.78535105  0.88256638  1
  Mo  Mo9  1  0.78535105  0.88256638  0.72220839  1
  Mo  Mo10  1  0.61743362  0.77779161  0.71464895  1
  Mo  Mo11  1  0.77779161  0.71464895  0.61743362  1
  Mo  Mo12  1  0.71464895  0.38256638  0.22220839  1
  Mo  Mo13  1  0.88256638  0.27779161  0.21464895  1
  Mo  Mo14  1  0.77779161  0.28535105  0.38256638  1
  Mo  Mo15  1  0.28535105  0.61743362  0.22220839  1
  Mo  Mo16  1  0.71464895  0.61743362  0.77779161  1
  Mo  Mo17  1  0.22220839  0.71464895  0.38256638  1
  Mo  Mo18  1  0.27779161  0.21464895  0.88256638  1
  Mo  Mo19  1  0.11743362  0.27779161  0.78535105  1
  Mo  Mo20  1  0.28535105  0.38256638  0.77779161  1
  Mo  Mo21  1  0.38256638  0.77779161  0.28535105  1
  Mo  Mo22  1  0.21464895  0.88256638  0.27779161  1
  Mo  Mo23  1  0.21464895  0.11743362  0.72220839  1
  Pb  Pb24  1  0.75000000  0.75000000  0.25000000  1
  Pb  Pb25  1  0.25000000  0.25000000  0.25000000  1
  Pb  Pb26  1  0.25000000  0.75000000  0.75000000  1
  Pb  Pb27  1  0.75000000  0.25000000  0.75000000  1
  Cl  Cl28  1  0.94130842  0.68170762  0.16306596  1
  Cl  Cl29  1  0.93622628  0.81562897  0.62980386  1
  Cl  Cl30  1  0.18437103  0.62980386  0.06377372  1
  Cl  Cl31  1  0.56377372  0.31562897  0.12980386  1
  Cl  Cl32  1  0.18170762  0.66306596  0.55869158  1
  Cl  Cl33  1  0.83693404  0.94130842  0.31829238  1
  Cl  Cl34  1  0.06377372  0.18437103  0.62980386  1
  Cl  Cl35  1  0.55869158  0.81829238  0.33693404  1
  Cl  Cl36  1  0.31829238  0.83693404  0.94130842  1
  Cl  Cl37  1  0.68437103  0.87019614  0.56377372  1
  Cl  Cl38  1  0.44130842  0.81829238  0.66306596  1
  Cl  Cl39  1  0.31562897  0.87019614  0.43622628  1
  Cl  Cl40  1  0.11583583  0.88416417  0.11583583  1
  Cl  Cl41  1  0.62980386  0.06377372  0.18437103  1
  Cl  Cl42  1  0.61583583  0.61583583  0.61583583  1
  Cl  Cl43  1  0.68437103  0.12980386  0.43622628  1
  Cl  Cl44  1  0.37019614  0.93622628  0.18437103  1
  Cl  Cl45  1  0.33693404  0.55869158  0.81829238  1
  Cl  Cl46  1  0.44130842  0.18170762  0.33693404  1
  Cl  Cl47  1  0.88416417  0.11583583  0.11583583  1
  Cl  Cl48  1  0.12980386  0.43622628  0.68437103  1
  Cl  Cl49  1  0.81829238  0.33693404  0.55869158  1
  Cl  Cl50  1  0.43622628  0.68437103  0.12980386  1
  Cl  Cl51  1  0.05869158  0.31829238  0.16306596  1
  Cl  Cl52  1  0.18170762  0.33693404  0.44130842  1
  Cl  Cl53  1  0.43622628  0.31562897  0.87019614  1
  Cl  Cl54  1  0.37019614  0.06377372  0.81562897  1
  Cl  Cl55  1  0.81829238  0.66306596  0.44130842  1
  Cl  Cl56  1  0.11583583  0.11583583  0.88416417  1
  Cl  Cl57  1  0.16306596  0.05869158  0.31829238  1
  Cl  Cl58  1  0.68170762  0.16306596  0.94130842  1
  Cl  Cl59  1  0.18437103  0.37019614  0.93622628  1
  Cl  Cl60  1  0.94130842  0.31829238  0.83693404  1
  Cl  Cl61  1  0.81562897  0.37019614  0.06377372  1
  Cl  Cl62  1  0.88416417  0.88416417  0.88416417  1
  Cl  Cl63  1  0.87019614  0.43622628  0.31562897  1
  Cl  Cl64  1  0.12980386  0.56377372  0.31562897  1
  Cl  Cl65  1  0.55869158  0.18170762  0.66306596  1
  Cl  Cl66  1  0.06377372  0.81562897  0.37019614  1
  Cl  Cl67  1  0.66306596  0.44130842  0.81829238  1
  Cl  Cl68  1  0.56377372  0.68437103  0.87019614  1
  Cl  Cl69  1  0.31562897  0.12980386  0.56377372  1
  Cl  Cl70  1  0.87019614  0.56377372  0.68437103  1
  Cl  Cl71  1  0.16306596  0.94130842  0.68170762  1
  Cl  Cl72  1  0.05869158  0.68170762  0.83693404  1
  Cl  Cl73  1  0.83693404  0.05869158  0.68170762  1
  Cl  Cl74  1  0.33693404  0.44130842  0.18170762  1
  Cl  Cl75  1  0.61583583  0.38416417  0.38416417  1
  Cl  Cl76  1  0.68170762  0.83693404  0.05869158  1
  Cl  Cl77  1  0.31829238  0.16306596  0.05869158  1
  Cl  Cl78  1  0.62980386  0.93622628  0.81562897  1
  Cl  Cl79  1  0.66306596  0.55869158  0.18170762  1
  Cl  Cl80  1  0.38416417  0.38416417  0.61583583  1
  Cl  Cl81  1  0.38416417  0.61583583  0.38416417  1
  Cl  Cl82  1  0.93622628  0.18437103  0.37019614  1
  Cl  Cl83  1  0.81562897  0.62980386  0.93622628  1
