# generated using pymatgen
data_In3SnI5
_symmetry_space_group_name_H-M   'P 1'
_cell_length_a   9.02561907
_cell_length_b   8.99364501
_cell_length_c   19.06540078
_cell_angle_alpha   66.52597737
_cell_angle_beta   90.00000000
_cell_angle_gamma   90.00000000
_symmetry_Int_Tables_number   1
_chemical_formula_structural   In3SnI5
_chemical_formula_sum   'In12 Sn4 I20'
_cell_volume   1419.52168290
_cell_formula_units_Z   4
loop_
 _symmetry_equiv_pos_site_id
 _symmetry_equiv_pos_as_xyz
  1  'x, y, z'
loop_
 _atom_site_type_symbol
 _atom_site_label
 _atom_site_symmetry_multiplicity
 _atom_site_fract_x
 _atom_site_fract_y
 _atom_site_fract_z
 _atom_site_occupancy
  In  In0  1  0.21868114  0.93107287  0.02449306  1
  In  In1  1  0.78131886  0.06892713  0.97550694  1
  In  In2  1  0.30914785  0.10840897  0.25436123  1
  In  In3  1  0.80914785  0.89159103  0.24563877  1
  In  In4  1  0.71868114  0.06892713  0.47550694  1
  In  In5  1  0.46598103  0.39400274  0.74950923  1
  In  In6  1  0.69085215  0.89159103  0.74563877  1
  In  In7  1  0.03401897  0.39400274  0.24950923  1
  In  In8  1  0.19085215  0.10840897  0.75436123  1
  In  In9  1  0.53401897  0.60599726  0.25049077  1
  In  In10  1  0.96598103  0.60599726  0.75049077  1
  In  In11  1  0.28131886  0.93107287  0.52449306  1
  Sn  Sn12  1  0.67627447  0.39120520  0.08686827  1
  Sn  Sn13  1  0.32372553  0.60879480  0.91313173  1
  Sn  Sn14  1  0.82372553  0.39120520  0.58686827  1
  Sn  Sn15  1  0.17627447  0.60879480  0.41313173  1
  I  I16  1  0.66727263  0.23881855  0.25976857  1
  I  I17  1  0.02964283  0.79893275  0.89479308  1
  I  I18  1  0.66663298  0.68086230  0.61364125  1
  I  I19  1  0.64923425  0.46384739  0.89246580  1
  I  I20  1  0.85076575  0.46384739  0.39246580  1
  I  I21  1  0.98750921  0.06180430  0.60214312  1
  I  I22  1  0.33272737  0.76118145  0.74023143  1
  I  I23  1  0.16663298  0.31913770  0.88635875  1
  I  I24  1  0.35076575  0.53615261  0.10753420  1
  I  I25  1  0.16727263  0.76118145  0.24023143  1
  I  I26  1  0.51249079  0.06180430  0.10214312  1
  I  I27  1  0.14923425  0.53615261  0.60753420  1
  I  I28  1  0.48750921  0.93819570  0.89785688  1
  I  I29  1  0.83272737  0.23881855  0.75976857  1
  I  I30  1  0.47035717  0.79893275  0.39479308  1
  I  I31  1  0.97035717  0.20106725  0.10520692  1
  I  I32  1  0.33336702  0.31913770  0.38635875  1
  I  I33  1  0.01249079  0.93819570  0.39785688  1
  I  I34  1  0.52964283  0.20106725  0.60520692  1
  I  I35  1  0.83336702  0.68086230  0.11364125  1
