# generated using pymatgen
data_Na2PtO3
_symmetry_space_group_name_H-M   'P 1'
_cell_length_a   5.43674349
_cell_length_b   5.43674349
_cell_length_c   10.61451165
_cell_angle_alpha   85.04653741
_cell_angle_beta   85.04653741
_cell_angle_gamma   120.01811507
_symmetry_Int_Tables_number   1
_chemical_formula_structural   Na2PtO3
_chemical_formula_sum   'Na8 Pt4 O12'
_cell_volume   267.57829293
_cell_formula_units_Z   4
loop_
 _symmetry_equiv_pos_site_id
 _symmetry_equiv_pos_as_xyz
  1  'x, y, z'
loop_
 _atom_site_type_symbol
 _atom_site_label
 _atom_site_symmetry_multiplicity
 _atom_site_fract_x
 _atom_site_fract_y
 _atom_site_fract_z
 _atom_site_occupancy
  Na  Na0  1  0.08464357  0.91535643  0.75000000  1
  Na  Na1  1  0.68144283  0.84152573  0.00004526  1
  Na  Na2  1  0.91535643  0.08464357  0.25000000  1
  Na  Na3  1  0.15847427  0.31855717  0.49995474  1
  Na  Na4  1  0.31855717  0.15847427  -0.00004526  1
  Na  Na5  1  0.00000000  0.50000000  0.00000000  1
  Na  Na6  1  0.84152573  0.68144283  0.50004526  1
  Na  Na7  1  0.50000000  -0.00000000  0.50000000  1
  Pt  Pt8  1  0.24989200  0.75010800  0.25000000  1
  Pt  Pt9  1  0.58291477  0.41708523  0.25000000  1
  Pt  Pt10  1  0.75010800  0.24989200  0.75000000  1
  Pt  Pt11  1  0.41708523  0.58291477  0.75000000  1
  O  O12  1  0.52044967  0.68789349  0.35530450  1
  O  O13  1  0.88075918  0.40842068  0.35544257  1
  O  O14  1  0.68789349  0.52044967  0.85530450  1
  O  O15  1  0.47955033  0.31210651  0.64469550  1
  O  O16  1  0.40842068  0.88075918  0.85544257  1
  O  O17  1  0.59157932  0.11924082  0.14455743  1
  O  O18  1  0.04841408  0.23986300  0.85513072  1
  O  O19  1  0.11924082  0.59157932  0.64455743  1
  O  O20  1  0.23986300  0.04841408  0.35513072  1
  O  O21  1  0.95158592  0.76013700  0.14486928  1
  O  O22  1  0.76013700  0.95158592  0.64486928  1
  O  O23  1  0.31210651  0.47955033  0.14469550  1
