# generated using pymatgen
data_Ca2VClO4
_symmetry_space_group_name_H-M   'P 1'
_cell_length_a   6.31526353
_cell_length_b   7.14787495
_cell_length_c   11.05678986
_cell_angle_alpha   90.00000000
_cell_angle_beta   90.00000000
_cell_angle_gamma   90.00000000
_symmetry_Int_Tables_number   1
_chemical_formula_structural   Ca2VClO4
_chemical_formula_sum   'Ca8 V4 Cl4 O16'
_cell_volume   499.11138870
_cell_formula_units_Z   4
loop_
 _symmetry_equiv_pos_site_id
 _symmetry_equiv_pos_as_xyz
  1  'x, y, z'
loop_
 _atom_site_type_symbol
 _atom_site_label
 _atom_site_symmetry_multiplicity
 _atom_site_fract_x
 _atom_site_fract_y
 _atom_site_fract_z
 _atom_site_occupancy
  Ca  Ca0  1  0.85870733  0.97161529  0.25000000  1
  Ca  Ca1  1  0.14129267  0.47161529  0.25000000  1
  Ca  Ca2  1  0.37840912  0.75000000  -0.00000000  1
  Ca  Ca3  1  0.62159088  0.25000000  0.50000000  1
  Ca  Ca4  1  0.85870733  0.52838471  0.75000000  1
  Ca  Ca5  1  0.14129267  0.02838471  0.75000000  1
  Ca  Ca6  1  0.37840912  0.75000000  0.50000000  1
  Ca  Ca7  1  0.62159088  0.25000000  -0.00000000  1
  V  V8  1  0.87350881  0.75000000  -0.00000000  1
  V  V9  1  0.12649119  0.25000000  -0.00000000  1
  V  V10  1  0.87350881  0.75000000  0.50000000  1
  V  V11  1  0.12649119  0.25000000  0.50000000  1
  Cl  Cl12  1  0.51119854  0.80428485  0.75000000  1
  Cl  Cl13  1  0.48880146  0.19571515  0.25000000  1
  Cl  Cl14  1  0.48880146  0.30428485  0.75000000  1
  Cl  Cl15  1  0.51119854  0.69571515  0.25000000  1
  O  O16  1  0.03547376  0.73036332  0.12438146  1
  O  O17  1  0.29036025  0.43527564  0.02921854  1
  O  O18  1  0.03547376  0.76963668  0.87561854  1
  O  O19  1  0.29036025  0.06472436  0.52921854  1
  O  O20  1  0.96452624  0.26963668  0.87561854  1
  O  O21  1  0.70963975  0.56472436  0.52921854  1
  O  O22  1  0.03547376  0.73036332  0.37561854  1
  O  O23  1  0.29036025  0.43527564  0.47078146  1
  O  O24  1  0.70963975  0.93527564  0.02921854  1
  O  O25  1  0.29036025  0.06472436  0.97078146  1
  O  O26  1  0.70963975  0.93527564  0.47078146  1
  O  O27  1  0.96452624  0.23036332  0.37561854  1
  O  O28  1  0.70963975  0.56472436  0.97078146  1
  O  O29  1  0.96452624  0.26963668  0.62438146  1
  O  O30  1  0.96452624  0.23036332  0.12438146  1
  O  O31  1  0.03547376  0.76963668  0.62438146  1
