# generated using pymatgen
data_Rb2Mo3SO13
_symmetry_space_group_name_H-M   'P 1'
_cell_length_a   13.15989643
_cell_length_b   9.39459115
_cell_length_c   11.42366833
_cell_angle_alpha   61.27469895
_cell_angle_beta   90.00000000
_cell_angle_gamma   90.00000000
_symmetry_Int_Tables_number   1
_chemical_formula_structural   Rb2Mo3SO13
_chemical_formula_sum   'Rb8 Mo12 S4 O52'
_cell_volume   1238.51952786
_cell_formula_units_Z   4
loop_
 _symmetry_equiv_pos_site_id
 _symmetry_equiv_pos_as_xyz
  1  'x, y, z'
loop_
 _atom_site_type_symbol
 _atom_site_label
 _atom_site_symmetry_multiplicity
 _atom_site_fract_x
 _atom_site_fract_y
 _atom_site_fract_z
 _atom_site_occupancy
  Rb  Rb0  1  0.68371149  0.01859456  0.04511136  1
  Rb  Rb1  1  0.19138682  0.46521843  0.05202559  1
  Rb  Rb2  1  0.30861318  0.46521843  0.55202559  1
  Rb  Rb3  1  0.80861318  0.53478157  0.94797441  1
  Rb  Rb4  1  0.81628851  0.01859456  0.54511136  1
  Rb  Rb5  1  0.69138682  0.53478157  0.44797441  1
  Rb  Rb6  1  0.18371149  0.98140544  0.45488864  1
  Rb  Rb7  1  0.31628851  0.98140544  0.95488864  1
  Mo  Mo8  1  0.51883835  0.80654410  0.52471227  1
  Mo  Mo9  1  0.43678918  0.14699102  0.20041953  1
  Mo  Mo10  1  0.99123441  0.45621836  0.36703660  1
  Mo  Mo11  1  0.98116165  0.80654410  0.02471227  1
  Mo  Mo12  1  0.06321082  0.14699102  0.70041953  1
  Mo  Mo13  1  0.00876559  0.54378164  0.63296340  1
  Mo  Mo14  1  0.48116165  0.19345590  0.47528773  1
  Mo  Mo15  1  0.49123441  0.54378164  0.13296340  1
  Mo  Mo16  1  0.56321082  0.85300898  0.79958047  1
  Mo  Mo17  1  0.01883835  0.19345590  0.97528773  1
  Mo  Mo18  1  0.93678918  0.85300898  0.29958047  1
  Mo  Mo19  1  0.50876559  0.45621836  0.86703660  1
  S  S20  1  0.32992580  0.74958722  0.74944775  1
  S  S21  1  0.67007420  0.25041278  0.25055225  1
  S  S22  1  0.17007420  0.74958722  0.24944775  1
  S  S23  1  0.82992580  0.25041278  0.75055225  1
  O  O24  1  0.85290778  0.42546764  0.66348500  1
  O  O25  1  0.13030098  0.61417274  0.59814896  1
  O  O26  1  0.39594791  0.84419573  0.79371082  1
  O  O27  1  0.30878230  0.16379795  0.21485105  1
  O  O28  1  0.46207773  0.33074858  0.28306324  1
  O  O29  1  0.10405209  0.84419573  0.29371082  1
  O  O30  1  0.60405209  0.15580427  0.20628918  1
  O  O31  1  0.64460905  0.83049968  0.48602309  1
  O  O32  1  0.54239712  0.63928861  0.95185928  1
  O  O33  1  0.14709222  0.57453236  0.33651500  1
  O  O34  1  0.35290778  0.57453236  0.83651500  1
  O  O35  1  0.35828550  0.79456449  0.60924155  1
  O  O36  1  0.96346738  0.98862683  0.10893297  1
  O  O37  1  0.63030098  0.38582726  0.90185104  1
  O  O38  1  0.64171450  0.20543551  0.39075845  1
  O  O39  1  0.19121770  0.16379795  0.71485105  1
  O  O40  1  0.64709222  0.42546764  0.16348500  1
  O  O41  1  0.54862449  0.97412857  0.86992052  1
  O  O42  1  0.36969902  0.61417274  0.09814896  1
  O  O43  1  0.51821609  0.32751028  0.52603143  1
  O  O44  1  0.14171450  0.79456449  0.10924155  1
  O  O45  1  0.89594791  0.15580427  0.70628918  1
  O  O46  1  0.45569852  0.34450169  0.80303882  1
  O  O47  1  0.77519623  0.21705561  0.24038630  1
  O  O48  1  0.53792227  0.66925142  0.71693676  1
  O  O49  1  0.45137551  0.02587143  0.13007948  1
  O  O50  1  0.48178391  0.67248972  0.47396857  1
  O  O51  1  0.80878230  0.83620205  0.28514895  1
  O  O52  1  0.04239712  0.36071139  0.54814072  1
  O  O53  1  0.27519623  0.78294439  0.25961370  1
  O  O54  1  0.22480377  0.78294439  0.75961370  1
  O  O55  1  0.72480377  0.21705561  0.74038630  1
  O  O56  1  0.95569852  0.65549831  0.69696118  1
  O  O57  1  0.45760288  0.36071139  0.04814072  1
  O  O58  1  0.95137551  0.97412857  0.36992052  1
  O  O59  1  0.53653262  0.98862683  0.60893297  1
  O  O60  1  0.85539095  0.83049968  0.98602309  1
  O  O61  1  0.85828550  0.20543551  0.89075845  1
  O  O62  1  0.86969902  0.38582726  0.40185104  1
  O  O63  1  0.54430148  0.65549831  0.19696118  1
  O  O64  1  0.98178391  0.32751028  0.02603143  1
  O  O65  1  0.35539095  0.16950032  0.51397691  1
  O  O66  1  0.14460905  0.16950032  0.01397691  1
  O  O67  1  0.46346738  0.01137317  0.39106703  1
  O  O68  1  0.96207773  0.66925142  0.21693676  1
  O  O69  1  0.04430148  0.34450169  0.30303882  1
  O  O70  1  0.03653262  0.01137317  0.89106703  1
  O  O71  1  0.69121770  0.83620205  0.78514895  1
  O  O72  1  0.04862449  0.02587143  0.63007948  1
  O  O73  1  0.95760288  0.63928861  0.45185928  1
  O  O74  1  0.03792227  0.33074858  0.78306324  1
  O  O75  1  0.01821609  0.67248972  0.97396857  1
