# generated using pymatgen
data_NaSbF6
_symmetry_space_group_name_H-M   'P 1'
_cell_length_a   5.84721422
_cell_length_b   5.84721497
_cell_length_c   5.84721585
_cell_angle_alpha   60.00001144
_cell_angle_beta   60.00000715
_cell_angle_gamma   60.00000902
_symmetry_Int_Tables_number   1
_chemical_formula_structural   NaSbF6
_chemical_formula_sum   'Na1 Sb1 F6'
_cell_volume   141.36187100
_cell_formula_units_Z   1
loop_
 _symmetry_equiv_pos_site_id
 _symmetry_equiv_pos_as_xyz
  1  'x, y, z'
loop_
 _atom_site_type_symbol
 _atom_site_label
 _atom_site_symmetry_multiplicity
 _atom_site_fract_x
 _atom_site_fract_y
 _atom_site_fract_z
 _atom_site_occupancy
  Na  Na0  1  0.50000000  0.50000000  0.50000000  1
  Sb  Sb1  1  0.00000000  0.00000000  -0.00000000  1
  F  F2  1  0.22872307  0.77127693  0.77127693  1
  F  F3  1  0.22872307  0.77127693  0.22872307  1
  F  F4  1  0.77127693  0.22872307  0.22872307  1
  F  F5  1  0.77127693  0.77127693  0.22872307  1
  F  F6  1  0.22872307  0.22872307  0.77127693  1
  F  F7  1  0.77127693  0.22872307  0.77127693  1
