# generated using pymatgen
data_Ga2PbSe4
_symmetry_space_group_name_H-M   'P 1'
_cell_length_a   15.27819443
_cell_length_b   12.63287446
_cell_length_c   12.48136019
_cell_angle_alpha   74.98680587
_cell_angle_beta   52.97254709
_cell_angle_gamma   52.06560308
_symmetry_Int_Tables_number   1
_chemical_formula_structural   Ga2PbSe4
_chemical_formula_sum   'Ga16 Pb8 Se32'
_cell_volume   1493.04279957
_cell_formula_units_Z   8
loop_
 _symmetry_equiv_pos_site_id
 _symmetry_equiv_pos_as_xyz
  1  'x, y, z'
loop_
 _atom_site_type_symbol
 _atom_site_label
 _atom_site_symmetry_multiplicity
 _atom_site_fract_x
 _atom_site_fract_y
 _atom_site_fract_z
 _atom_site_occupancy
  Ga  Ga0  1  0.49005433  0.75956929  0.73715495  1
  Ga  Ga1  1  0.26381005  0.98712839  0.59496827  1
  Ga  Ga2  1  0.23672602  0.51279953  0.49047714  1
  Ga  Ga3  1  0.26286475  0.98629239  0.09588752  1
  Ga  Ga4  1  0.49051492  0.75995603  0.23672009  1
  Ga  Ga5  1  0.15402033  0.59496425  0.98723087  1
  Ga  Ga6  1  0.65519596  0.09573543  0.98615824  1
  Ga  Ga7  1  0.75995161  0.49042722  0.51283461  1
  Ga  Ga8  1  0.09598303  0.65504378  0.26276300  1
  Ga  Ga9  1  0.59480383  0.15426715  0.26384040  1
  Ga  Ga10  1  0.98618795  0.26288073  0.65503229  1
  Ga  Ga11  1  0.73719839  0.01329993  0.48992817  1
  Ga  Ga12  1  0.51280234  0.23669420  0.76007241  1
  Ga  Ga13  1  0.75949087  0.49003582  0.01328087  1
  Ga  Ga14  1  0.98714022  0.26369826  0.15411058  1
  Ga  Ga15  1  0.01326208  0.73720724  0.75953157  1
  Pb  Pb16  1  0.24767025  0.24775495  0.75230899  1
  Pb  Pb17  1  0.25001531  0.24998176  0.25000445  1
  Pb  Pb18  1  0.99998597  0.00002085  -0.00000881  1
  Pb  Pb19  1  0.75228592  0.75233980  0.24769528  1
  Pb  Pb20  1  0.00233213  0.00224605  0.49768928  1
  Pb  Pb21  1  0.49772152  0.49765709  0.00229345  1
  Pb  Pb22  1  0.49997911  0.49998950  0.50008185  1
  Pb  Pb23  1  0.75002095  0.75001245  0.74991430  1
  Se  Se24  1  0.78111326  0.96951080  0.28181110  1
  Se  Se25  1  0.21041353  0.70819394  0.54006170  1
  Se  Se26  1  0.30792145  0.43932507  0.78048008  1
  Se  Se27  1  0.20795319  0.21130217  0.54160091  1
  Se  Se28  1  0.03918983  0.54150341  0.21131387  1
  Se  Se29  1  0.54124228  0.54017203  0.70821690  1
  Se  Se30  1  0.54177265  0.03966717  0.70837597  1
  Se  Se31  1  0.04204747  0.03870295  0.70839979  1
  Se  Se32  1  0.43943784  0.30814207  0.47225668  1
  Se  Se33  1  0.70875736  0.70983148  0.54179524  1
  Se  Se34  1  0.71027307  0.70836146  0.03993461  1
  Se  Se35  1  0.78040686  0.47225453  0.30810301  1
  Se  Se36  1  0.53972409  0.54165013  0.21005196  1
  Se  Se37  1  0.81055605  0.94185617  0.77774592  1
  Se  Se38  1  0.96962065  0.78153751  0.96731338  1
  Se  Se39  1  0.46889339  0.28049404  0.96818237  1
  Se  Se40  1  0.46960159  0.77774237  0.94188396  1
  Se  Se41  1  0.28038274  0.46846067  0.28268678  1
  Se  Se42  1  0.70907281  0.21017911  0.04195051  1
  Se  Se43  1  0.96843708  0.28261109  0.46862542  1
  Se  Se44  1  0.03957213  0.54182101  0.70993909  1
  Se  Se45  1  0.21126561  0.20799133  0.03993001  1
  Se  Se46  1  0.47218930  0.78034404  0.43930310  1
  Se  Se47  1  0.77781380  0.46965527  0.81069469  1
  Se  Se48  1  0.70821595  0.21033036  0.54164622  1
  Se  Se49  1  0.21079781  0.70851886  0.03870317  1
  Se  Se50  1  0.94208456  0.81064576  0.46953022  1
  Se  Se51  1  0.54092306  0.03983402  0.20804664  1
  Se  Se52  1  0.28156771  0.96739129  0.78137042  1
  Se  Se53  1  0.03873463  0.04199048  0.21007615  1
  Se  Se54  1  0.28242924  0.96804334  0.28054585  1
  Se  Se55  1  0.96757418  0.28193600  0.96945452  1
