# generated using pymatgen
data_Rb2GeO3
_symmetry_space_group_name_H-M   'P 1'
_cell_length_a   13.54493880
_cell_length_b   6.67045360
_cell_length_c   16.72936574
_cell_angle_alpha   72.54172536
_cell_angle_beta   90.00000000
_cell_angle_gamma   90.00000000
_symmetry_Int_Tables_number   1
_chemical_formula_structural   Rb2GeO3
_chemical_formula_sum   'Rb24 Ge12 O36'
_cell_volume   1441.88620247
_cell_formula_units_Z   12
loop_
 _symmetry_equiv_pos_site_id
 _symmetry_equiv_pos_as_xyz
  1  'x, y, z'
loop_
 _atom_site_type_symbol
 _atom_site_label
 _atom_site_symmetry_multiplicity
 _atom_site_fract_x
 _atom_site_fract_y
 _atom_site_fract_z
 _atom_site_occupancy
  Rb  Rb0  1  0.41362938  0.72817317  0.02795871  1
  Rb  Rb1  1  0.14466149  0.57637431  0.99574761  1
  Rb  Rb2  1  0.49503635  0.65461359  0.27917005  1
  Rb  Rb3  1  0.35533851  0.57637431  0.49574761  1
  Rb  Rb4  1  0.69795185  0.11185867  0.19924142  1
  Rb  Rb5  1  0.30204815  0.88814133  0.80075858  1
  Rb  Rb6  1  0.58637062  0.27182683  0.97204129  1
  Rb  Rb7  1  0.61561274  0.97988396  0.41842003  1
  Rb  Rb8  1  0.08637062  0.72817317  0.52795871  1
  Rb  Rb9  1  0.00496365  0.65461359  0.77917005  1
  Rb  Rb10  1  0.99503635  0.34538641  0.22082995  1
  Rb  Rb11  1  0.91362938  0.27182683  0.47204129  1
  Rb  Rb12  1  0.80204815  0.11185867  0.69924142  1
  Rb  Rb13  1  0.11561274  0.02011604  0.08157997  1
  Rb  Rb14  1  0.88278402  0.89008240  0.35981753  1
  Rb  Rb15  1  0.64466149  0.42362569  0.50425239  1
  Rb  Rb16  1  0.88438726  0.97988396  0.91842003  1
  Rb  Rb17  1  0.61721598  0.89008240  0.85981753  1
  Rb  Rb18  1  0.19795185  0.88814133  0.30075858  1
  Rb  Rb19  1  0.50496365  0.34538641  0.72082995  1
  Rb  Rb20  1  0.38438726  0.02011604  0.58157997  1
  Rb  Rb21  1  0.38278402  0.10991760  0.14018247  1
  Rb  Rb22  1  0.85533851  0.42362569  0.00425239  1
  Rb  Rb23  1  0.11721598  0.10991760  0.64018247  1
  Ge  Ge24  1  0.65175652  0.72986710  0.10037816  1
  Ge  Ge25  1  0.25378728  0.46877662  0.71328830  1
  Ge  Ge26  1  0.15175652  0.27013290  0.39962184  1
  Ge  Ge27  1  0.34824348  0.27013290  0.89962184  1
  Ge  Ge28  1  0.75378728  0.53122338  0.78671170  1
  Ge  Ge29  1  0.24621272  0.46877662  0.21328830  1
  Ge  Ge30  1  0.88243286  0.83044696  0.13504385  1
  Ge  Ge31  1  0.84824348  0.72986710  0.60037816  1
  Ge  Ge32  1  0.74621272  0.53122338  0.28671170  1
  Ge  Ge33  1  0.11756714  0.16955304  0.86495615  1
  Ge  Ge34  1  0.38243286  0.16955304  0.36495615  1
  Ge  Ge35  1  0.61756714  0.83044696  0.63504385  1
  O  O36  1  0.54042190  0.71171620  0.58000963  1
  O  O37  1  0.63977457  0.65229079  0.73903531  1
  O  O38  1  0.56080410  0.90100226  0.11354898  1
  O  O39  1  0.80599207  0.69788610  0.83697454  1
  O  O40  1  0.82915940  0.52441788  0.69825444  1
  O  O41  1  0.93919590  0.90100226  0.61354898  1
  O  O42  1  0.95957810  0.71171620  0.08000963  1
  O  O43  1  0.23018211  0.72696352  0.65662203  1
  O  O44  1  0.26439924  0.11581558  0.41896353  1
  O  O45  1  0.36688847  0.39243836  0.97550015  1
  O  O46  1  0.58234422  0.06800022  0.64768466  1
  O  O47  1  0.08234422  0.93199978  0.85231534  1
  O  O48  1  0.63311153  0.60756164  0.02449985  1
  O  O49  1  0.13311153  0.39243836  0.47550015  1
  O  O50  1  0.76981789  0.27303648  0.34337797  1
  O  O51  1  0.26981789  0.72696352  0.15662203  1
  O  O52  1  0.73018211  0.27303648  0.84337797  1
  O  O53  1  0.30599207  0.30211390  0.66302546  1
  O  O54  1  0.73560076  0.88418442  0.58103647  1
  O  O55  1  0.45957810  0.28828380  0.41999037  1
  O  O56  1  0.41765578  0.93199978  0.35231534  1
  O  O57  1  0.17084060  0.47558212  0.30174556  1
  O  O58  1  0.86688847  0.60756164  0.52449985  1
  O  O59  1  0.13977457  0.34770921  0.76096469  1
  O  O60  1  0.32915940  0.47558212  0.80174556  1
  O  O61  1  0.19400793  0.30211390  0.16302546  1
  O  O62  1  0.06080410  0.09899774  0.38645102  1
  O  O63  1  0.86022543  0.65229079  0.23903531  1
  O  O64  1  0.69400793  0.69788610  0.33697454  1
  O  O65  1  0.76439924  0.88418442  0.08103647  1
  O  O66  1  0.67084060  0.52441788  0.19825444  1
  O  O67  1  0.23560076  0.11581558  0.91896353  1
  O  O68  1  0.91765578  0.06800022  0.14768466  1
  O  O69  1  0.04042190  0.28828380  0.91999037  1
  O  O70  1  0.36022543  0.34770921  0.26096469  1
  O  O71  1  0.43919590  0.09899774  0.88645102  1
