# generated using pymatgen
data_NbBiO4
_symmetry_space_group_name_H-M   'P 1'
_cell_length_a   5.54344881
_cell_length_b   7.68842931
_cell_length_c   7.93684949
_cell_angle_alpha   101.42763416
_cell_angle_beta   90.15048500
_cell_angle_gamma   92.76230980
_symmetry_Int_Tables_number   1
_chemical_formula_structural   NbBiO4
_chemical_formula_sum   'Nb4 Bi4 O16'
_cell_volume   331.15495177
_cell_formula_units_Z   4
loop_
 _symmetry_equiv_pos_site_id
 _symmetry_equiv_pos_as_xyz
  1  'x, y, z'
loop_
 _atom_site_type_symbol
 _atom_site_label
 _atom_site_symmetry_multiplicity
 _atom_site_fract_x
 _atom_site_fract_y
 _atom_site_fract_z
 _atom_site_occupancy
  Nb  Nb0  1  0.75286473  0.67526661  0.82169620  1
  Nb  Nb1  1  0.24713527  0.32473339  0.17830380  1
  Nb  Nb2  1  0.22121072  0.34581854  0.67838233  1
  Nb  Nb3  1  0.77878928  0.65418146  0.32161767  1
  Bi  Bi4  1  0.23458857  0.87866336  0.62439865  1
  Bi  Bi5  1  0.71323242  0.16752284  0.87511988  1
  Bi  Bi6  1  0.28676758  0.83247716  0.12488012  1
  Bi  Bi7  1  0.76541143  0.12133664  0.37560135  1
  O  O8  1  0.00809261  0.89578624  0.32346032  1
  O  O9  1  0.08517020  0.55603142  0.22014556  1
  O  O10  1  0.31307671  0.32923306  0.94747380  1
  O  O11  1  0.53802841  0.84328050  0.35933963  1
  O  O12  1  0.46197159  0.15671950  0.64066037  1
  O  O13  1  0.99190739  0.10421376  0.67653968  1
  O  O14  1  0.56698932  0.44947804  0.28954844  1
  O  O15  1  0.55471837  0.89360103  0.82230786  1
  O  O16  1  0.43301068  0.55052196  0.71045156  1
  O  O17  1  0.04026903  0.82877906  0.86514561  1
  O  O18  1  0.91482980  0.44396858  0.77985444  1
  O  O19  1  0.14323113  0.32168988  0.44417785  1
  O  O20  1  0.44528163  0.10639897  0.17769214  1
  O  O21  1  0.95973097  0.17122094  0.13485439  1
  O  O22  1  0.85676887  0.67831012  0.55582215  1
  O  O23  1  0.68692329  0.67076694  0.05252620  1
