# generated using pymatgen
data_BaCl2
_symmetry_space_group_name_H-M   'P 1'
_cell_length_a   8.14862161
_cell_length_b   8.14862034
_cell_length_c   4.67518941
_cell_angle_alpha   90.00000000
_cell_angle_beta   90.00000000
_cell_angle_gamma   119.99999671
_symmetry_Int_Tables_number   1
_chemical_formula_structural   BaCl2
_chemical_formula_sum   'Ba3 Cl6'
_cell_volume   268.84260278
_cell_formula_units_Z   3
loop_
 _symmetry_equiv_pos_site_id
 _symmetry_equiv_pos_as_xyz
  1  'x, y, z'
loop_
 _atom_site_type_symbol
 _atom_site_label
 _atom_site_symmetry_multiplicity
 _atom_site_fract_x
 _atom_site_fract_y
 _atom_site_fract_z
 _atom_site_occupancy
  Ba  Ba0  1  -0.00000000  -0.00000000  0.50000000  1
  Ba  Ba1  1  0.66666700  0.33333300  -0.00000000  1
  Ba  Ba2  1  0.33333300  0.66666700  -0.00000000  1
  Cl  Cl3  1  0.00000000  0.25634290  -0.00000000  1
  Cl  Cl4  1  0.58988082  -0.00000000  0.50000000  1
  Cl  Cl5  1  0.41012018  0.41012018  0.50000000  1
  Cl  Cl6  1  0.25634290  -0.00000000  0.00000000  1
  Cl  Cl7  1  0.00000000  0.58988082  0.50000000  1
  Cl  Cl8  1  0.74365710  0.74365710  0.00000000  1
