# generated using pymatgen
data_FeSiP3O11
_symmetry_space_group_name_H-M   'P 1'
_cell_length_a   13.89553608
_cell_length_b   13.89553608
_cell_length_c   13.89553600
_cell_angle_alpha   34.78048733
_cell_angle_beta   34.78048733
_cell_angle_gamma   34.78048466
_symmetry_Int_Tables_number   1
_chemical_formula_structural   FeSiP3O11
_chemical_formula_sum   'Fe4 Si4 P12 O44'
_cell_volume   779.23334395
_cell_formula_units_Z   4
loop_
 _symmetry_equiv_pos_site_id
 _symmetry_equiv_pos_as_xyz
  1  'x, y, z'
loop_
 _atom_site_type_symbol
 _atom_site_label
 _atom_site_symmetry_multiplicity
 _atom_site_fract_x
 _atom_site_fract_y
 _atom_site_fract_z
 _atom_site_occupancy
  Fe  Fe0  1  0.15756332  0.15756332  0.15756332  1
  Fe  Fe1  1  0.34243668  0.34243668  0.34243668  1
  Fe  Fe2  1  0.84243668  0.84243668  0.84243668  1
  Fe  Fe3  1  0.65756332  0.65756332  0.65756332  1
  Si  Si4  1  0.04023008  0.04023008  0.04023008  1
  Si  Si5  1  0.45976992  0.45976992  0.45976992  1
  Si  Si6  1  0.95976992  0.95976992  0.95976992  1
  Si  Si7  1  0.54023008  0.54023008  0.54023008  1
  P  P8  1  0.78623557  0.49387761  0.08000031  1
  P  P9  1  0.49387761  0.08000031  0.78623557  1
  P  P10  1  0.08000031  0.78623557  0.49387761  1
  P  P11  1  0.00612239  0.71376443  0.41999969  1
  P  P12  1  0.71376443  0.41999969  0.00612239  1
  P  P13  1  0.41999969  0.00612239  0.71376443  1
  P  P14  1  0.21376443  0.50612239  0.91999969  1
  P  P15  1  0.50612239  0.91999969  0.21376443  1
  P  P16  1  0.91999969  0.21376443  0.50612239  1
  P  P17  1  0.99387761  0.28623557  0.58000031  1
  P  P18  1  0.28623557  0.58000031  0.99387761  1
  P  P19  1  0.58000031  0.99387761  0.28623557  1
  O  O20  1  0.21314485  0.09536239  0.85192140  1
  O  O21  1  0.09536239  0.85192140  0.21314485  1
  O  O22  1  0.85192140  0.21314485  0.09536239  1
  O  O23  1  0.40463761  0.28685515  0.64807860  1
  O  O24  1  0.28685515  0.64807860  0.40463761  1
  O  O25  1  0.64807860  0.40463761  0.28685515  1
  O  O26  1  0.78685515  0.90463761  0.14807860  1
  O  O27  1  0.90463761  0.14807860  0.78685515  1
  O  O28  1  0.14807860  0.78685515  0.90463761  1
  O  O29  1  0.59536239  0.71314485  0.35192140  1
  O  O30  1  0.71314485  0.35192140  0.59536239  1
  O  O31  1  0.35192140  0.59536239  0.71314485  1
  O  O32  1  0.98532520  0.34842970  0.05027513  1
  O  O33  1  0.34842970  0.05027513  0.98532520  1
  O  O34  1  0.05027513  0.98532520  0.34842970  1
  O  O35  1  0.15157030  0.51467480  0.44972487  1
  O  O36  1  0.51467480  0.44972487  0.15157030  1
  O  O37  1  0.44972487  0.15157030  0.51467480  1
  O  O38  1  0.01467480  0.65157030  0.94972487  1
  O  O39  1  0.65157030  0.94972487  0.01467480  1
  O  O40  1  0.94972487  0.01467480  0.65157030  1
  O  O41  1  0.84842970  0.48532520  0.55027513  1
  O  O42  1  0.48532520  0.55027513  0.84842970  1
  O  O43  1  0.55027513  0.84842970  0.48532520  1
  O  O44  1  0.27796818  0.32374217  0.96388852  1
  O  O45  1  0.32374217  0.96388852  0.27796818  1
  O  O46  1  0.96388852  0.27796818  0.32374217  1
  O  O47  1  0.17625783  0.22203182  0.53611148  1
  O  O48  1  0.22203182  0.53611148  0.17625783  1
  O  O49  1  0.53611148  0.17625783  0.22203182  1
  O  O50  1  0.72203182  0.67625783  0.03611148  1
  O  O51  1  0.67625783  0.03611148  0.72203182  1
  O  O52  1  0.03611148  0.72203182  0.67625783  1
  O  O53  1  0.82374217  0.77796818  0.46388852  1
  O  O54  1  0.77796818  0.46388852  0.82374217  1
  O  O55  1  0.46388852  0.82374217  0.77796818  1
  O  O56  1  0.54090834  0.95909166  0.75000000  1
  O  O57  1  0.95909166  0.75000000  0.54090834  1
  O  O58  1  0.75000000  0.54090834  0.95909166  1
  O  O59  1  0.45909166  0.04090834  0.25000000  1
  O  O60  1  0.04090834  0.25000000  0.45909166  1
  O  O61  1  0.25000000  0.45909166  0.04090834  1
  O  O62  1  -0.00000000  0.00000000  0.00000000  1
  O  O63  1  0.50000000  0.50000000  0.50000000  1
