# generated using pymatgen
data_CdI2
_symmetry_space_group_name_H-M   'P 1'
_cell_length_a   4.28862346
_cell_length_b   4.28862491
_cell_length_c   57.28181186
_cell_angle_alpha   90.00000000
_cell_angle_beta   90.00000000
_cell_angle_gamma   119.99999684
_symmetry_Int_Tables_number   1
_chemical_formula_structural   CdI2
_chemical_formula_sum   'Cd8 I16'
_cell_volume   912.39599977
_cell_formula_units_Z   8
loop_
 _symmetry_equiv_pos_site_id
 _symmetry_equiv_pos_as_xyz
  1  'x, y, z'
loop_
 _atom_site_type_symbol
 _atom_site_label
 _atom_site_symmetry_multiplicity
 _atom_site_fract_x
 _atom_site_fract_y
 _atom_site_fract_z
 _atom_site_occupancy
  Cd  Cd0  1  0.00000000  0.00000000  0.15740830  1
  Cd  Cd1  1  0.33333300  0.66666700  0.28148843  1
  Cd  Cd2  1  0.33333300  0.66666700  0.03228525  1
  Cd  Cd3  1  0.00000000  0.00000000  0.78053844  1
  Cd  Cd4  1  0.00000000  0.00000000  0.65514012  1
  Cd  Cd5  1  0.00000000  0.00000000  0.40575346  1
  Cd  Cd6  1  0.33333300  0.66666700  0.90749495  1
  Cd  Cd7  1  0.66666700  0.33333300  0.53053547  1
  I  I8  1  0.33333300  0.66666700  0.62514467  1
  I  I9  1  0.66666700  0.33333300  0.18729495  1
  I  I10  1  0.33333300  0.66666700  0.75045851  1
  I  I11  1  0.66666700  0.33333300  0.43564367  1
  I  I12  1  0.66666700  0.33333300  0.81064732  1
  I  I13  1  0.00000000  0.00000000  0.56049917  1
  I  I14  1  0.66666700  0.33333300  0.68516933  1
  I  I15  1  0.66666700  0.33333300  0.31140142  1
  I  I16  1  0.66666700  0.33333300  0.93757028  1
  I  I17  1  0.00000000  0.00000000  0.00221911  1
  I  I18  1  0.33333300  0.66666700  0.37584575  1
  I  I19  1  0.33333300  0.66666700  0.12751948  1
  I  I20  1  0.00000000  0.00000000  0.87746721  1
  I  I21  1  0.33333300  0.66666700  0.50057521  1
  I  I22  1  0.00000000  0.00000000  0.25159824  1
  I  I23  1  0.66666700  0.33333300  0.06230027  1
