# generated using pymatgen
data_NaLa(SeO3)2
_symmetry_space_group_name_H-M   'P 1'
_cell_length_a   6.76563639
_cell_length_b   6.67580330
_cell_length_c   13.59087772
_cell_angle_alpha   72.46779985
_cell_angle_beta   90.00000000
_cell_angle_gamma   90.00000000
_symmetry_Int_Tables_number   1
_chemical_formula_structural   NaLa(SeO3)2
_chemical_formula_sum   'Na4 La4 Se8 O24'
_cell_volume   585.33185572
_cell_formula_units_Z   4
loop_
 _symmetry_equiv_pos_site_id
 _symmetry_equiv_pos_as_xyz
  1  'x, y, z'
loop_
 _atom_site_type_symbol
 _atom_site_label
 _atom_site_symmetry_multiplicity
 _atom_site_fract_x
 _atom_site_fract_y
 _atom_site_fract_z
 _atom_site_occupancy
  Na  Na0  1  0.66832180  0.92400742  0.38236468  1
  Na  Na1  1  0.83167820  0.92400742  0.88236468  1
  Na  Na2  1  0.33167820  0.07599258  0.61763532  1
  Na  Na3  1  0.16832180  0.07599258  0.11763532  1
  La  La4  1  0.38105193  0.50656985  0.33612348  1
  La  La5  1  0.88105193  0.49343015  0.16387652  1
  La  La6  1  0.11894807  0.50656985  0.83612348  1
  La  La7  1  0.61894807  0.49343015  0.66387652  1
  Se  Se8  1  0.33691590  0.03336052  0.86101210  1
  Se  Se9  1  0.35212978  0.62345469  0.06782568  1
  Se  Se10  1  0.83691590  0.96663948  0.63898790  1
  Se  Se11  1  0.66308410  0.96663948  0.13898790  1
  Se  Se12  1  0.85212978  0.37654531  0.43217432  1
  Se  Se13  1  0.64787022  0.37654531  0.93217432  1
  Se  Se14  1  0.16308410  0.03336052  0.36101210  1
  Se  Se15  1  0.14787022  0.62345469  0.56782568  1
  O  O16  1  0.71798381  0.30327518  0.34013567  1
  O  O17  1  0.68217231  0.53395107  0.46438980  1
  O  O18  1  0.66277040  0.12281099  0.66864918  1
  O  O19  1  0.48440887  0.54585375  0.85478663  1
  O  O20  1  0.17245887  0.25107938  0.25488421  1
  O  O21  1  0.18217231  0.46604893  0.03561020  1
  O  O22  1  0.51559113  0.45414625  0.14521337  1
  O  O23  1  0.20984084  0.13295646  0.94382293  1
  O  O24  1  0.81782769  0.53395107  0.96438980  1
  O  O25  1  0.16277040  0.87718901  0.83135082  1
  O  O26  1  0.83722960  0.12281099  0.16864918  1
  O  O27  1  0.82754113  0.74892062  0.74511579  1
  O  O28  1  0.70984084  0.86704354  0.55617707  1
  O  O29  1  0.33722960  0.87718901  0.33135082  1
  O  O30  1  0.79015916  0.86704354  0.05617707  1
  O  O31  1  0.28201619  0.69672482  0.65986433  1
  O  O32  1  0.32754113  0.25107938  0.75488421  1
  O  O33  1  0.21798381  0.69672482  0.15986433  1
  O  O34  1  0.29015916  0.13295646  0.44382293  1
  O  O35  1  0.78201619  0.30327518  0.84013567  1
  O  O36  1  0.98440887  0.45414625  0.64521337  1
  O  O37  1  0.67245887  0.74892062  0.24511579  1
  O  O38  1  0.31782769  0.46604893  0.53561020  1
  O  O39  1  0.01559113  0.54585375  0.35478663  1
