# generated using pymatgen
data_Na3Ca(BO2)5
_symmetry_space_group_name_H-M   'P 1'
_cell_length_a   7.34661399
_cell_length_b   9.74409151
_cell_length_c   12.73408842
_cell_angle_alpha   90.31830410
_cell_angle_beta   90.73672431
_cell_angle_gamma   109.54823429
_symmetry_Int_Tables_number   1
_chemical_formula_structural   Na3Ca(BO2)5
_chemical_formula_sum   'Na12 Ca4 B20 O40'
_cell_volume   858.92190019
_cell_formula_units_Z   4
loop_
 _symmetry_equiv_pos_site_id
 _symmetry_equiv_pos_as_xyz
  1  'x, y, z'
loop_
 _atom_site_type_symbol
 _atom_site_label
 _atom_site_symmetry_multiplicity
 _atom_site_fract_x
 _atom_site_fract_y
 _atom_site_fract_z
 _atom_site_occupancy
  Na  Na0  1  0.50876805  0.26813140  0.22913268  1
  Na  Na1  1  0.49123195  0.73186860  0.77086732  1
  Na  Na2  1  0.13245675  0.05733474  0.11077601  1
  Na  Na3  1  0.86754325  0.94266526  0.88922399  1
  Na  Na4  1  0.18521214  0.68675087  0.00121678  1
  Na  Na5  1  0.81478786  0.31324913  0.99878322  1
  Na  Na6  1  0.38435418  0.95778424  0.38662505  1
  Na  Na7  1  0.61564582  0.04221576  0.61337495  1
  Na  Na8  1  0.00090068  0.77152539  0.25957210  1
  Na  Na9  1  0.99909932  0.22847461  0.74042790  1
  Na  Na10  1  0.68475419  0.66498112  0.51947758  1
  Na  Na11  1  0.31524581  0.33501888  0.48052242  1
  Ca  Ca12  1  0.47130894  0.61084143  0.26849563  1
  Ca  Ca13  1  0.52869106  0.38915857  0.73150437  1
  Ca  Ca14  1  0.99848589  0.36747411  0.24309346  1
  Ca  Ca15  1  0.00151411  0.63252589  0.75690654  1
  B  B16  1  0.83360545  0.36690216  0.58830628  1
  B  B17  1  0.16639455  0.63309784  0.41169372  1
  B  B18  1  0.69808851  0.40591129  0.41895948  1
  B  B19  1  0.30191149  0.59408871  0.58104052  1
  B  B20  1  0.83959592  0.20109379  0.43732850  1
  B  B21  1  0.16040408  0.79890621  0.56267150  1
  B  B22  1  0.74300739  0.93462904  0.38602583  1
  B  B23  1  0.25699261  0.06537096  0.61397417  1
  B  B24  1  0.07614418  0.09626125  0.34940820  1
  B  B25  1  0.92385582  0.90373875  0.65059180  1
  B  B26  1  0.28549985  0.37047817  0.07664419  1
  B  B27  1  0.71450015  0.62952183  0.92335581  1
  B  B28  1  0.22615721  0.44397230  0.90009978  1
  B  B29  1  0.77384279  0.55602770  0.09990022  1
  B  B30  1  0.33623502  0.22407987  0.92316166  1
  B  B31  1  0.66376498  0.77592013  0.07683834  1
  B  B32  1  0.24466346  0.95811704  0.87519887  1
  B  B33  1  0.75533654  0.04188396  0.12480113  1
  B  B34  1  0.58631237  0.11367515  0.86461409  1
  B  B35  1  0.41368763  0.88632485  0.13538591  1
  O  O36  1  0.84988904  0.39822761  0.69069567  1
  O  O37  1  0.15011096  0.60177239  0.30930433  1
  O  O38  1  0.87024773  0.24780975  0.54767419  1
  O  O39  1  0.12975227  0.75219025  0.45232581  1
  O  O40  1  0.76478747  0.45214071  0.52137256  1
  O  O41  1  0.23521253  0.54785929  0.47862744  1
  O  O42  1  0.75420872  0.29510663  0.37584642  1
  O  O43  1  0.24579128  0.70489337  0.62415358  1
  O  O44  1  0.58192665  0.46521353  0.37199532  1
  O  O45  1  0.41807335  0.53478647  0.62800468  1
  O  O46  1  0.70653883  0.05165418  0.43327946  1
  O  O47  1  0.29346117  0.94834582  0.56672054  1
  O  O48  1  0.02472097  0.21350635  0.38888844  1
  O  O49  1  0.97527903  0.78649365  0.61111156  1
  O  O50  1  0.92684793  0.95982621  0.34496381  1
  O  O51  1  0.07315207  0.04017379  0.65503619  1
  O  O52  1  0.60629692  0.80416793  0.38136440  1
  O  O53  1  0.39370308  0.19583207  0.61863560  1
  O  O54  1  0.25214287  0.11381093  0.31880141  1
  O  O55  1  0.74785713  0.88618907  0.68119859  1
  O  O56  1  0.30261092  0.40231494  0.17867780  1
  O  O57  1  0.69738908  0.59768506  0.82132220  1
  O  O58  1  0.35489596  0.26812673  0.03416091  1
  O  O59  1  0.64510404  0.73187327  0.96583909  1
  O  O60  1  0.19458588  0.44224512  0.00922953  1
  O  O61  1  0.80541412  0.55775488  0.99077047  1
  O  O62  1  0.27219786  0.32768246  0.85817239  1
  O  O63  1  0.72780214  0.67231754  0.14182761  1
  O  O64  1  0.20965160  0.55242402  0.84442197  1
  O  O65  1  0.79034840  0.44757598  0.15557803  1
  O  O66  1  0.19966322  0.07724307  0.91266580  1
  O  O67  1  0.80033678  0.92275693  0.08733420  1
  O  O68  1  0.52606039  0.23420139  0.88317491  1
  O  O69  1  0.47393961  0.76579861  0.11682509  1
  O  O70  1  0.43816513  0.97798768  0.85053321  1
  O  O71  1  0.56183487  0.02201232  0.14946679  1
  O  O72  1  0.10681608  0.82913031  0.86567335  1
  O  O73  1  0.89318392  0.17086969  0.13432665  1
  O  O74  1  0.77175838  0.13240977  0.86183396  1
  O  O75  1  0.22824062  0.86759023  0.13816604  1
