# generated using pymatgen
data_AlH3
_symmetry_space_group_name_H-M   'P 1'
_cell_length_a   5.37911882
_cell_length_b   5.74767381
_cell_length_c   7.34038332
_cell_angle_alpha   90.00000000
_cell_angle_beta   90.00000000
_cell_angle_gamma   90.00000000
_symmetry_Int_Tables_number   1
_chemical_formula_structural   AlH3
_chemical_formula_sum   'Al6 H18'
_cell_volume   226.94571673
_cell_formula_units_Z   6
loop_
 _symmetry_equiv_pos_site_id
 _symmetry_equiv_pos_as_xyz
  1  'x, y, z'
loop_
 _atom_site_type_symbol
 _atom_site_label
 _atom_site_symmetry_multiplicity
 _atom_site_fract_x
 _atom_site_fract_y
 _atom_site_fract_z
 _atom_site_occupancy
  Al  Al0  1  0.21222181  -0.00000000  0.91433890  1
  Al  Al1  1  0.78777719  0.00000000  0.08566110  1
  Al  Al2  1  0.71222281  0.50000000  0.58566110  1
  Al  Al3  1  -0.00000000  0.50000000  0.00000000  1
  Al  Al4  1  0.28777819  0.50000000  0.41433890  1
  Al  Al5  1  0.50000000  0.00000000  0.50000000  1
  H  H6  1  0.79722211  0.70164843  0.08403360  1
  H  H7  1  0.09819315  0.00000000  0.13791224  1
  H  H8  1  0.82566001  0.50000000  0.80089954  1
  H  H9  1  0.20277789  0.70164843  0.91596640  1
  H  H10  1  0.67433999  -0.00000000  0.30089954  1
  H  H11  1  0.59819315  0.50000000  0.36208776  1
  H  H12  1  0.70277789  0.79835157  0.58403360  1
  H  H13  1  0.40180685  0.50000000  0.63791224  1
  H  H14  1  0.17433999  0.50000000  0.19910046  1
  H  H15  1  0.50000000  -0.00000000  0.00000000  1
  H  H16  1  0.90180685  0.00000000  0.86208776  1
  H  H17  1  0.32566001  -0.00000000  0.69910046  1
  H  H18  1  0.29722211  0.79835157  0.41596640  1
  H  H19  1  0.70277789  0.20164843  0.58403360  1
  H  H20  1  0.20277789  0.29835157  0.91596640  1
  H  H21  1  0.29722211  0.20164843  0.41596640  1
  H  H22  1  0.79722211  0.29835157  0.08403360  1
  H  H23  1  -0.00000000  0.50000000  0.50000000  1
