# generated using pymatgen
data_GdSI
_symmetry_space_group_name_H-M   'P 1'
_cell_length_a   4.25482059
_cell_length_b   5.38341976
_cell_length_c   9.59034654
_cell_angle_alpha   90.00000000
_cell_angle_beta   90.00000000
_cell_angle_gamma   90.00000000
_symmetry_Int_Tables_number   1
_chemical_formula_structural   GdSI
_chemical_formula_sum   'Gd2 S2 I2'
_cell_volume   219.67154111
_cell_formula_units_Z   2
loop_
 _symmetry_equiv_pos_site_id
 _symmetry_equiv_pos_as_xyz
  1  'x, y, z'
loop_
 _atom_site_type_symbol
 _atom_site_label
 _atom_site_symmetry_multiplicity
 _atom_site_fract_x
 _atom_site_fract_y
 _atom_site_fract_z
 _atom_site_occupancy
  Gd  Gd0  1  0.75000000  0.75000000  0.87804681  1
  Gd  Gd1  1  0.25000000  0.25000000  0.12195319  1
  S  S2  1  0.75000000  0.25000000  0.93652198  1
  S  S3  1  0.25000000  0.75000000  0.06347802  1
  I  I4  1  0.25000000  0.75000000  0.64619202  1
  I  I5  1  0.75000000  0.25000000  0.35380798  1
