# generated using pymatgen
data_K3GaS3
_symmetry_space_group_name_H-M   'P 1'
_cell_length_a   12.53858509
_cell_length_b   7.75500606
_cell_length_c   10.13250523
_cell_angle_alpha   52.39442084
_cell_angle_beta   90.00000000
_cell_angle_gamma   90.00000000
_symmetry_Int_Tables_number   1
_chemical_formula_structural   K3GaS3
_chemical_formula_sum   'K12 Ga4 S12'
_cell_volume   780.54674666
_cell_formula_units_Z   4
loop_
 _symmetry_equiv_pos_site_id
 _symmetry_equiv_pos_as_xyz
  1  'x, y, z'
loop_
 _atom_site_type_symbol
 _atom_site_label
 _atom_site_symmetry_multiplicity
 _atom_site_fract_x
 _atom_site_fract_y
 _atom_site_fract_z
 _atom_site_occupancy
  K  K0  1  0.91023861  0.34072969  0.39255070  1
  K  K1  1  0.41023861  0.65927031  0.10744930  1
  K  K2  1  0.08976139  0.65927031  0.60744930  1
  K  K3  1  0.58976139  0.34072969  0.89255070  1
  K  K4  1  0.18896627  0.13659622  0.57816318  1
  K  K5  1  0.68896627  0.86340378  0.92183682  1
  K  K6  1  0.81103373  0.86340378  0.42183682  1
  K  K7  1  0.31103373  0.13659622  0.07816318  1
  K  K8  1  0.62547641  0.38038532  0.47343335  1
  K  K9  1  0.12547641  0.61961468  0.02656665  1
  K  K10  1  0.37452359  0.61961468  0.52656665  1
  K  K11  1  0.87452359  0.38038532  0.97343335  1
  Ga  Ga12  1  0.93988916  0.06413429  0.83637831  1
  Ga  Ga13  1  0.43988916  0.93586571  0.66362169  1
  Ga  Ga14  1  0.06011084  0.93586571  0.16362169  1
  Ga  Ga15  1  0.56011084  0.06413429  0.33637831  1
  S  S16  1  0.39319047  0.15525464  0.37871254  1
  S  S17  1  0.89319047  0.84474536  0.12128746  1
  S  S18  1  0.60680953  0.84474536  0.62128746  1
  S  S19  1  0.10680953  0.15525464  0.87871254  1
  S  S20  1  0.67615343  0.34499681  0.18949368  1
  S  S21  1  0.17615343  0.65500319  0.31050632  1
  S  S22  1  0.32384657  0.65500319  0.81050632  1
  S  S23  1  0.82384657  0.34499681  0.68949368  1
  S  S24  1  0.54633730  0.87394222  0.23689076  1
  S  S25  1  0.04633730  0.12605778  0.26310924  1
  S  S26  1  0.45366270  0.12605778  0.76310924  1
  S  S27  1  0.95366270  0.87394222  0.73689076  1
