# generated using pymatgen
data_Ba2LaSbO6
_symmetry_space_group_name_H-M   'P 1'
_cell_length_a   6.09510488
_cell_length_b   6.09537917
_cell_length_c   6.09454752
_cell_angle_alpha   60.46431975
_cell_angle_beta   60.47108055
_cell_angle_gamma   60.46602125
_symmetry_Int_Tables_number   1
_chemical_formula_structural   Ba2LaSbO6
_chemical_formula_sum   'Ba2 La1 Sb1 O6'
_cell_volume   161.79693986
_cell_formula_units_Z   1
loop_
 _symmetry_equiv_pos_site_id
 _symmetry_equiv_pos_as_xyz
  1  'x, y, z'
loop_
 _atom_site_type_symbol
 _atom_site_label
 _atom_site_symmetry_multiplicity
 _atom_site_fract_x
 _atom_site_fract_y
 _atom_site_fract_z
 _atom_site_occupancy
  Ba  Ba0  1  0.74855985  0.74856093  0.74855978  1
  Ba  Ba1  1  0.25144155  0.25144084  0.25143987  1
  La  La2  1  -0.00000005  0.00000012  0.00000075  1
  Sb  Sb3  1  0.49999986  0.50000008  0.50000032  1
  O  O4  1  0.31292217  0.72631930  0.22896684  1
  O  O5  1  0.27367695  0.77103531  0.68707735  1
  O  O6  1  0.22896770  0.31292267  0.72632278  1
  O  O7  1  0.77103170  0.68707743  0.27367910  1
  O  O8  1  0.72632183  0.22896591  0.31292208  1
  O  O9  1  0.68707843  0.27367842  0.77103312  1
