# generated using pymatgen
data_Hg3SO6
_symmetry_space_group_name_H-M   'P 1'
_cell_length_a   7.10967401
_cell_length_b   7.10959758
_cell_length_c   10.13306890
_cell_angle_alpha   89.99888089
_cell_angle_beta   90.00027507
_cell_angle_gamma   119.99955851
_symmetry_Int_Tables_number   1
_chemical_formula_structural   Hg3SO6
_chemical_formula_sum   'Hg9 S3 O18'
_cell_volume   443.57623146
_cell_formula_units_Z   3
loop_
 _symmetry_equiv_pos_site_id
 _symmetry_equiv_pos_as_xyz
  1  'x, y, z'
loop_
 _atom_site_type_symbol
 _atom_site_label
 _atom_site_symmetry_multiplicity
 _atom_site_fract_x
 _atom_site_fract_y
 _atom_site_fract_z
 _atom_site_occupancy
  Hg  Hg0  1  0.50553300  0.19440889  0.68305510  1
  Hg  Hg1  1  0.49447134  0.68888490  0.65027515  1
  Hg  Hg2  1  0.31111613  0.80558016  0.98360899  1
  Hg  Hg3  1  0.70926600  0.00000198  0.33333815  1
  Hg  Hg4  1  0.68888477  0.49446704  0.34972560  1
  Hg  Hg5  1  0.80559255  0.31112045  0.01638523  1
  Hg  Hg6  1  0.29073295  0.29073418  -0.00000614  1
  Hg  Hg7  1  -0.00000011  0.70926837  0.66666528  1
  Hg  Hg8  1  0.19440872  0.50553181  0.31695008  1
  S  S9  1  0.00002321  0.23219169  0.66667938  1
  S  S10  1  0.76780308  0.76780349  -0.00000525  1
  S  S11  1  0.23220492  0.00003265  0.33332624  1
  O  O12  1  0.11389111  0.41183470  0.56988862  1
  O  O13  1  0.14709761  0.47520513  0.04801546  1
  O  O14  1  0.70203014  0.58815927  0.09678396  1
  O  O15  1  0.15851268  0.19430327  0.73835434  1
  O  O16  1  0.29795138  0.88614627  0.23654879  1
  O  O17  1  0.85290382  0.32810539  0.28532006  1
  O  O18  1  0.52478231  0.67188132  0.38136022  1
  O  O19  1  0.67189721  0.52479342  0.61864485  1
  O  O20  1  0.03580292  0.84150239  0.40500124  1
  O  O21  1  0.80567363  0.96419863  0.07167519  1
  O  O22  1  0.58816969  0.70205238  0.90319668  1
  O  O23  1  0.96420235  0.80567480  0.92831777  1
  O  O24  1  0.84148892  0.03579371  0.59499390  1
  O  O25  1  0.32810993  0.85290027  0.71469104  1
  O  O26  1  0.47521071  0.14709941  0.95197205  1
  O  O27  1  0.41179712  0.11386881  0.43011214  1
  O  O28  1  0.19432411  0.15851161  0.26165218  1
  O  O29  1  0.88611879  0.29794362  0.76347068  1
