# generated using pymatgen
data_Cs3PSe4
_symmetry_space_group_name_H-M   'P 1'
_cell_length_a   10.03057703
_cell_length_b   10.07428299
_cell_length_c   12.12989988
_cell_angle_alpha   90.00000000
_cell_angle_beta   90.00000000
_cell_angle_gamma   90.00000000
_symmetry_Int_Tables_number   1
_chemical_formula_structural   Cs3PSe4
_chemical_formula_sum   'Cs12 P4 Se16'
_cell_volume   1225.73695473
_cell_formula_units_Z   4
loop_
 _symmetry_equiv_pos_site_id
 _symmetry_equiv_pos_as_xyz
  1  'x, y, z'
loop_
 _atom_site_type_symbol
 _atom_site_label
 _atom_site_symmetry_multiplicity
 _atom_site_fract_x
 _atom_site_fract_y
 _atom_site_fract_z
 _atom_site_occupancy
  Cs  Cs0  1  0.40475652  0.84332458  0.75000000  1
  Cs  Cs1  1  0.59524348  0.15667542  0.25000000  1
  Cs  Cs2  1  0.09524348  0.34332458  0.75000000  1
  Cs  Cs3  1  0.70455031  0.53521262  0.95993834  1
  Cs  Cs4  1  0.29544969  0.46478738  0.04006166  1
  Cs  Cs5  1  0.90475652  0.65667542  0.25000000  1
  Cs  Cs6  1  0.20455031  0.96478738  0.04006166  1
  Cs  Cs7  1  0.29544969  0.46478738  0.45993834  1
  Cs  Cs8  1  0.20455031  0.96478738  0.45993834  1
  Cs  Cs9  1  0.70455031  0.53521262  0.54006166  1
  Cs  Cs10  1  0.79544969  0.03521262  0.54006166  1
  Cs  Cs11  1  0.79544969  0.03521262  0.95993834  1
  P  P12  1  0.97802889  0.77561471  0.75000000  1
  P  P13  1  0.52197111  0.27561471  0.75000000  1
  P  P14  1  0.02197111  0.22438529  0.25000000  1
  P  P15  1  0.47802889  0.72438529  0.25000000  1
  Se  Se16  1  0.56393672  0.52140152  0.25000000  1
  Se  Se17  1  0.06393672  0.97859848  0.75000000  1
  Se  Se18  1  0.45479177  0.17180072  0.90046111  1
  Se  Se19  1  0.04520823  0.67180072  0.59953889  1
  Se  Se20  1  0.43606328  0.47859848  0.75000000  1
  Se  Se21  1  0.95479177  0.32819928  0.09953889  1
  Se  Se22  1  0.54520823  0.82819928  0.40046111  1
  Se  Se23  1  0.75817574  0.78478005  0.75000000  1
  Se  Se24  1  0.04520823  0.67180072  0.90046111  1
  Se  Se25  1  0.25817574  0.71521995  0.25000000  1
  Se  Se26  1  0.54520823  0.82819928  0.09953889  1
  Se  Se27  1  0.24182426  0.21521995  0.25000000  1
  Se  Se28  1  0.74182426  0.28478005  0.75000000  1
  Se  Se29  1  0.45479177  0.17180072  0.59953889  1
  Se  Se30  1  0.93606328  0.02140152  0.25000000  1
  Se  Se31  1  0.95479177  0.32819928  0.40046111  1
