# generated using pymatgen
data_BaCr2O7
_symmetry_space_group_name_H-M   'P 1'
_cell_length_a   11.63949680
_cell_length_b   11.63950220
_cell_length_c   9.51354671
_cell_angle_alpha   88.05362494
_cell_angle_beta   88.05366180
_cell_angle_gamma   91.17092715
_symmetry_Int_Tables_number   1
_chemical_formula_structural   BaCr2O7
_chemical_formula_sum   'Ba8 Cr16 O56'
_cell_volume   1287.08828699
_cell_formula_units_Z   8
loop_
 _symmetry_equiv_pos_site_id
 _symmetry_equiv_pos_as_xyz
  1  'x, y, z'
loop_
 _atom_site_type_symbol
 _atom_site_label
 _atom_site_symmetry_multiplicity
 _atom_site_fract_x
 _atom_site_fract_y
 _atom_site_fract_z
 _atom_site_occupancy
  Ba  Ba0  1  0.46155015  0.53845054  0.24999985  1
  Ba  Ba1  1  0.53845021  0.46155047  0.75000027  1
  Ba  Ba2  1  0.04261237  0.95738879  0.25000054  1
  Ba  Ba3  1  0.95738618  0.04261119  0.74999888  1
  Ba  Ba4  1  0.55040684  0.03877112  0.71547159  1
  Ba  Ba5  1  0.96123016  0.44959345  0.78453017  1
  Ba  Ba6  1  0.44959247  0.96122887  0.28452819  1
  Ba  Ba7  1  0.03877133  0.55040704  0.21546902  1
  Cr  Cr8  1  0.24936601  0.40711966  0.50098481  1
  Cr  Cr9  1  0.59288177  0.75063318  0.99901616  1
  Cr  Cr10  1  0.75063376  0.59288064  0.49901592  1
  Cr  Cr11  1  0.40711865  0.24936678  0.00098330  1
  Cr  Cr12  1  0.13528999  0.25222419  0.00580083  1
  Cr  Cr13  1  0.74777730  0.86470744  0.49419861  1
  Cr  Cr14  1  0.86471047  0.74777629  0.99419948  1
  Cr  Cr15  1  0.25222170  0.13529024  0.50580234  1
  Cr  Cr16  1  0.90749125  0.25604972  0.45997882  1
  Cr  Cr17  1  0.74395069  0.09250704  0.04002012  1
  Cr  Cr18  1  0.09250768  0.74395013  0.54002062  1
  Cr  Cr19  1  0.25604817  0.90749237  0.95997916  1
  Cr  Cr20  1  0.75453593  0.37226431  0.06184170  1
  Cr  Cr21  1  0.62773367  0.24546412  0.43815709  1
  Cr  Cr22  1  0.24546527  0.62773799  0.93815716  1
  Cr  Cr23  1  0.37226707  0.75453609  0.56184260  1
  O  O24  1  0.61789719  0.57551220  0.45558908  1
  O  O25  1  0.42448514  0.38210504  0.04441392  1
  O  O26  1  0.38210512  0.42448704  0.54441171  1
  O  O27  1  0.57551565  0.61789513  0.95558560  1
  O  O28  1  0.22578700  0.50145533  0.37592833  1
  O  O29  1  0.49854375  0.77421154  0.12407187  1
  O  O30  1  0.77421532  0.49854469  0.62406985  1
  O  O31  1  0.50145644  0.22578828  0.87592709  1
  O  O32  1  0.83713947  0.58224508  0.36487933  1
  O  O33  1  0.41775015  0.16285737  0.13511954  1
  O  O34  1  0.16286126  0.41775559  0.63512241  1
  O  O35  1  0.58225006  0.83714232  0.86487968  1
  O  O36  1  0.23273621  0.27179042  0.42752511  1
  O  O37  1  0.72820939  0.76726202  0.07248254  1
  O  O38  1  0.76726298  0.72820882  0.57247515  1
  O  O39  1  0.27179087  0.23273827  0.92751711  1
  O  O40  1  0.96183232  0.76506447  0.11201035  1
  O  O41  1  0.23493617  0.03817028  0.38799055  1
  O  O42  1  0.03816898  0.23493665  0.88798867  1
  O  O43  1  0.76506141  0.96182850  0.61200907  1
  O  O44  1  0.13233012  0.38212750  0.05907733  1
  O  O45  1  0.61787487  0.86766970  0.44092085  1
  O  O46  1  0.86767036  0.61787291  0.94092322  1
  O  O47  1  0.38212495  0.13232898  0.55907903  1
  O  O48  1  0.11625037  0.16172273  0.13616602  1
  O  O49  1  0.83827544  0.88375145  0.36383265  1
  O  O50  1  0.88374957  0.83827718  0.86383298  1
  O  O51  1  0.16172369  0.11624678  0.63616827  1
  O  O52  1  0.10231587  0.74013712  0.36888806  1
  O  O53  1  0.25986048  0.89768618  0.13111113  1
  O  O54  1  0.89768510  0.25986322  0.63111072  1
  O  O55  1  0.74013861  0.10231402  0.86888841  1
  O  O56  1  0.95336614  0.12987737  0.42122861  1
  O  O57  1  0.87012316  0.04663128  0.07877437  1
  O  O58  1  0.04663273  0.87012295  0.57877400  1
  O  O59  1  0.12987638  0.95336898  0.92122858  1
  O  O60  1  0.99219165  0.35782318  0.39743246  1
  O  O61  1  0.64217539  0.00780844  0.10256699  1
  O  O62  1  0.00780807  0.64217515  0.60256740  1
  O  O63  1  0.35782229  0.99219337  0.89743501  1
  O  O64  1  0.77220058  0.28012896  0.39096399  1
  O  O65  1  0.71987199  0.22779899  0.10903700  1
  O  O66  1  0.22780005  0.71986984  0.60903826  1
  O  O67  1  0.28012723  0.77220184  0.89096406  1
  O  O68  1  0.89045987  0.39859168  0.08209702  1
  O  O69  1  0.60140825  0.10954131  0.41790242  1
  O  O70  1  0.10954230  0.60140935  0.91790181  1
  O  O71  1  0.39859156  0.89045945  0.58209879  1
  O  O72  1  0.26943092  0.60949149  0.10468452  1
  O  O73  1  0.39051184  0.73056937  0.39531423  1
  O  O74  1  0.73056887  0.39051026  0.89531320  1
  O  O75  1  0.60948752  0.26943114  0.60468471  1
  O  O76  1  0.67594385  0.45524559  0.15362713  1
  O  O77  1  0.54475321  0.32405513  0.34637077  1
  O  O78  1  0.32405715  0.54475654  0.84637311  1
  O  O79  1  0.45524756  0.67594386  0.65362870  1
