# generated using pymatgen
data_NaTi2Al5O12
_symmetry_space_group_name_H-M   'P 1'
_cell_length_a   2.91654669
_cell_length_b   9.07339572
_cell_length_c   15.32135530
_cell_angle_alpha   90.00000000
_cell_angle_beta   90.00000000
_cell_angle_gamma   90.00000000
_symmetry_Int_Tables_number   1
_chemical_formula_structural   NaTi2Al5O12
_chemical_formula_sum   'Na2 Ti4 Al10 O24'
_cell_volume   405.44875341
_cell_formula_units_Z   2
loop_
 _symmetry_equiv_pos_site_id
 _symmetry_equiv_pos_as_xyz
  1  'x, y, z'
loop_
 _atom_site_type_symbol
 _atom_site_label
 _atom_site_symmetry_multiplicity
 _atom_site_fract_x
 _atom_site_fract_y
 _atom_site_fract_z
 _atom_site_occupancy
  Na  Na0  1  0.50000000  0.50000000  -0.00000000  1
  Na  Na1  1  0.50000000  0.00000000  0.50000000  1
  Ti  Ti2  1  0.50000000  0.73377389  0.35718773  1
  Ti  Ti3  1  0.50000000  0.26622611  0.64281227  1
  Ti  Ti4  1  0.50000000  0.76622611  0.85718773  1
  Ti  Ti5  1  0.50000000  0.23377389  0.14281227  1
  Al  Al6  1  0.00000000  0.00000000  -0.00000000  1
  Al  Al7  1  0.00000000  0.48544851  0.80178916  1
  Al  Al8  1  0.00000000  0.01455149  0.30178916  1
  Al  Al9  1  0.00000000  0.51455149  0.19821084  1
  Al  Al10  1  0.50000000  0.18707979  0.85324844  1
  Al  Al11  1  0.50000000  0.81292021  0.14675156  1
  Al  Al12  1  0.00000000  0.98544851  0.69821084  1
  Al  Al13  1  0.50000000  0.68707979  0.64675156  1
  Al  Al14  1  0.50000000  0.31292021  0.35324844  1
  Al  Al15  1  0.00000000  0.50000000  0.50000000  1
  O  O16  1  0.50000000  0.39232465  0.55035239  1
  O  O17  1  -0.00000000  0.13097400  0.90560193  1
  O  O18  1  0.50000000  0.11813101  0.35240632  1
  O  O19  1  -0.00000000  0.35840764  0.70528808  1
  O  O20  1  0.50000000  0.38186899  0.85240632  1
  O  O21  1  0.50000000  0.61813101  0.14759368  1
  O  O22  1  0.50000000  0.10767535  0.05035239  1
  O  O23  1  -0.00000000  0.86902600  0.09439807  1
  O  O24  1  0.00000000  0.63097400  0.59439807  1
  O  O25  1  -0.00000000  0.85840764  0.79471192  1
  O  O26  1  0.00000000  0.14159236  0.20528808  1
  O  O27  1  0.00000000  0.12995020  0.60471609  1
  O  O28  1  0.50000000  0.60425130  0.75310524  1
  O  O29  1  0.00000000  0.87004980  0.39528391  1
  O  O30  1  0.00000000  0.64159236  0.29471192  1
  O  O31  1  -0.00000000  0.62995020  0.89528391  1
  O  O32  1  0.50000000  0.89232465  0.94964761  1
  O  O33  1  0.50000000  0.10425130  0.74689476  1
  O  O34  1  0.50000000  0.60767535  0.44964761  1
  O  O35  1  0.50000000  0.89574870  0.25310524  1
  O  O36  1  0.00000000  0.36902600  0.40560193  1
  O  O37  1  0.50000000  0.39574870  0.24689476  1
  O  O38  1  -0.00000000  0.37004980  0.10471609  1
  O  O39  1  0.50000000  0.88186899  0.64759368  1
