# generated using pymatgen
data_Rb2(ReS2)3
_symmetry_space_group_name_H-M   'P 1'
_cell_length_a   9.84401768
_cell_length_b   9.84400838
_cell_length_c   12.06767192
_cell_angle_alpha   88.86432108
_cell_angle_beta   88.86427132
_cell_angle_gamma   60.26323318
_symmetry_Int_Tables_number   1
_chemical_formula_structural   Rb2(ReS2)3
_chemical_formula_sum   'Rb8 Re12 S24'
_cell_volume   1015.15014769
_cell_formula_units_Z   4
loop_
 _symmetry_equiv_pos_site_id
 _symmetry_equiv_pos_as_xyz
  1  'x, y, z'
loop_
 _atom_site_type_symbol
 _atom_site_label
 _atom_site_symmetry_multiplicity
 _atom_site_fract_x
 _atom_site_fract_y
 _atom_site_fract_z
 _atom_site_occupancy
  Rb  Rb0  1  0.61918102  0.38081922  0.24999997  1
  Rb  Rb1  1  0.86090500  0.36696245  0.48026462  1
  Rb  Rb2  1  0.21621304  0.78378686  0.24999968  1
  Rb  Rb3  1  0.13910164  0.63302862  0.51977355  1
  Rb  Rb4  1  0.78379141  0.21620892  0.74999966  1
  Rb  Rb5  1  0.36696804  0.86090299  0.98022624  1
  Rb  Rb6  1  0.38080821  0.61919174  0.74999978  1
  Rb  Rb7  1  0.63303801  0.13909376  0.01973409  1
  Re  Re8  1  0.99732234  0.68807158  0.97817896  1
  Re  Re9  1  0.53861493  0.88043283  0.37340377  1
  Re  Re10  1  0.11956732  0.46138378  0.12659593  1
  Re  Re11  1  0.88043307  0.53861215  0.87339540  1
  Re  Re12  1  0.00267544  0.31192073  0.02179424  1
  Re  Re13  1  0.39917713  0.18131090  0.41351814  1
  Re  Re14  1  0.18130920  0.39917055  0.91350900  1
  Re  Re15  1  0.81868838  0.60082390  0.08648109  1
  Re  Re16  1  0.31192943  0.00267566  0.52182149  1
  Re  Re17  1  0.68808051  0.99732451  0.47820568  1
  Re  Re18  1  0.46138830  0.11956718  0.62660398  1
  Re  Re19  1  0.60083011  0.81869023  0.58649051  1
  S  S20  1  0.73160395  0.93711227  0.67241249  1
  S  S21  1  0.06288667  0.26839637  0.82758649  1
  S  S22  1  0.94940918  0.38217088  0.21424823  1
  S  S23  1  0.20090055  0.27798217  0.55947305  1
  S  S24  1  0.72727906  0.57718601  0.70289594  1
  S  S25  1  0.57719186  0.72727899  0.20290125  1
  S  S26  1  0.72201694  0.79909931  0.94052645  1
  S  S27  1  0.54482997  0.27741364  0.51775854  1
  S  S28  1  0.27797667  0.20089490  0.05944658  1
  S  S29  1  0.93508677  0.00224804  0.42974284  1
  S  S30  1  0.99775327  0.06491512  0.07025961  1
  S  S31  1  0.61782922  0.05059048  0.28575202  1
  S  S32  1  0.79910497  0.72202380  0.44055448  1
  S  S33  1  0.38216500  0.94941311  0.71427280  1
  S  S34  1  0.26839614  0.06289027  0.32761707  1
  S  S35  1  0.06490634  0.99775194  0.57027792  1
  S  S36  1  0.00224878  0.93509236  0.92972474  1
  S  S37  1  0.27271944  0.42280943  0.29709853  1
  S  S38  1  0.42281481  0.27272217  0.79710550  1
  S  S39  1  0.27740791  0.54483111  0.01773697  1
  S  S40  1  0.05058671  0.61783516  0.78572621  1
  S  S41  1  0.93710952  0.73160391  0.17238282  1
  S  S42  1  0.72258703  0.45516895  0.98224133  1
  S  S43  1  0.45516972  0.72259106  0.48226236  1
