# generated using pymatgen
data_IrF6
_symmetry_space_group_name_H-M   'P 1'
_cell_length_a   4.92921834
_cell_length_b   8.50097651
_cell_length_c   9.30116834
_cell_angle_alpha   90.00000000
_cell_angle_beta   90.00008776
_cell_angle_gamma   90.00000000
_symmetry_Int_Tables_number   1
_chemical_formula_structural   IrF6
_chemical_formula_sum   'Ir4 F24'
_cell_volume   389.74843183
_cell_formula_units_Z   4
loop_
 _symmetry_equiv_pos_site_id
 _symmetry_equiv_pos_as_xyz
  1  'x, y, z'
loop_
 _atom_site_type_symbol
 _atom_site_label
 _atom_site_symmetry_multiplicity
 _atom_site_fract_x
 _atom_site_fract_y
 _atom_site_fract_z
 _atom_site_occupancy
  Ir  Ir0  1  0.59014698  0.25000000  0.12711581  1
  Ir  Ir1  1  0.90985302  0.25000000  0.62711581  1
  Ir  Ir2  1  0.40985302  0.75000000  0.87288419  1
  Ir  Ir3  1  0.09014698  0.75000000  0.37288419  1
  F  F4  1  0.24754031  0.59555223  0.48719717  1
  F  F5  1  0.25245969  0.90444777  0.98719717  1
  F  F6  1  0.93409433  0.90471146  0.25866708  1
  F  F7  1  0.21476876  0.25000000  0.50964826  1
  F  F8  1  0.74754031  0.09555223  0.01280283  1
  F  F9  1  0.56590567  0.90471146  0.75866708  1
  F  F10  1  0.28523124  0.25000000  0.00964826  1
  F  F11  1  0.24754031  0.90444777  0.48719717  1
  F  F12  1  0.75245969  0.40444777  0.51280283  1
  F  F13  1  0.43409433  0.40471146  0.24133292  1
  F  F14  1  0.74754031  0.40444777  0.01280283  1
  F  F15  1  0.78523124  0.75000000  0.49035174  1
  F  F16  1  0.71476876  0.75000000  0.99035174  1
  F  F17  1  0.25245969  0.59555223  0.98719717  1
  F  F18  1  0.43409433  0.09528854  0.24133292  1
  F  F19  1  0.06590567  0.40471146  0.74133292  1
  F  F20  1  0.60449706  0.25000000  0.74465675  1
  F  F21  1  0.56590567  0.59528854  0.75866708  1
  F  F22  1  0.89550194  0.25000000  0.24465675  1
  F  F23  1  0.10449806  0.75000000  0.75534325  1
  F  F24  1  0.06590567  0.09528854  0.74133292  1
  F  F25  1  0.93409433  0.59528854  0.25866708  1
  F  F26  1  0.39550294  0.75000000  0.25534325  1
  F  F27  1  0.75245969  0.09555223  0.51280283  1
