# generated using pymatgen
data_Nd2Te4O11
_symmetry_space_group_name_H-M   'P 1'
_cell_length_a   6.84461486
_cell_length_b   6.84461486
_cell_length_c   16.34603399
_cell_angle_alpha   75.61317069
_cell_angle_beta   75.61317069
_cell_angle_gamma   44.99062043
_symmetry_Int_Tables_number   1
_chemical_formula_structural   Nd2Te4O11
_chemical_formula_sum   'Nd4 Te8 O22'
_cell_volume   521.46198547
_cell_formula_units_Z   2
loop_
 _symmetry_equiv_pos_site_id
 _symmetry_equiv_pos_as_xyz
  1  'x, y, z'
loop_
 _atom_site_type_symbol
 _atom_site_label
 _atom_site_symmetry_multiplicity
 _atom_site_fract_x
 _atom_site_fract_y
 _atom_site_fract_z
 _atom_site_occupancy
  Nd  Nd0  1  0.13656635  0.62745742  0.53727133  1
  Nd  Nd1  1  0.37254258  0.86343365  0.96272867  1
  Nd  Nd2  1  0.86343365  0.37254258  0.46272867  1
  Nd  Nd3  1  0.62745742  0.13656635  0.03727133  1
  Te  Te4  1  0.60568133  0.15499534  0.70138854  1
  Te  Te5  1  0.84500466  0.39431867  0.79861146  1
  Te  Te6  1  0.39431867  0.84500466  0.29861146  1
  Te  Te7  1  0.15499534  0.60568133  0.20138854  1
  Te  Te8  1  0.14965899  0.58949447  0.87196374  1
  Te  Te9  1  0.41050553  0.85034101  0.62803626  1
  Te  Te10  1  0.85034101  0.41050553  0.12803626  1
  Te  Te11  1  0.58949447  0.14965899  0.37196374  1
  O  O12  1  0.85085189  0.14914811  0.75000000  1
  O  O13  1  0.14914811  0.85085189  0.25000000  1
  O  O14  1  0.19885819  0.09470165  0.82874089  1
  O  O15  1  0.90529835  0.80114181  0.67125911  1
  O  O16  1  0.80114181  0.90529835  0.17125911  1
  O  O17  1  0.09470165  0.19885819  0.32874089  1
  O  O18  1  0.61901656  0.43140227  0.89990261  1
  O  O19  1  0.56859773  0.38098344  0.60009739  1
  O  O20  1  0.38098344  0.56859773  0.10009739  1
  O  O21  1  0.43140227  0.61901656  0.39990261  1
  O  O22  1  0.04805256  0.80704883  0.95288100  1
  O  O23  1  0.19295117  0.95194744  0.54711900  1
  O  O24  1  0.68118451  0.81610998  0.37182341  1
  O  O25  1  0.18389002  0.31881549  0.12817659  1
  O  O26  1  0.31881549  0.18389002  0.62817659  1
  O  O27  1  0.81610998  0.68118451  0.87182341  1
  O  O28  1  0.25394083  0.33082382  0.44294792  1
  O  O29  1  0.66917618  0.74605917  0.05705208  1
  O  O30  1  0.74605917  0.66917618  0.55705208  1
  O  O31  1  0.33082382  0.25394083  0.94294792  1
  O  O32  1  0.80704883  0.04805256  0.45288100  1
  O  O33  1  0.95194744  0.19295117  0.04711900  1
