# generated using pymatgen
data_NbBr5
_symmetry_space_group_name_H-M   'P 1'
_cell_length_a   6.70591117
_cell_length_b   7.28632646
_cell_length_c   9.84536986
_cell_angle_alpha   109.16650496
_cell_angle_beta   90.84579368
_cell_angle_gamma   116.25511009
_symmetry_Int_Tables_number   1
_chemical_formula_structural   NbBr5
_chemical_formula_sum   'Nb2 Br10'
_cell_volume   400.18044207
_cell_formula_units_Z   2
loop_
 _symmetry_equiv_pos_site_id
 _symmetry_equiv_pos_as_xyz
  1  'x, y, z'
loop_
 _atom_site_type_symbol
 _atom_site_label
 _atom_site_symmetry_multiplicity
 _atom_site_fract_x
 _atom_site_fract_y
 _atom_site_fract_z
 _atom_site_occupancy
  Nb  Nb0  1  0.10488936  0.21951599  0.72156291  1
  Nb  Nb1  1  0.89511064  0.78048401  0.27843709  1
  Br  Br2  1  0.87903172  0.37634433  0.64840951  1
  Br  Br3  1  0.23923856  0.18222856  0.45614206  1
  Br  Br4  1  0.12096828  0.62365567  0.35159049  1
  Br  Br5  1  0.55605031  0.42436435  0.17007510  1
  Br  Br6  1  0.44394969  0.57563565  0.82992490  1
  Br  Br7  1  0.69665423  0.99031749  0.25283507  1
  Br  Br8  1  0.76076144  0.81777144  0.54385794  1
  Br  Br9  1  0.07386599  0.81566537  0.06810048  1
  Br  Br10  1  0.92613401  0.18433463  0.93189952  1
  Br  Br11  1  0.30334577  0.00968251  0.74716493  1
