# generated using pymatgen
data_MgTe2O5
_symmetry_space_group_name_H-M   'P 1'
_cell_length_a   5.96312093
_cell_length_b   7.28705469
_cell_length_c   10.67176939
_cell_angle_alpha   90.00000000
_cell_angle_beta   90.00000000
_cell_angle_gamma   90.00000000
_symmetry_Int_Tables_number   1
_chemical_formula_structural   MgTe2O5
_chemical_formula_sum   'Mg4 Te8 O20'
_cell_volume   463.72667393
_cell_formula_units_Z   4
loop_
 _symmetry_equiv_pos_site_id
 _symmetry_equiv_pos_as_xyz
  1  'x, y, z'
loop_
 _atom_site_type_symbol
 _atom_site_label
 _atom_site_symmetry_multiplicity
 _atom_site_fract_x
 _atom_site_fract_y
 _atom_site_fract_z
 _atom_site_occupancy
  Mg  Mg0  1  0.25000000  0.00000000  0.44162557  1
  Mg  Mg1  1  0.75000000  0.50000000  0.05837443  1
  Mg  Mg2  1  0.75000000  0.00000000  0.55837443  1
  Mg  Mg3  1  0.25000000  0.50000000  0.94162557  1
  Te  Te4  1  0.49146652  0.86564850  0.15403461  1
  Te  Te5  1  0.99146652  0.63435150  0.34596539  1
  Te  Te6  1  0.50853348  0.36564850  0.34596539  1
  Te  Te7  1  0.00853348  0.13435150  0.15403461  1
  Te  Te8  1  0.99146652  0.86564850  0.84596539  1
  Te  Te9  1  0.49146652  0.63435150  0.65403461  1
  Te  Te10  1  0.00853348  0.36564850  0.65403461  1
  Te  Te11  1  0.50853348  0.13435150  0.84596539  1
  O  O12  1  0.25000000  0.50000000  0.56098148  1
  O  O13  1  0.75000000  0.00000000  0.93901852  1
  O  O14  1  0.75000000  0.50000000  0.43901852  1
  O  O15  1  0.25000000  0.00000000  0.06098148  1
  O  O16  1  0.55081705  0.35092049  0.93485015  1
  O  O17  1  0.05081705  0.14907951  0.56514985  1
  O  O18  1  0.44918295  0.85092049  0.56514985  1
  O  O19  1  0.94918295  0.64907951  0.93485015  1
  O  O20  1  0.44918295  0.64907951  0.06514985  1
  O  O21  1  0.94918295  0.85092049  0.43485015  1
  O  O22  1  0.55081705  0.14907951  0.43485015  1
  O  O23  1  0.05081705  0.35092049  0.06514985  1
  O  O24  1  0.18728679  0.18968859  0.29346510  1
  O  O25  1  0.68728679  0.31031141  0.20653490  1
  O  O26  1  0.81271321  0.68968859  0.20653490  1
  O  O27  1  0.31271321  0.81031141  0.29346510  1
  O  O28  1  0.81271321  0.81031141  0.70653490  1
  O  O29  1  0.31271321  0.68968859  0.79346510  1
  O  O30  1  0.18728679  0.31031141  0.79346510  1
  O  O31  1  0.68728679  0.18968859  0.70653490  1
