# generated using pymatgen
data_CsH5O3
_symmetry_space_group_name_H-M   'P 1'
_cell_length_a   6.71468113
_cell_length_b   9.00112029
_cell_length_c   13.11662147
_cell_angle_alpha   90.00000000
_cell_angle_beta   90.00000000
_cell_angle_gamma   90.00000000
_symmetry_Int_Tables_number   1
_chemical_formula_structural   CsH5O3
_chemical_formula_sum   'Cs8 H40 O24'
_cell_volume   792.76404441
_cell_formula_units_Z   8
loop_
 _symmetry_equiv_pos_site_id
 _symmetry_equiv_pos_as_xyz
  1  'x, y, z'
loop_
 _atom_site_type_symbol
 _atom_site_label
 _atom_site_symmetry_multiplicity
 _atom_site_fract_x
 _atom_site_fract_y
 _atom_site_fract_z
 _atom_site_occupancy
  Cs  Cs0  1  0.40002623  0.50640509  0.15435739  1
  Cs  Cs1  1  0.59997377  0.00640509  0.84564261  1
  Cs  Cs2  1  0.59997377  0.50640509  0.65435739  1
  Cs  Cs3  1  0.40002623  0.00640509  0.34564261  1
  Cs  Cs4  1  0.06556762  0.61985830  0.42153489  1
  Cs  Cs5  1  0.93443238  0.11985830  0.57846511  1
  Cs  Cs6  1  0.93443238  0.61985830  0.92153489  1
  Cs  Cs7  1  0.06556762  0.11985830  0.07846511  1
  H  H8  1  0.70668691  0.20173203  0.22439486  1
  H  H9  1  0.29331309  0.70173203  0.77560514  1
  H  H10  1  0.29331309  0.20173203  0.72439486  1
  H  H11  1  0.70668691  0.70173203  0.27560514  1
  H  H12  1  0.24940227  0.36479902  0.53603362  1
  H  H13  1  0.75059773  0.86479902  0.46396638  1
  H  H14  1  0.75059773  0.36479902  0.03603362  1
  H  H15  1  0.24940227  0.86479902  0.96396638  1
  H  H16  1  0.86626165  0.39584846  0.19759741  1
  H  H17  1  0.13373835  0.89584846  0.80240259  1
  H  H18  1  0.13373835  0.39584846  0.69759741  1
  H  H19  1  0.86626165  0.89584846  0.30240259  1
  H  H20  1  0.86446904  0.57231762  0.17800592  1
  H  H21  1  0.13553096  0.07231762  0.82199408  1
  H  H22  1  0.13553096  0.57231762  0.67800592  1
  H  H23  1  0.86446904  0.07231762  0.32199408  1
  H  H24  1  0.58377512  0.52467036  0.39129277  1
  H  H25  1  0.41622488  0.02467036  0.60870723  1
  H  H26  1  0.41622488  0.52467036  0.89129277  1
  H  H27  1  0.58377512  0.02467036  0.10870723  1
  H  H28  1  0.58852345  0.69044072  0.42837554  1
  H  H29  1  0.41147655  0.19044072  0.57162446  1
  H  H30  1  0.41147655  0.69044072  0.92837554  1
  H  H31  1  0.58852345  0.19044072  0.07162446  1
  H  H32  1  0.72225647  0.30843176  0.37223863  1
  H  H33  1  0.27774353  0.80843176  0.62776137  1
  H  H34  1  0.27774353  0.30843176  0.87223863  1
  H  H35  1  0.72225647  0.80843176  0.12776137  1
  H  H36  1  0.54338838  0.33052467  0.45589817  1
  H  H37  1  0.45661162  0.83052467  0.54410183  1
  H  H38  1  0.45661162  0.33052467  0.95589817  1
  H  H39  1  0.54338838  0.83052467  0.04410183  1
  H  H40  1  0.05034271  0.28152180  0.29571123  1
  H  H41  1  0.94965729  0.78152180  0.70428877  1
  H  H42  1  0.94965729  0.28152180  0.79571123  1
  H  H43  1  0.05034271  0.78152180  0.20428877  1
  H  H44  1  0.22680058  0.30571188  0.37818055  1
  H  H45  1  0.77319942  0.80571188  0.62181945  1
  H  H46  1  0.77319942  0.30571188  0.87818055  1
  H  H47  1  0.22680058  0.80571188  0.12181945  1
  O  O48  1  0.80754201  0.23646470  0.27247436  1
  O  O49  1  0.19245799  0.73646470  0.72752564  1
  O  O50  1  0.19245799  0.23646470  0.77247436  1
  O  O51  1  0.80754201  0.73646470  0.22752564  1
  O  O52  1  0.31336969  0.29339165  0.49108812  1
  O  O53  1  0.68663031  0.79339165  0.50891188  1
  O  O54  1  0.68663031  0.29339165  0.99108812  1
  O  O55  1  0.31336969  0.79339165  0.00891188  1
  O  O56  1  0.89292309  0.47322847  0.14533610  1
  O  O57  1  0.10707691  0.97322847  0.85466390  1
  O  O58  1  0.10707691  0.47322847  0.64533610  1
  O  O59  1  0.89292309  0.97322847  0.35466390  1
  O  O60  1  0.52934347  0.62334042  0.37350782  1
  O  O61  1  0.47065653  0.12334042  0.62649218  1
  O  O62  1  0.47065653  0.62334042  0.87350782  1
  O  O63  1  0.52934347  0.12334042  0.12649218  1
  O  O64  1  0.68382931  0.35932968  0.43865778  1
  O  O65  1  0.31617069  0.85932968  0.56134222  1
  O  O66  1  0.31617069  0.35932968  0.93865778  1
  O  O67  1  0.68382931  0.85932968  0.06134222  1
  O  O68  1  0.18976902  0.31298437  0.30390177  1
  O  O69  1  0.81023098  0.81298437  0.69609823  1
  O  O70  1  0.81023098  0.31298437  0.80390177  1
  O  O71  1  0.18976902  0.81298437  0.19609823  1
