# generated using pymatgen
data_LiZr2(PO4)3
_symmetry_space_group_name_H-M   'P 1'
_cell_length_a   8.88060350
_cell_length_b   8.88060333
_cell_length_c   8.88060299
_cell_angle_alpha   59.59344917
_cell_angle_beta   59.59344695
_cell_angle_gamma   59.59345427
_symmetry_Int_Tables_number   1
_chemical_formula_structural   LiZr2(PO4)3
_chemical_formula_sum   'Li2 Zr4 P6 O24'
_cell_volume   490.65986328
_cell_formula_units_Z   2
loop_
 _symmetry_equiv_pos_site_id
 _symmetry_equiv_pos_as_xyz
  1  'x, y, z'
loop_
 _atom_site_type_symbol
 _atom_site_label
 _atom_site_symmetry_multiplicity
 _atom_site_fract_x
 _atom_site_fract_y
 _atom_site_fract_z
 _atom_site_occupancy
  Li  Li0  1  -0.00000000  -0.00000000  0.00000000  1
  Li  Li1  1  0.50000000  0.50000000  0.50000000  1
  Zr  Zr2  1  0.14228134  0.14228134  0.14228134  1
  Zr  Zr3  1  0.35771866  0.35771866  0.35771866  1
  Zr  Zr4  1  0.85771866  0.85771866  0.85771866  1
  Zr  Zr5  1  0.64228134  0.64228134  0.64228134  1
  P  P6  1  0.54414345  0.95585655  0.25000000  1
  P  P7  1  0.25000000  0.54414345  0.95585655  1
  P  P8  1  0.95585655  0.25000000  0.54414345  1
  P  P9  1  0.45585655  0.04414345  0.75000000  1
  P  P10  1  0.75000000  0.45585655  0.04414345  1
  P  P11  1  0.04414345  0.75000000  0.45585655  1
  O  O12  1  0.38813024  -0.00021100  0.19115081  1
  O  O13  1  0.19115081  0.38813024  -0.00021100  1
  O  O14  1  -0.00021100  0.19115081  0.38813024  1
  O  O15  1  0.50021100  0.11186976  0.30884919  1
  O  O16  1  0.30884919  0.50021100  0.11186976  1
  O  O17  1  0.11186976  0.30884919  0.50021100  1
  O  O18  1  0.61186976  0.00021100  0.80884919  1
  O  O19  1  0.80884919  0.61186976  0.00021100  1
  O  O20  1  0.00021100  0.80884919  0.61186976  1
  O  O21  1  0.49978900  0.88813024  0.69115081  1
  O  O22  1  0.69115081  0.49978900  0.88813024  1
  O  O23  1  0.88813024  0.69115081  0.49978900  1
  O  O24  1  0.27069773  0.05939054  0.90963312  1
  O  O25  1  0.90963312  0.27069773  0.05939054  1
  O  O26  1  0.05939054  0.90963312  0.27069773  1
  O  O27  1  0.44060946  0.22930227  0.59036688  1
  O  O28  1  0.59036688  0.44060946  0.22930227  1
  O  O29  1  0.22930227  0.59036688  0.44060946  1
  O  O30  1  0.72930227  0.94061046  0.09036688  1
  O  O31  1  0.09036688  0.72930227  0.94061046  1
  O  O32  1  0.94061046  0.09036688  0.72930227  1
  O  O33  1  0.55938954  0.77069773  0.40963312  1
  O  O34  1  0.40963312  0.55938954  0.77069773  1
  O  O35  1  0.77069773  0.40963312  0.55938954  1
