# generated using pymatgen
data_NaAsO2
_symmetry_space_group_name_H-M   'P 1'
_cell_length_a   5.03695026
_cell_length_b   6.75611447
_cell_length_c   14.81565341
_cell_angle_alpha   90.00000000
_cell_angle_beta   90.00000000
_cell_angle_gamma   90.00000000
_symmetry_Int_Tables_number   1
_chemical_formula_structural   NaAsO2
_chemical_formula_sum   'Na8 As8 O16'
_cell_volume   504.17983441
_cell_formula_units_Z   8
loop_
 _symmetry_equiv_pos_site_id
 _symmetry_equiv_pos_as_xyz
  1  'x, y, z'
loop_
 _atom_site_type_symbol
 _atom_site_label
 _atom_site_symmetry_multiplicity
 _atom_site_fract_x
 _atom_site_fract_y
 _atom_site_fract_z
 _atom_site_occupancy
  Na  Na0  1  0.26132893  0.60188782  0.80247586  1
  Na  Na1  1  0.76132893  0.39811218  0.69752414  1
  Na  Na2  1  0.23867107  0.10188782  0.19752414  1
  Na  Na3  1  0.26132893  0.10188782  0.69752414  1
  Na  Na4  1  0.23867107  0.60188782  0.30247586  1
  Na  Na5  1  0.73867107  0.89811218  0.30247586  1
  Na  Na6  1  0.73867107  0.39811218  0.19752414  1
  Na  Na7  1  0.76132893  0.89811218  0.80247586  1
  As  As8  1  0.25794938  0.60146516  0.08212537  1
  As  As9  1  0.75794938  0.39853484  0.41787463  1
  As  As10  1  0.74205062  0.89853484  0.58212537  1
  As  As11  1  0.24205062  0.60146516  0.58212537  1
  As  As12  1  0.25794938  0.10146516  0.41787463  1
  As  As13  1  0.74205062  0.39853484  0.91787463  1
  As  As14  1  0.24205062  0.10146516  0.91787463  1
  As  As15  1  0.75794938  0.89853484  0.08212537  1
  O  O16  1  0.29856000  0.92961944  0.83564455  1
  O  O17  1  0.57020443  0.18973929  0.36922394  1
  O  O18  1  0.79856000  0.07038056  0.66435545  1
  O  O19  1  0.20144000  0.42961944  0.16435545  1
  O  O20  1  0.42979557  0.81026071  0.63077606  1
  O  O21  1  0.92979557  0.18973929  0.86922394  1
  O  O22  1  0.79856000  0.57038056  0.83564455  1
  O  O23  1  0.92979557  0.68973929  0.63077606  1
  O  O24  1  0.29856000  0.42961944  0.66435545  1
  O  O25  1  0.07020443  0.81026071  0.13077606  1
  O  O26  1  0.42979557  0.31026071  0.86922394  1
  O  O27  1  0.70144000  0.57038056  0.33564455  1
  O  O28  1  0.07020443  0.31026071  0.36922394  1
  O  O29  1  0.57020443  0.68973929  0.13077606  1
  O  O30  1  0.20144000  0.92961944  0.33564455  1
  O  O31  1  0.70144000  0.07038056  0.16435545  1
