# generated using pymatgen
data_Li4Mn3Cl10
_symmetry_space_group_name_H-M   'P 1'
_cell_length_a   7.45310600
_cell_length_b   7.45310600
_cell_length_c   30.73705434
_cell_angle_alpha   83.32098255
_cell_angle_beta   83.32098255
_cell_angle_gamma   60.57176165
_symmetry_Int_Tables_number   1
_chemical_formula_structural   Li4Mn3Cl10
_chemical_formula_sum   'Li16 Mn12 Cl40'
_cell_volume   1473.55185535
_cell_formula_units_Z   4
loop_
 _symmetry_equiv_pos_site_id
 _symmetry_equiv_pos_as_xyz
  1  'x, y, z'
loop_
 _atom_site_type_symbol
 _atom_site_label
 _atom_site_symmetry_multiplicity
 _atom_site_fract_x
 _atom_site_fract_y
 _atom_site_fract_z
 _atom_site_occupancy
  Li  Li0  1  0.69309200  0.69309200  0.90093800  1
  Li  Li1  1  0.96848000  0.96848000  0.57253300  1
  Li  Li2  1  0.09859400  0.09859400  0.70017900  1
  Li  Li3  1  0.23266800  0.23266800  0.82471100  1
  Li  Li4  1  0.36835300  0.36835300  0.37294800  1
  Li  Li5  1  0.30044500  0.30044500  0.60011700  1
  Li  Li6  1  0.50004800  0.50004800  0.50006200  1
  Li  Li7  1  0.76767100  0.76767100  0.17436400  1
  Li  Li8  1  0.63130200  0.63130200  0.62773700  1
  Li  Li9  1  0.70002300  0.70002300  0.40007800  1
  Li  Li10  1  0.89994300  0.89994300  0.30020100  1
  Li  Li11  1  0.03167300  0.03167300  0.42724500  1
  Li  Li12  1  0.09998900  0.09998900  0.20112700  1
  Li  Li13  1  0.29482700  0.29482700  0.10068500  1
  Li  Li14  1  0.43181200  0.43181200  0.22670400  1
  Li  Li15  1  0.83375300  0.83375300  0.02329400  1
  Mn  Mn16  1  0.69361800  0.21101000  0.90064300  1
  Mn  Mn17  1  0.09765300  0.60133500  0.69981100  1
  Mn  Mn18  1  0.21101000  0.69361800  0.90064300  1
  Mn  Mn19  1  0.90032400  0.90032400  0.79646200  1
  Mn  Mn20  1  0.49998200  0.00004300  0.50009400  1
  Mn  Mn21  1  0.60133500  0.09765300  0.69981100  1
  Mn  Mn22  1  0.90001200  0.39980900  0.30017300  1
  Mn  Mn23  1  0.00004300  0.49998200  0.50009400  1
  Mn  Mn24  1  0.29618100  0.80901300  0.10091800  1
  Mn  Mn25  1  0.39980900  0.90001200  0.30017300  1
  Mn  Mn26  1  0.80901300  0.29618100  0.10091800  1
  Mn  Mn27  1  0.50084900  0.50084900  0.99699100  1
  Cl  Cl28  1  0.35492000  0.35492000  0.94879600  1
  Cl  Cl29  1  0.54319000  0.54319000  0.85492200  1
  Cl  Cl30  1  0.82670300  0.35606300  0.94928400  1
  Cl  Cl31  1  0.35606300  0.82670300  0.94928400  1
  Cl  Cl32  1  0.75685900  0.75685900  0.74763600  1
  Cl  Cl33  1  0.03942200  0.57521400  0.85103000  1
  Cl  Cl34  1  0.94685500  0.94685500  0.65246400  1
  Cl  Cl35  1  0.85457700  0.85457700  0.94455800  1
  Cl  Cl36  1  0.22233300  0.75583800  0.74814200  1
  Cl  Cl37  1  0.57521400  0.03942200  0.85103000  1
  Cl  Cl38  1  0.75583800  0.22233300  0.74814200  1
  Cl  Cl39  1  0.04252700  0.04252700  0.85123700  1
  Cl  Cl40  1  0.44357700  0.97145100  0.65269800  1
  Cl  Cl41  1  0.15720200  0.15720200  0.54790600  1
  Cl  Cl42  1  0.97145100  0.44357700  0.65269800  1
  Cl  Cl43  1  0.25257900  0.25257900  0.74606500  1
  Cl  Cl44  1  0.62831900  0.15711300  0.54756800  1
  Cl  Cl45  1  0.34635700  0.34635700  0.45327600  1
  Cl  Cl46  1  0.15711300  0.62831900  0.54756800  1
  Cl  Cl47  1  0.44300200  0.44300200  0.65285500  1
  Cl  Cl48  1  0.55696000  0.55696000  0.34779600  1
  Cl  Cl49  1  0.84328000  0.37165300  0.45244400  1
  Cl  Cl50  1  0.37165300  0.84328000  0.45244400  1
  Cl  Cl51  1  0.65379300  0.65379300  0.54691400  1
  Cl  Cl52  1  0.74648500  0.74648500  0.25360400  1
  Cl  Cl53  1  0.02898400  0.55710500  0.34754500  1
  Cl  Cl54  1  0.55710500  0.02898400  0.34754500  1
  Cl  Cl55  1  0.84304900  0.84304900  0.45216900  1
  Cl  Cl56  1  0.95496200  0.95496200  0.14858300  1
  Cl  Cl57  1  0.24342100  0.77139100  0.25214500  1
  Cl  Cl58  1  0.43188900  0.95754200  0.14838100  1
  Cl  Cl59  1  0.77139100  0.24342100  0.25214500  1
  Cl  Cl60  1  0.14293600  0.14293600  0.05590700  1
  Cl  Cl61  1  0.05366400  0.05366400  0.34666800  1
  Cl  Cl62  1  0.95754200  0.43188900  0.14838100  1
  Cl  Cl63  1  0.24332200  0.24332200  0.25200500  1
  Cl  Cl64  1  0.63982800  0.17440700  0.05104900  1
  Cl  Cl65  1  0.17440700  0.63982800  0.05104900  1
  Cl  Cl66  1  0.45571300  0.45571300  0.14538600  1
  Cl  Cl67  1  0.64301200  0.64301200  0.05103000  1
