# generated using pymatgen
data_Na7Al3O8
_symmetry_space_group_name_H-M   'P 1'
_cell_length_a   5.82291223
_cell_length_b   7.91311688
_cell_length_c   11.25338675
_cell_angle_alpha   69.42873878
_cell_angle_beta   89.73183691
_cell_angle_gamma   70.98007042
_symmetry_Int_Tables_number   1
_chemical_formula_structural   Na7Al3O8
_chemical_formula_sum   'Na14 Al6 O16'
_cell_volume   455.41246327
_cell_formula_units_Z   2
loop_
 _symmetry_equiv_pos_site_id
 _symmetry_equiv_pos_as_xyz
  1  'x, y, z'
loop_
 _atom_site_type_symbol
 _atom_site_label
 _atom_site_symmetry_multiplicity
 _atom_site_fract_x
 _atom_site_fract_y
 _atom_site_fract_z
 _atom_site_occupancy
  Na  Na0  1  0.14814523  0.09867272  0.66816718  1
  Na  Na1  1  0.27517687  0.48204857  0.44833084  1
  Na  Na2  1  0.54988157  0.69275827  0.23925280  1
  Na  Na3  1  0.37614971  0.91048947  0.44424498  1
  Na  Na4  1  0.62385029  0.08951053  0.55575502  1
  Na  Na5  1  0.52837302  0.70852880  0.72846895  1
  Na  Na6  1  0.72482313  0.51795143  0.55166916  1
  Na  Na7  1  0.85185477  0.90132728  0.33183282  1
  Na  Na8  1  0.74361250  0.49024036  0.05630549  1
  Na  Na9  1  0.34303745  0.90135981  0.95013709  1
  Na  Na10  1  0.25638750  0.50975964  0.94369451  1
  Na  Na11  1  0.47162698  0.29147120  0.27153105  1
  Na  Na12  1  0.45011843  0.30724173  0.76074720  1
  Na  Na13  1  0.65696255  0.09864019  0.04986291  1
  Al  Al14  1  0.16597926  0.09537043  0.15877887  1
  Al  Al15  1  0.83402074  0.90462957  0.84122113  1
  Al  Al16  1  0.04296826  0.67590786  0.64493503  1
  Al  Al17  1  0.95703174  0.32409214  0.35506497  1
  Al  Al18  1  0.93255354  0.30039943  0.86394491  1
  Al  Al19  1  0.06744646  0.69960057  0.13605509  1
  O  O20  1  0.84262598  0.76556137  0.00551351  1
  O  O21  1  0.36083633  0.59298718  0.10478874  1
  O  O22  1  0.97742302  0.55831118  0.27384141  1
  O  O23  1  0.05196668  0.78335156  0.76051126  1
  O  O24  1  0.32338190  0.63207650  0.58207949  1
  O  O25  1  0.93215384  0.09455934  0.83721374  1
  O  O26  1  0.77863670  0.80181924  0.53509385  1
  O  O27  1  0.94803332  0.21664844  0.23948874  1
  O  O28  1  0.63916367  0.40701282  0.89521126  1
  O  O29  1  0.02257698  0.44168882  0.72615859  1
  O  O30  1  0.06784616  0.90544066  0.16278626  1
  O  O31  1  0.22136330  0.19818076  0.46490615  1
  O  O32  1  0.53404396  0.99066162  0.76846308  1
  O  O33  1  0.15737402  0.23443863  0.99448649  1
  O  O34  1  0.46595604  0.00933838  0.23153692  1
  O  O35  1  0.67661810  0.36792350  0.41792051  1
