# generated using pymatgen
data_Ba3Nb2O8
_symmetry_space_group_name_H-M   'P 1'
_cell_length_a   8.00256060
_cell_length_b   8.00256074
_cell_length_c   8.00255985
_cell_angle_alpha   44.75316326
_cell_angle_beta   44.75316499
_cell_angle_gamma   44.75316516
_symmetry_Int_Tables_number   1
_chemical_formula_structural   Ba3Nb2O8
_chemical_formula_sum   'Ba3 Nb2 O8'
_cell_volume   231.09971741
_cell_formula_units_Z   1
loop_
 _symmetry_equiv_pos_site_id
 _symmetry_equiv_pos_as_xyz
  1  'x, y, z'
loop_
 _atom_site_type_symbol
 _atom_site_label
 _atom_site_symmetry_multiplicity
 _atom_site_fract_x
 _atom_site_fract_y
 _atom_site_fract_z
 _atom_site_occupancy
  Ba  Ba0  1  -0.00000000  -0.00000000  0.00000000  1
  Ba  Ba1  1  0.80048047  0.80048047  0.80048047  1
  Ba  Ba2  1  0.19951953  0.19951953  0.19951953  1
  Nb  Nb3  1  0.40581904  0.40581904  0.40581904  1
  Nb  Nb4  1  0.59418096  0.59418096  0.59418096  1
  O  O5  1  0.26752536  0.26752536  0.76947629  1
  O  O6  1  0.76947629  0.26752536  0.26752536  1
  O  O7  1  0.26752536  0.76947629  0.26752536  1
  O  O8  1  0.73247464  0.73247464  0.23052371  1
  O  O9  1  0.23052371  0.73247464  0.73247464  1
  O  O10  1  0.73247464  0.23052371  0.73247464  1
  O  O11  1  0.31964306  0.31964306  0.31964306  1
  O  O12  1  0.68035694  0.68035694  0.68035694  1
