# generated using pymatgen
data_CrF3
_symmetry_space_group_name_H-M   'P 1'
_cell_length_a   5.26583527
_cell_length_b   5.26560293
_cell_length_c   5.26382489
_cell_angle_alpha   55.56722344
_cell_angle_beta   55.57340824
_cell_angle_gamma   55.57726545
_symmetry_Int_Tables_number   1
_chemical_formula_structural   CrF3
_chemical_formula_sum   'Cr2 F6'
_cell_volume   92.59954280
_cell_formula_units_Z   2
loop_
 _symmetry_equiv_pos_site_id
 _symmetry_equiv_pos_as_xyz
  1  'x, y, z'
loop_
 _atom_site_type_symbol
 _atom_site_label
 _atom_site_symmetry_multiplicity
 _atom_site_fract_x
 _atom_site_fract_y
 _atom_site_fract_z
 _atom_site_occupancy
  Cr  Cr0  1  -0.00001424  0.00003228  -0.00003097  1
  Cr  Cr1  1  0.50002794  0.49998686  0.49997033  1
  F  F2  1  0.11869180  0.38132940  0.75004582  1
  F  F3  1  0.61847806  0.25013062  0.88157077  1
  F  F4  1  0.38146067  0.74990080  0.11843732  1
  F  F5  1  0.88132116  0.61867648  0.24998287  1
  F  F6  1  0.24989644  0.88143791  0.61848744  1
  F  F7  1  0.75013817  0.11850566  0.38153642  1
