# generated using pymatgen
data_GePbO3
_symmetry_space_group_name_H-M   'P 1'
_cell_length_a   7.22947028
_cell_length_b   11.45931796
_cell_length_c   13.29401279
_cell_angle_alpha   118.98450495
_cell_angle_beta   89.99999010
_cell_angle_gamma   90.00000050
_symmetry_Int_Tables_number   1
_chemical_formula_structural   GePbO3
_chemical_formula_sum   'Ge12 Pb12 O36'
_cell_volume   963.39786802
_cell_formula_units_Z   12
loop_
 _symmetry_equiv_pos_site_id
 _symmetry_equiv_pos_as_xyz
  1  'x, y, z'
loop_
 _atom_site_type_symbol
 _atom_site_label
 _atom_site_symmetry_multiplicity
 _atom_site_fract_x
 _atom_site_fract_y
 _atom_site_fract_z
 _atom_site_occupancy
  Ge  Ge0  1  0.40540073  0.14310621  0.11524038  1
  Ge  Ge1  1  0.59454270  0.85683847  0.88472919  1
  Ge  Ge2  1  0.40540105  0.85689384  0.38475962  1
  Ge  Ge3  1  0.82870836  0.75095729  0.03860738  1
  Ge  Ge4  1  0.87845132  0.54341904  0.65331656  1
  Ge  Ge5  1  0.17136476  0.75102560  0.53867932  1
  Ge  Ge6  1  0.12156888  0.45660866  0.34669500  1
  Ge  Ge7  1  0.17136439  0.24897443  0.96132065  1
  Ge  Ge8  1  0.59454250  0.14316162  0.61527087  1
  Ge  Ge9  1  0.87845123  0.45658087  0.84668328  1
  Ge  Ge10  1  0.82870815  0.24904262  0.46139258  1
  Ge  Ge11  1  0.12156899  0.54339133  0.15330503  1
  Pb  Pb12  1  0.38356534  0.43384830  0.84709362  1
  Pb  Pb13  1  0.69440898  0.80321571  0.59571641  1
  Pb  Pb14  1  0.30562389  0.19674281  0.40425985  1
  Pb  Pb15  1  0.61641693  0.43381775  0.34705826  1
  Pb  Pb16  1  0.61641725  0.56618216  0.15294160  1
  Pb  Pb17  1  0.94896026  0.12124196  0.17268811  1
  Pb  Pb18  1  0.05093658  0.87883175  0.82737415  1
  Pb  Pb19  1  0.69440861  0.19678433  0.90428351  1
  Pb  Pb20  1  0.38356567  0.56615184  0.65290640  1
  Pb  Pb21  1  0.94896029  0.87875809  0.32731195  1
  Pb  Pb22  1  0.05093670  0.12116815  0.67262563  1
  Pb  Pb23  1  0.30562416  0.80325730  0.09574039  1
  O  O24  1  0.28080268  0.90205741  0.29554846  1
  O  O25  1  0.93465389  0.35045012  0.28664924  1
  O  O26  1  0.28080250  0.09794275  0.20445169  1
  O  O27  1  0.79036663  0.18314095  0.55584001  1
  O  O28  1  0.69859478  0.60694649  0.60685171  1
  O  O29  1  0.69859452  0.39305357  0.89314820  1
  O  O30  1  0.37698779  0.28071549  0.91199021  1
  O  O31  1  0.30135834  0.60704713  0.10690918  1
  O  O32  1  0.58271162  0.25655471  0.16900656  1
  O  O33  1  0.62305545  0.71921895  0.08794009  1
  O  O34  1  0.58271194  0.74344529  0.33099329  1
  O  O35  1  0.96921939  0.86709084  0.14813270  1
  O  O36  1  0.03077154  0.13287831  0.85184590  1
  O  O37  1  0.79036676  0.81685893  0.94415990  1
  O  O38  1  0.96768980  0.39224403  0.53918475  1
  O  O39  1  0.41730883  0.25660833  0.66904064  1
  O  O40  1  0.30135805  0.39295272  0.39309079  1
  O  O41  1  0.37698827  0.71928455  0.58800964  1
  O  O42  1  0.20964947  0.18310084  0.05578907  1
  O  O43  1  0.20964962  0.81689915  0.44421089  1
  O  O44  1  0.76658672  0.50000002  0.74999995  1
  O  O45  1  0.96768990  0.60775584  0.96081507  1
  O  O46  1  0.03077192  0.86712180  0.64815401  1
  O  O47  1  0.93465415  0.64955001  0.21335086  1
  O  O48  1  0.71915104  0.90204617  0.79553561  1
  O  O49  1  0.50000932  0.00002747  0.49998891  1
  O  O50  1  0.23344960  0.49999988  0.24999997  1
  O  O51  1  0.96921916  0.13290908  0.35186727  1
  O  O52  1  0.41730901  0.74339174  0.83095932  1
  O  O53  1  0.06525887  0.35033611  0.78662797  1
  O  O54  1  0.62305511  0.28078095  0.41205986  1
  O  O55  1  0.03244289  0.39224243  0.03912948  1
  O  O56  1  0.03244306  0.60775762  0.46087054  1
  O  O57  1  0.50000953  -0.00002747  0.00001126  1
  O  O58  1  0.06525911  0.64966370  0.71337184  1
  O  O59  1  0.71915101  0.09795392  0.70446442  1
