# generated using pymatgen
data_K6U5V2O23
_symmetry_space_group_name_H-M   'P 1'
_cell_length_a   24.86541935
_cell_length_b   6.95932068
_cell_length_c   7.15211724
_cell_angle_alpha   80.95928096
_cell_angle_beta   90.00000000
_cell_angle_gamma   90.00000000
_symmetry_Int_Tables_number   1
_chemical_formula_structural   K6U5V2O23
_chemical_formula_sum   'K12 U10 V4 O46'
_cell_volume   1222.27292556
_cell_formula_units_Z   2
loop_
 _symmetry_equiv_pos_site_id
 _symmetry_equiv_pos_as_xyz
  1  'x, y, z'
loop_
 _atom_site_type_symbol
 _atom_site_label
 _atom_site_symmetry_multiplicity
 _atom_site_fract_x
 _atom_site_fract_y
 _atom_site_fract_z
 _atom_site_occupancy
  K  K0  1  0.03834086  0.95278039  0.76559991  1
  K  K1  1  0.38707744  0.86925409  0.76961899  1
  K  K2  1  0.46165914  0.95278039  0.26559991  1
  K  K3  1  0.70169949  0.20560223  0.73241790  1
  K  K4  1  0.79830051  0.20560223  0.23241790  1
  K  K5  1  0.88707744  0.13074591  0.73038101  1
  K  K6  1  0.96165914  0.04721961  0.23440009  1
  K  K7  1  0.20169949  0.79439777  0.76758210  1
  K  K8  1  0.53834086  0.04721961  0.73440009  1
  K  K9  1  0.11292256  0.86925409  0.26961899  1
  K  K10  1  0.29830051  0.79439777  0.26758210  1
  K  K11  1  0.61292256  0.13074591  0.23038101  1
  U  U12  1  0.35759367  0.34636757  0.02834979  1
  U  U13  1  0.41843371  0.40929469  0.51417809  1
  U  U14  1  0.08156629  0.40929469  0.01417809  1
  U  U15  1  0.58156629  0.59070531  0.48582191  1
  U  U16  1  0.50000000  0.50000000  0.00000000  1
  U  U17  1  0.64240633  0.65363243  0.97165021  1
  U  U18  1  0.14240633  0.34636757  0.52834979  1
  U  U19  1  0.85759367  0.65363243  0.47165021  1
  U  U20  1  0.91843371  0.59070531  0.98582191  1
  U  U21  1  -0.00000000  0.50000000  0.50000000  1
  V  V22  1  0.79686731  0.78491535  0.95368590  1
  V  V23  1  0.29686731  0.21508465  0.54631410  1
  V  V24  1  0.70313269  0.78491535  0.45368590  1
  V  V25  1  0.20313269  0.21508465  0.04631410  1
  O  O26  1  0.97869497  0.23980146  0.52804930  1
  O  O27  1  0.26649897  0.30753148  0.03855523  1
  O  O28  1  0.39287147  0.66371046  0.46535777  1
  O  O29  1  0.60712853  0.33628954  0.53464223  1
  O  O30  1  0.05916962  0.15029063  0.05946834  1
  O  O31  1  0.42906556  0.43808238  0.82631840  1
  O  O32  1  0.87205416  0.91805827  0.43015192  1
  O  O33  1  0.92906556  0.56191762  0.67368160  1
  O  O34  1  0.07093444  0.43808238  0.32631840  1
  O  O35  1  0.37205416  0.08194173  0.06984808  1
  O  O36  1  0.06804819  0.40674415  0.69916654  1
  O  O37  1  0.44083038  0.15029063  0.55946834  1
  O  O38  1  0.33792701  0.29291654  0.71814029  1
  O  O39  1  0.02130503  0.76019854  0.47195070  1
  O  O40  1  0.16207299  0.29291654  0.21814029  1
  O  O41  1  0.43195181  0.40674415  0.19916654  1
  O  O42  1  0.66373810  0.68767883  0.64927265  1
  O  O43  1  0.93195181  0.59325585  0.30083346  1
  O  O44  1  0.29362069  0.97245675  0.57529442  1
  O  O45  1  0.76649897  0.69246852  0.46144477  1
  O  O46  1  0.66115234  0.39480658  0.00081885  1
  O  O47  1  0.10712853  0.66371046  0.96535777  1
  O  O48  1  0.56804819  0.59325585  0.80083346  1
  O  O49  1  0.83626190  0.68767883  0.14927265  1
  O  O50  1  0.79362069  0.02754325  0.92470558  1
  O  O51  1  0.70637931  0.02754325  0.42470558  1
  O  O52  1  0.52130503  0.23980146  0.02804930  1
  O  O53  1  0.66207299  0.70708346  0.28185971  1
  O  O54  1  0.47869497  0.76019854  0.97195070  1
  O  O55  1  0.55916962  0.84970937  0.44053166  1
  O  O56  1  0.12794584  0.08194173  0.56984808  1
  O  O57  1  0.94083038  0.84970937  0.94053166  1
  O  O58  1  0.83884766  0.39480658  0.50081885  1
  O  O59  1  0.33884766  0.60519342  0.99918115  1
  O  O60  1  0.62794584  0.91805827  0.93015192  1
  O  O61  1  0.16373810  0.31232117  0.85072735  1
  O  O62  1  0.16115234  0.60519342  0.49918115  1
  O  O63  1  0.33626190  0.31232117  0.35072735  1
  O  O64  1  0.20637931  0.97245675  0.07529442  1
  O  O65  1  0.57093444  0.56191762  0.17368160  1
  O  O66  1  0.73350103  0.69246852  0.96144477  1
  O  O67  1  0.89287147  0.33628954  0.03464223  1
  O  O68  1  0.83792701  0.70708346  0.78185971  1
  O  O69  1  -0.00000000  0.50000000  0.00000000  1
  O  O70  1  0.50000000  0.50000000  0.50000000  1
  O  O71  1  0.23350103  0.30753148  0.53855523  1
