# generated using pymatgen
data_Na3W3Cl13
_symmetry_space_group_name_H-M   'P 1'
_cell_length_a   25.27450200
_cell_length_b   9.22070000
_cell_length_c   9.22313122
_cell_angle_alpha   60.87445221
_cell_angle_beta   90.00000000
_cell_angle_gamma   90.00000000
_symmetry_Int_Tables_number   1
_chemical_formula_structural   Na3W3Cl13
_chemical_formula_sum   'Na12 W12 Cl52'
_cell_volume   1877.65276583
_cell_formula_units_Z   4
loop_
 _symmetry_equiv_pos_site_id
 _symmetry_equiv_pos_as_xyz
  1  'x, y, z'
loop_
 _atom_site_type_symbol
 _atom_site_label
 _atom_site_symmetry_multiplicity
 _atom_site_fract_x
 _atom_site_fract_y
 _atom_site_fract_z
 _atom_site_occupancy
  Na  Na0  1  0.74978100  0.57102600  0.65212300  1
  Na  Na1  1  0.10210800  0.59364600  0.01225200  1
  Na  Na2  1  0.89789200  0.40635400  0.98774800  1
  Na  Na3  1  0.39789200  0.09364600  0.51225200  1
  Na  Na4  1  0.10156800  0.26776600  0.68326300  1
  Na  Na5  1  0.24978100  0.92897400  0.84787700  1
  Na  Na6  1  0.89843200  0.73223400  0.31673700  1
  Na  Na7  1  0.75021900  0.07102600  0.15212300  1
  Na  Na8  1  0.60210800  0.90635400  0.48774800  1
  Na  Na9  1  0.60156800  0.23223400  0.81673700  1
  Na  Na10  1  0.25021900  0.42897400  0.34787700  1
  Na  Na11  1  0.39843200  0.76776600  0.18326300  1
  W  W12  1  0.12770000  0.75461000  0.35173700  1
  W  W13  1  0.62770000  0.74539000  0.14826300  1
  W  W14  1  0.62928100  0.57503300  0.97536400  1
  W  W15  1  0.87346900  0.90379800  0.81706600  1
  W  W16  1  0.87071900  0.07503300  0.47536400  1
  W  W17  1  0.12928100  0.92496700  0.52463600  1
  W  W18  1  0.87230000  0.24539000  0.64826300  1
  W  W19  1  0.62653100  0.40379800  0.31706600  1
  W  W20  1  0.37346900  0.59620200  0.68293400  1
  W  W21  1  0.37230000  0.25461000  0.85173700  1
  W  W22  1  0.12653100  0.09620200  0.18293400  1
  W  W23  1  0.37071900  0.42496700  0.02463600  1
  Cl  Cl24  1  0.32001800  0.02547700  0.04878400  1
  Cl  Cl25  1  0.67998200  0.97452300  0.95121600  1
  Cl  Cl26  1  0.43751100  0.62532400  0.86117300  1
  Cl  Cl27  1  0.56321500  0.77913200  0.94066000  1
  Cl  Cl28  1  0.57224200  0.96905300  0.14979700  1
  Cl  Cl29  1  0.82031900  0.27475800  0.85488900  1
  Cl  Cl30  1  0.92775800  0.46905300  0.64979700  1
  Cl  Cl31  1  0.56248900  0.37467600  0.13882700  1
  Cl  Cl32  1  0.68153500  0.77595900  0.74933700  1
  Cl  Cl33  1  0.56827900  0.18426700  0.53385500  1
  Cl  Cl34  1  0.32368100  0.83008800  0.65320600  1
  Cl  Cl35  1  0.93678500  0.27913200  0.44066000  1
  Cl  Cl36  1  0.29953500  0.42797900  0.84719300  1
  Cl  Cl37  1  0.67506000  0.37431900  0.55319800  1
  Cl  Cl38  1  0.68279500  0.37047800  0.94671000  1
  Cl  Cl39  1  0.82494000  0.87431900  0.05319800  1
  Cl  Cl40  1  0.42337900  0.42719500  0.25182100  1
  Cl  Cl41  1  0.18153500  0.72404100  0.75066300  1
  Cl  Cl42  1  0.18279500  0.12952200  0.55329000  1
  Cl  Cl43  1  0.81846500  0.27595900  0.24933700  1
  Cl  Cl44  1  0.82368100  0.66991200  0.84679400  1
  Cl  Cl45  1  0.06827900  0.31573300  0.96614500  1
  Cl  Cl46  1  0.42775800  0.03094700  0.85020300  1
  Cl  Cl47  1  0.17506000  0.12568100  0.94680200  1
  Cl  Cl48  1  0.82001800  0.47452300  0.45121600  1
  Cl  Cl49  1  0.81720500  0.87047800  0.44671000  1
  Cl  Cl50  1  0.67968100  0.77475800  0.35488900  1
  Cl  Cl51  1  0.06248900  0.12532400  0.36117300  1
  Cl  Cl52  1  0.93751100  0.87467600  0.63882700  1
  Cl  Cl53  1  0.31846500  0.22404100  0.25066300  1
  Cl  Cl54  1  0.67631900  0.16991200  0.34679400  1
  Cl  Cl55  1  0.93172100  0.68426700  0.03385500  1
  Cl  Cl56  1  0.17998200  0.52547700  0.54878400  1
  Cl  Cl57  1  0.43952700  0.42183300  0.65477300  1
  Cl  Cl58  1  0.92337900  0.07280500  0.24817900  1
  Cl  Cl59  1  0.06047300  0.92183300  0.15477300  1
  Cl  Cl60  1  0.06321500  0.72086800  0.55934000  1
  Cl  Cl61  1  0.31720500  0.62952200  0.05329000  1
  Cl  Cl62  1  0.79953500  0.07202100  0.65280700  1
  Cl  Cl63  1  0.07224200  0.53094700  0.35020300  1
  Cl  Cl64  1  0.70046500  0.57202100  0.15280700  1
  Cl  Cl65  1  0.07662100  0.92719500  0.75182100  1
  Cl  Cl66  1  0.56047300  0.57816700  0.34522700  1
  Cl  Cl67  1  0.43678500  0.22086800  0.05934000  1
  Cl  Cl68  1  0.17631900  0.33008800  0.15320600  1
  Cl  Cl69  1  0.32031900  0.22524200  0.64511100  1
  Cl  Cl70  1  0.43172100  0.81573300  0.46614500  1
  Cl  Cl71  1  0.57662100  0.57280500  0.74817900  1
  Cl  Cl72  1  0.20046500  0.92797900  0.34719300  1
  Cl  Cl73  1  0.17968100  0.72524200  0.14511100  1
  Cl  Cl74  1  0.93952700  0.07816700  0.84522700  1
  Cl  Cl75  1  0.32494000  0.62568100  0.44680200  1
