# generated using pymatgen
data_Mn3AgAs3(HO6)2
_symmetry_space_group_name_H-M   'P 1'
_cell_length_a   8.84034567
_cell_length_b   8.84034567
_cell_length_c   6.91177247
_cell_angle_alpha   73.95045440
_cell_angle_beta   73.95045440
_cell_angle_gamma   91.43425597
_symmetry_Int_Tables_number   1
_chemical_formula_structural   Mn3AgAs3(HO6)2
_chemical_formula_sum   'Mn6 Ag2 As6 H4 O24'
_cell_volume   495.85949992
_cell_formula_units_Z   2
loop_
 _symmetry_equiv_pos_site_id
 _symmetry_equiv_pos_as_xyz
  1  'x, y, z'
loop_
 _atom_site_type_symbol
 _atom_site_label
 _atom_site_symmetry_multiplicity
 _atom_site_fract_x
 _atom_site_fract_y
 _atom_site_fract_z
 _atom_site_occupancy
  Mn  Mn0  1  0.71348475  0.28651525  0.75000000  1
  Mn  Mn1  1  0.28651525  0.71348475  0.25000000  1
  Mn  Mn2  1  0.64194468  0.95869000  0.60998618  1
  Mn  Mn3  1  0.04131000  0.35805532  0.89001382  1
  Mn  Mn4  1  0.35805532  0.04131000  0.39001382  1
  Mn  Mn5  1  0.95869000  0.64194468  0.10998618  1
  Ag  Ag6  1  0.98871075  0.01128925  0.25000000  1
  Ag  Ag7  1  0.01128925  0.98871075  0.75000000  1
  As  As8  1  0.31862510  0.68137490  0.75000000  1
  As  As9  1  0.68137490  0.31862510  0.25000000  1
  As  As10  1  0.33867759  0.10293693  0.88692944  1
  As  As11  1  0.89706307  0.66132241  0.61307056  1
  As  As12  1  0.66132241  0.89706307  0.11307056  1
  As  As13  1  0.10293693  0.33867759  0.38692944  1
  H  H14  1  0.59991098  0.62805617  0.70062719  1
  H  H15  1  0.37194383  0.40008902  0.79937281  1
  H  H16  1  0.40008902  0.37194383  0.29937281  1
  H  H17  1  0.62805617  0.59991098  0.20062719  1
  O  O18  1  0.72004745  0.21249457  0.47073173  1
  O  O19  1  0.78750543  0.27995255  0.02926827  1
  O  O20  1  0.27995255  0.78750543  0.52926827  1
  O  O21  1  0.21249457  0.72004745  0.97073173  1
  O  O22  1  0.51679593  0.71499513  0.72749599  1
  O  O23  1  0.28500487  0.48320407  0.77250401  1
  O  O24  1  0.48320407  0.28500487  0.27250401  1
  O  O25  1  0.71499513  0.51679593  0.22749599  1
  O  O26  1  0.66905394  0.02600507  0.87559982  1
  O  O27  1  0.97399493  0.33094606  0.62440018  1
  O  O28  1  0.33094606  0.97399493  0.12440018  1
  O  O29  1  0.02600507  0.66905394  0.37559982  1
  O  O30  1  0.72507732  0.54337332  0.66475044  1
  O  O31  1  0.45662668  0.27492268  0.83524956  1
  O  O32  1  0.27492268  0.45662668  0.33524956  1
  O  O33  1  0.54337332  0.72507732  0.16475044  1
  O  O34  1  0.40153191  0.02019146  0.68844303  1
  O  O35  1  0.97980854  0.59846809  0.81155697  1
  O  O36  1  0.59846809  0.97980854  0.31155697  1
  O  O37  1  0.02019146  0.40153191  0.18844303  1
  O  O38  1  0.85154038  0.85019152  0.59903638  1
  O  O39  1  0.14980848  0.14845962  0.90096362  1
  O  O40  1  0.14845962  0.14980848  0.40096362  1
  O  O41  1  0.85019152  0.85154038  0.09903638  1
