# generated using pymatgen
data_Co(IO3)2
_symmetry_space_group_name_H-M   'P 1'
_cell_length_a   5.01957711
_cell_length_b   10.93265434
_cell_length_c   10.89817832
_cell_angle_alpha   60.50900065
_cell_angle_beta   89.99920496
_cell_angle_gamma   90.00287548
_symmetry_Int_Tables_number   1
_chemical_formula_structural   Co(IO3)2
_chemical_formula_sum   'Co4 I8 O24'
_cell_volume   520.57346130
_cell_formula_units_Z   4
loop_
 _symmetry_equiv_pos_site_id
 _symmetry_equiv_pos_as_xyz
  1  'x, y, z'
loop_
 _atom_site_type_symbol
 _atom_site_label
 _atom_site_symmetry_multiplicity
 _atom_site_fract_x
 _atom_site_fract_y
 _atom_site_fract_z
 _atom_site_occupancy
  Co  Co0  1  0.56612566  0.99332139  0.01043742  1
  Co  Co1  1  0.06612453  0.00690517  0.48931721  1
  Co  Co2  1  0.56615200  0.49332504  0.51043843  1
  Co  Co3  1  0.06617904  0.50690095  0.98932696  1
  I  I4  1  0.98323095  0.31720144  0.83436394  1
  I  I5  1  0.98317865  0.81716782  0.33438138  1
  I  I6  1  0.48306290  0.18294371  0.16547717  1
  I  I7  1  0.48306260  0.68295567  0.66544863  1
  I  I8  1  0.00474389  0.34719059  0.33496977  1
  I  I9  1  0.00476041  0.84718525  0.83496174  1
  I  I10  1  0.50484240  0.65303411  0.16480285  1
  I  I11  1  0.50484088  0.15301697  0.66480138  1
  O  O12  1  0.79198254  0.17314712  0.97271738  1
  O  O13  1  0.79198599  0.67312053  0.47274761  1
  O  O14  1  0.29215406  0.32712419  0.02706071  1
  O  O15  1  0.29208584  0.82711550  0.52703511  1
  O  O16  1  0.78223275  0.34413718  0.68330883  1
  O  O17  1  0.78212166  0.84411454  0.18333002  1
  O  O18  1  0.28199601  0.65609373  0.81641622  1
  O  O19  1  0.28198228  0.15605076  0.31648143  1
  O  O20  1  0.35155637  0.54044710  0.64198627  1
  O  O21  1  0.35154036  0.04042944  0.14202631  1
  O  O22  1  0.85171904  0.45981218  0.85770520  1
  O  O23  1  0.85168308  0.95976231  0.35773422  1
  O  O24  1  0.83324937  0.68116410  0.94544187  1
  O  O25  1  0.83321375  0.18120371  0.44541430  1
  O  O26  1  0.33327000  0.81901433  0.05431886  1
  O  O27  1  0.33331927  0.31901235  0.55428523  1
  O  O28  1  0.84617242  0.38551864  0.16891885  1
  O  O29  1  0.84616315  0.88550749  0.66891531  1
  O  O30  1  0.34620251  0.61471706  0.33082816  1
  O  O31  1  0.34618243  0.11473877  0.83082453  1
  O  O32  1  0.28774513  0.54057392  0.12887008  1
  O  O33  1  0.28778488  0.04055170  0.62887269  1
  O  O34  1  0.78768237  0.45967183  0.37091450  1
  O  O35  1  0.78772685  0.95962139  0.87091845  1
