# generated using pymatgen
data_Rb2CuBr3
_symmetry_space_group_name_H-M   'P 1'
_cell_length_a   4.41226125
_cell_length_b   13.15368481
_cell_length_c   13.64784188
_cell_angle_alpha   90.00000000
_cell_angle_beta   90.00000000
_cell_angle_gamma   90.00000000
_symmetry_Int_Tables_number   1
_chemical_formula_structural   Rb2CuBr3
_chemical_formula_sum   'Rb8 Cu4 Br12'
_cell_volume   792.08653825
_cell_formula_units_Z   4
loop_
 _symmetry_equiv_pos_site_id
 _symmetry_equiv_pos_as_xyz
  1  'x, y, z'
loop_
 _atom_site_type_symbol
 _atom_site_label
 _atom_site_symmetry_multiplicity
 _atom_site_fract_x
 _atom_site_fract_y
 _atom_site_fract_z
 _atom_site_occupancy
  Rb  Rb0  1  0.75000000  0.98677387  0.82485982  1
  Rb  Rb1  1  0.25000000  0.01322613  0.17514018  1
  Rb  Rb2  1  0.75000000  0.82562182  0.47583832  1
  Rb  Rb3  1  0.25000000  0.17437818  0.52416168  1
  Rb  Rb4  1  0.75000000  0.48677387  0.67514018  1
  Rb  Rb5  1  0.25000000  0.67437818  0.97583832  1
  Rb  Rb6  1  0.75000000  0.32562182  0.02416168  1
  Rb  Rb7  1  0.25000000  0.51322613  0.32485982  1
  Cu  Cu8  1  0.25000000  0.75661465  0.69062295  1
  Cu  Cu9  1  0.25000000  0.25661465  0.80937705  1
  Cu  Cu10  1  0.75000000  0.24338535  0.30937705  1
  Cu  Cu11  1  0.75000000  0.74338535  0.19062295  1
  Br  Br12  1  0.75000000  0.22654027  0.72070507  1
  Br  Br13  1  0.25000000  0.27345973  0.22070507  1
  Br  Br14  1  0.25000000  0.43519146  0.86158691  1
  Br  Br15  1  0.75000000  0.36193859  0.44846887  1
  Br  Br16  1  0.25000000  0.77345973  0.27929493  1
  Br  Br17  1  0.75000000  0.56480854  0.13841309  1
  Br  Br18  1  0.75000000  0.06480854  0.36158691  1
  Br  Br19  1  0.25000000  0.93519146  0.63841309  1
  Br  Br20  1  0.75000000  0.72654027  0.77929493  1
  Br  Br21  1  0.25000000  0.13806141  0.94846887  1
  Br  Br22  1  0.75000000  0.86193859  0.05153113  1
  Br  Br23  1  0.25000000  0.63806141  0.55153113  1
