# generated using pymatgen
data_DyCuS2
_symmetry_space_group_name_H-M   'P 1'
_cell_length_a   3.93804085
_cell_length_b   6.23805528
_cell_length_c   13.40446477
_cell_angle_alpha   90.00000000
_cell_angle_beta   90.00000000
_cell_angle_gamma   90.00000000
_symmetry_Int_Tables_number   1
_chemical_formula_structural   DyCuS2
_chemical_formula_sum   'Dy4 Cu4 S8'
_cell_volume   329.29028160
_cell_formula_units_Z   4
loop_
 _symmetry_equiv_pos_site_id
 _symmetry_equiv_pos_as_xyz
  1  'x, y, z'
loop_
 _atom_site_type_symbol
 _atom_site_label
 _atom_site_symmetry_multiplicity
 _atom_site_fract_x
 _atom_site_fract_y
 _atom_site_fract_z
 _atom_site_occupancy
  Dy  Dy0  1  0.74491521  0.74822551  0.36566213  1
  Dy  Dy1  1  0.75508479  0.25177449  0.86566213  1
  Dy  Dy2  1  0.25508479  0.24822551  0.13433787  1
  Dy  Dy3  1  0.24491521  0.75177449  0.63433787  1
  Cu  Cu4  1  0.74413153  0.37436990  0.54254187  1
  Cu  Cu5  1  0.75586847  0.62563010  0.04254187  1
  Cu  Cu6  1  0.25586847  0.87436990  0.95745813  1
  Cu  Cu7  1  0.24413153  0.12563010  0.45745813  1
  S  S8  1  0.25486335  0.49675513  0.96081922  1
  S  S9  1  0.74513665  -0.00324487  0.53918078  1
  S  S10  1  0.24513665  0.50324487  0.46081922  1
  S  S11  1  0.24529853  0.99359195  0.29769903  1
  S  S12  1  0.75486335  0.00324487  0.03918078  1
  S  S13  1  0.25470147  0.00640805  0.79769903  1
  S  S14  1  0.75470147  0.49359195  0.20230097  1
  S  S15  1  0.74529853  0.50640805  0.70230097  1
