# generated using pymatgen
data_HgSeO3
_symmetry_space_group_name_H-M   'P 1'
_cell_length_a   4.40428246
_cell_length_b   7.22969295
_cell_length_c   10.30101150
_cell_angle_alpha   90.00000000
_cell_angle_beta   90.00000000
_cell_angle_gamma   103.01707448
_symmetry_Int_Tables_number   1
_chemical_formula_structural   HgSeO3
_chemical_formula_sum   'Hg4 Se4 O12'
_cell_volume   319.57214798
_cell_formula_units_Z   4
loop_
 _symmetry_equiv_pos_site_id
 _symmetry_equiv_pos_as_xyz
  1  'x, y, z'
loop_
 _atom_site_type_symbol
 _atom_site_label
 _atom_site_symmetry_multiplicity
 _atom_site_fract_x
 _atom_site_fract_y
 _atom_site_fract_z
 _atom_site_occupancy
  Hg  Hg0  1  0.10179835  0.40262875  0.83048042  1
  Hg  Hg1  1  0.89820165  0.59737125  0.16951958  1
  Hg  Hg2  1  0.89820165  0.09737125  0.33048042  1
  Hg  Hg3  1  0.10179835  0.90262875  0.66951958  1
  Se  Se4  1  0.33718504  0.67769884  0.41909449  1
  Se  Se5  1  0.33718504  0.17769884  0.08090551  1
  Se  Se6  1  0.66281496  0.82230116  0.91909449  1
  Se  Se7  1  0.66281496  0.32230116  0.58090551  1
  O  O8  1  0.82879548  0.13786180  0.52863930  1
  O  O9  1  0.50388243  0.22499260  0.72034800  1
  O  O10  1  0.49611757  0.77500740  0.27965200  1
  O  O11  1  0.01058383  0.52214858  0.35847228  1
  O  O12  1  0.17120452  0.36213820  0.02863930  1
  O  O13  1  0.01058383  0.02214858  0.14152772  1
  O  O14  1  0.98941617  0.47785142  0.64152772  1
  O  O15  1  0.82879548  0.63786180  0.97136070  1
  O  O16  1  0.17120452  0.86213820  0.47136070  1
  O  O17  1  0.49611757  0.27500740  0.22034800  1
  O  O18  1  0.98941617  0.97785142  0.85847228  1
  O  O19  1  0.50388243  0.72499260  0.77965200  1
