# generated using pymatgen
data_Pm2O3
_symmetry_space_group_name_H-M   'P 1'
_cell_length_a   9.53549143
_cell_length_b   9.53549155
_cell_length_c   9.53549198
_cell_angle_alpha   109.47122157
_cell_angle_beta   109.47122182
_cell_angle_gamma   109.47121616
_symmetry_Int_Tables_number   1
_chemical_formula_structural   Pm2O3
_chemical_formula_sum   'Pm16 O24'
_cell_volume   667.43256516
_cell_formula_units_Z   8
loop_
 _symmetry_equiv_pos_site_id
 _symmetry_equiv_pos_as_xyz
  1  'x, y, z'
loop_
 _atom_site_type_symbol
 _atom_site_label
 _atom_site_symmetry_multiplicity
 _atom_site_fract_x
 _atom_site_fract_y
 _atom_site_fract_z
 _atom_site_occupancy
  Pm  Pm0  1  0.75000000  0.28089564  0.53089564  1
  Pm  Pm1  1  0.75000000  0.78089564  0.03089564  1
  Pm  Pm2  1  0.25000000  0.21910436  0.96910436  1
  Pm  Pm3  1  0.03089564  0.75000000  0.78089564  1
  Pm  Pm4  1  0.28089564  0.53089564  0.75000000  1
  Pm  Pm5  1  0.53089564  0.75000000  0.28089564  1
  Pm  Pm6  1  0.00000000  0.00000000  0.50000000  1
  Pm  Pm7  1  0.78089564  0.03089564  0.75000000  1
  Pm  Pm8  1  0.25000000  0.71910436  0.46910436  1
  Pm  Pm9  1  0.71910436  0.46910436  0.25000000  1
  Pm  Pm10  1  0.46910436  0.25000000  0.71910436  1
  Pm  Pm11  1  0.21910436  0.96910436  0.25000000  1
  Pm  Pm12  1  0.50000000  0.50000000  0.50000000  1
  Pm  Pm13  1  0.96910436  0.25000000  0.21910436  1
  Pm  Pm14  1  0.50000000  0.00000000  0.00000000  1
  Pm  Pm15  1  0.00000000  0.50000000  0.00000000  1
  O  O16  1  0.27121437  0.01205629  0.04067032  1
  O  O17  1  0.95932968  0.72878563  0.98794371  1
  O  O18  1  0.97138597  0.51205629  0.24084192  1
  O  O19  1  0.51205629  0.24084192  0.97138597  1
  O  O20  1  0.74084192  0.22878563  0.26945495  1
  O  O21  1  0.76945495  0.54067032  0.52861403  1
  O  O22  1  0.98794371  0.95932968  0.72878563  1
  O  O23  1  0.52861403  0.76945495  0.54067032  1
  O  O24  1  0.04067032  0.27121437  0.01205629  1
  O  O25  1  0.48794371  0.75915808  0.02861403  1
  O  O26  1  0.73054505  0.25915808  0.77121437  1
  O  O27  1  0.72878563  0.98794371  0.95932968  1
  O  O28  1  0.45932968  0.47138597  0.23054505  1
  O  O29  1  0.02861403  0.48794371  0.75915808  1
  O  O30  1  0.77121437  0.73054505  0.25915808  1
  O  O31  1  0.54067032  0.52861403  0.76945495  1
  O  O32  1  0.26945495  0.74084192  0.22878563  1
  O  O33  1  0.22878563  0.26945495  0.74084192  1
  O  O34  1  0.75915808  0.02861403  0.48794371  1
  O  O35  1  0.24084192  0.97138597  0.51205629  1
  O  O36  1  0.47138597  0.23054505  0.45932968  1
  O  O37  1  0.23054505  0.45932968  0.47138597  1
  O  O38  1  0.25915808  0.77121437  0.73054505  1
  O  O39  1  0.01205629  0.04067032  0.27121437  1
