# generated using pymatgen
data_Li9Bi3P8O29
_symmetry_space_group_name_H-M   'P 1'
_cell_length_a   10.32719369
_cell_length_b   10.32719369
_cell_length_c   14.16363900
_cell_angle_alpha   90.00000000
_cell_angle_beta   90.00000000
_cell_angle_gamma   119.99999804
_symmetry_Int_Tables_number   1
_chemical_formula_structural   Li9Bi3P8O29
_chemical_formula_sum   'Li18 Bi6 P16 O58'
_cell_volume   1308.18792001
_cell_formula_units_Z   2
loop_
 _symmetry_equiv_pos_site_id
 _symmetry_equiv_pos_as_xyz
  1  'x, y, z'
loop_
 _atom_site_type_symbol
 _atom_site_label
 _atom_site_symmetry_multiplicity
 _atom_site_fract_x
 _atom_site_fract_y
 _atom_site_fract_z
 _atom_site_occupancy
  Li  Li0  1  0.89427700  0.67158400  0.93896700  1
  Li  Li1  1  0.10572300  0.77730800  0.56103300  1
  Li  Li2  1  0.77730800  0.10572300  0.93896700  1
  Li  Li3  1  0.89427700  0.22269200  0.43896700  1
  Li  Li4  1  0.77730800  0.67158400  0.43896700  1
  Li  Li5  1  0.10572300  0.32841600  0.06103300  1
  Li  Li6  1  0.33333300  0.66666700  0.37831800  1
  Li  Li7  1  0.66666700  0.33333300  0.62168200  1
  Li  Li8  1  0.67158400  0.77730800  0.06103300  1
  Li  Li9  1  0.67158400  0.89427700  0.56103300  1
  Li  Li10  1  0.00000000  0.00000000  0.50000000  1
  Li  Li11  1  0.00000000  0.00000000  0.00000000  1
  Li  Li12  1  0.32841600  0.10572300  0.43896700  1
  Li  Li13  1  0.33333300  0.66666700  0.87831800  1
  Li  Li14  1  0.32841600  0.22269200  0.93896700  1
  Li  Li15  1  0.66666700  0.33333300  0.12168200  1
  Li  Li16  1  0.22269200  0.32841600  0.56103300  1
  Li  Li17  1  0.22269200  0.89427700  0.06103300  1
  Bi  Bi18  1  0.00000000  0.43855200  0.25000000  1
  Bi  Bi19  1  0.56144800  0.00000000  0.75000000  1
  Bi  Bi20  1  0.00000000  0.56144800  0.75000000  1
  Bi  Bi21  1  0.43855200  0.00000000  0.25000000  1
  Bi  Bi22  1  0.43855200  0.43855200  0.75000000  1
  Bi  Bi23  1  0.56144800  0.56144800  0.25000000  1
  P  P24  1  0.21545500  0.30469900  0.34635700  1
  P  P25  1  0.66666700  0.33333300  0.38955300  1
  P  P26  1  0.30469900  0.21545500  0.15364300  1
  P  P27  1  0.33333300  0.66666700  0.61044700  1
  P  P28  1  0.66666700  0.33333300  0.88955300  1
  P  P29  1  0.78454500  0.69530100  0.65364400  1
  P  P30  1  0.69530100  0.91075600  0.34635700  1
  P  P31  1  0.08924400  0.30469900  0.84635600  1
  P  P32  1  0.21545500  0.91075600  0.84635600  1
  P  P33  1  0.69530100  0.78454500  0.84635600  1
  P  P34  1  0.33333300  0.66666700  0.11044700  1
  P  P35  1  0.91075600  0.69530100  0.15364300  1
  P  P36  1  0.78454500  0.08924400  0.15364300  1
  P  P37  1  0.30469900  0.08924400  0.65364400  1
  P  P38  1  0.91075600  0.21545500  0.65364400  1
  P  P39  1  0.08924400  0.78454500  0.34635700  1
  O  O40  1  0.76594300  0.70344500  0.15280100  1
  O  O41  1  0.87034800  0.52998500  0.15811700  1
  O  O42  1  0.77794900  0.77794900  0.75000000  1
  O  O43  1  0.06249700  0.29655500  0.34719900  1
  O  O44  1  0.65963600  0.12965200  0.15811700  1
  O  O45  1  0.29655500  0.06249700  0.15280100  1
  O  O46  1  0.79388400  0.48857000  0.85158300  1
  O  O47  1  0.79388400  0.30531400  0.35158300  1
  O  O48  1  0.34036400  0.47001500  0.34188300  1
  O  O49  1  0.21892000  0.99434600  0.56867300  1
  O  O50  1  0.00565400  0.78108000  0.06867300  1
  O  O51  1  0.51143000  0.20611600  0.35158300  1
  O  O52  1  0.87034800  0.34036400  0.65811700  1
  O  O53  1  0.23405700  0.93750300  0.34719900  1
  O  O54  1  0.51143000  0.30531400  0.85158300  1
  O  O55  1  0.65963600  0.52998500  0.65811700  1
  O  O56  1  0.78108000  0.77542700  0.93132700  1
  O  O57  1  0.48857000  0.79388400  0.64841700  1
  O  O58  1  0.12965200  0.47001500  0.84188300  1
  O  O59  1  0.93750300  0.23405700  0.15280100  1
  O  O60  1  0.77794900  0.00000000  0.25000000  1
  O  O61  1  0.47001500  0.12965200  0.65811700  1
  O  O62  1  0.93750300  0.70344500  0.65280100  1
  O  O63  1  0.70344500  0.76594300  0.34719900  1
  O  O64  1  0.00000000  0.77794900  0.25000000  1
  O  O65  1  0.20611600  0.51143000  0.14841700  1
  O  O66  1  0.52998500  0.65963600  0.84188300  1
  O  O67  1  0.47001500  0.34036400  0.15811700  1
  O  O68  1  0.69468600  0.20611600  0.85158300  1
  O  O69  1  0.22205100  0.22205100  0.25000000  1
  O  O70  1  0.70344500  0.93750300  0.84719900  1
  O  O71  1  0.33333300  0.66666700  0.50423400  1
  O  O72  1  0.21892000  0.22457300  0.06867300  1
  O  O73  1  0.00565400  0.22457300  0.56867300  1
  O  O74  1  0.29655500  0.23405700  0.65280100  1
  O  O75  1  0.52998500  0.87034800  0.34188300  1
  O  O76  1  0.23405700  0.29655500  0.84719900  1
  O  O77  1  0.66666700  0.33333300  0.49576600  1
  O  O78  1  0.99434600  0.21892000  0.93132700  1
  O  O79  1  0.30531400  0.79388400  0.14841700  1
  O  O80  1  0.20611600  0.69468600  0.64841700  1
  O  O81  1  0.77542700  0.99434600  0.06867300  1
  O  O82  1  0.66666700  0.33333300  0.99576600  1
  O  O83  1  0.00000000  0.22205100  0.75000000  1
  O  O84  1  0.22205100  0.00000000  0.75000000  1
  O  O85  1  0.22457300  0.00565400  0.93132700  1
  O  O86  1  0.34036400  0.87034800  0.84188300  1
  O  O87  1  0.22457300  0.21892000  0.43132700  1
  O  O88  1  0.33333300  0.66666700  0.00423400  1
  O  O89  1  0.06249700  0.76594300  0.84719900  1
  O  O90  1  0.30531400  0.51143000  0.64841700  1
  O  O91  1  0.12965200  0.65963600  0.34188300  1
  O  O92  1  0.78108000  0.00565400  0.43132700  1
  O  O93  1  0.76594300  0.06249700  0.65280100  1
  O  O94  1  0.77542700  0.78108000  0.56867300  1
  O  O95  1  0.69468600  0.48857000  0.35158300  1
  O  O96  1  0.99434600  0.77542700  0.43132700  1
  O  O97  1  0.48857000  0.69468600  0.14841700  1
