# generated using pymatgen
data_Ba3Sn2S7
_symmetry_space_group_name_H-M   'P 1'
_cell_length_a   6.85804627
_cell_length_b   11.20218919
_cell_length_c   18.92638219
_cell_angle_alpha   79.35968808
_cell_angle_beta   90.00000000
_cell_angle_gamma   90.00000000
_symmetry_Int_Tables_number   1
_chemical_formula_structural   Ba3Sn2S7
_chemical_formula_sum   'Ba12 Sn8 S28'
_cell_volume   1429.02089270
_cell_formula_units_Z   4
loop_
 _symmetry_equiv_pos_site_id
 _symmetry_equiv_pos_as_xyz
  1  'x, y, z'
loop_
 _atom_site_type_symbol
 _atom_site_label
 _atom_site_symmetry_multiplicity
 _atom_site_fract_x
 _atom_site_fract_y
 _atom_site_fract_z
 _atom_site_occupancy
  Ba  Ba0  1  0.77480036  0.25665226  0.33500178  1
  Ba  Ba1  1  0.78115349  0.48744151  0.60879729  1
  Ba  Ba2  1  0.21884651  0.51255849  0.39120271  1
  Ba  Ba3  1  0.26680312  0.94156335  0.38898638  1
  Ba  Ba4  1  0.73319688  0.05843665  0.61101362  1
  Ba  Ba5  1  0.23319688  0.94156335  0.88898638  1
  Ba  Ba6  1  0.27480036  0.74334774  0.16499822  1
  Ba  Ba7  1  0.28115349  0.51255849  0.89120271  1
  Ba  Ba8  1  0.22519964  0.74334774  0.66499822  1
  Ba  Ba9  1  0.76680312  0.05843665  0.11101362  1
  Ba  Ba10  1  0.72519964  0.25665226  0.83500178  1
  Ba  Ba11  1  0.71884651  0.48744151  0.10879729  1
  Sn  Sn12  1  0.30071924  0.27485194  0.69580907  1
  Sn  Sn13  1  0.79571807  0.79395707  0.49629476  1
  Sn  Sn14  1  0.80071924  0.72514806  0.80419093  1
  Sn  Sn15  1  0.69928076  0.72514806  0.30419093  1
  Sn  Sn16  1  0.70428193  0.79395707  0.99629476  1
  Sn  Sn17  1  0.20428193  0.20604293  0.50370524  1
  Sn  Sn18  1  0.19928076  0.27485194  0.19580907  1
  Sn  Sn19  1  0.29571807  0.20604293  0.00370524  1
  S  S20  1  0.57947712  0.67601074  0.43193768  1
  S  S21  1  0.18088229  0.23294640  0.88315272  1
  S  S22  1  0.72523685  -0.00219025  0.93960916  1
  S  S23  1  0.55993504  0.54846689  0.26948137  1
  S  S24  1  0.59528760  0.31745605  0.98962762  1
  S  S25  1  0.47142821  0.09628054  0.74659162  1
  S  S26  1  0.04092893  0.75098198  0.30676390  1
  S  S27  1  0.22523685  0.00219025  0.56039084  1
  S  S28  1  0.42052288  0.32398926  0.56806232  1
  S  S29  1  0.27476315  0.00219025  0.06039084  1
  S  S30  1  0.92052288  0.67601074  0.93193768  1
  S  S31  1  0.05993504  0.45153311  0.23051863  1
  S  S32  1  0.44006496  0.45153311  0.73051863  1
  S  S33  1  0.54092893  0.24901802  0.19323610  1
  S  S34  1  0.09528760  0.68254395  0.51037238  1
  S  S35  1  0.31911771  0.23294640  0.38315272  1
  S  S36  1  0.52857179  0.90371946  0.25340838  1
  S  S37  1  0.90471240  0.31745605  0.48962762  1
  S  S38  1  0.40471240  0.68254395  0.01037238  1
  S  S39  1  0.77476315  -0.00219025  0.43960916  1
  S  S40  1  0.95907107  0.24901802  0.69323610  1
  S  S41  1  0.81911771  0.76705360  0.11684728  1
  S  S42  1  0.94006496  0.54846689  0.76948137  1
  S  S43  1  0.97142821  0.90371946  0.75340838  1
  S  S44  1  0.45907107  0.75098198  0.80676390  1
  S  S45  1  0.68088229  0.76705360  0.61684728  1
  S  S46  1  0.02857179  0.09628054  0.24659162  1
  S  S47  1  0.07947712  0.32398926  0.06806232  1
