# generated using pymatgen
data_GdP5O14
_symmetry_space_group_name_H-M   'P 1'
_cell_length_a   8.90798241
_cell_length_b   8.74197504
_cell_length_c   12.93921401
_cell_angle_alpha   89.55072034
_cell_angle_beta   90.00000000
_cell_angle_gamma   90.00000000
_symmetry_Int_Tables_number   1
_chemical_formula_structural   GdP5O14
_chemical_formula_sum   'Gd4 P20 O56'
_cell_volume   1007.58909093
_cell_formula_units_Z   4
loop_
 _symmetry_equiv_pos_site_id
 _symmetry_equiv_pos_as_xyz
  1  'x, y, z'
loop_
 _atom_site_type_symbol
 _atom_site_label
 _atom_site_symmetry_multiplicity
 _atom_site_fract_x
 _atom_site_fract_y
 _atom_site_fract_z
 _atom_site_occupancy
  Gd  Gd0  1  0.69114126  0.72309605  0.99894292  1
  Gd  Gd1  1  0.19114126  0.27690395  0.50105708  1
  Gd  Gd2  1  0.30885874  0.27690395  0.00105708  1
  Gd  Gd3  1  0.80885874  0.72309605  0.49894292  1
  P  P4  1  0.00478178  0.50710303  0.29824290  1
  P  P5  1  0.75561456  0.31545464  0.50013711  1
  P  P6  1  0.50247628  0.99415721  0.17164501  1
  P  P7  1  0.05145612  0.77176795  0.16437694  1
  P  P8  1  0.00247628  0.00584279  0.32835499  1
  P  P9  1  0.24438544  0.68454536  0.49986289  1
  P  P10  1  0.25561456  0.68454536  0.99986289  1
  P  P11  1  0.94854388  0.22823205  0.83562306  1
  P  P12  1  0.50478178  0.49289697  0.20175710  1
  P  P13  1  0.54768096  0.24439629  0.66533147  1
  P  P14  1  0.49752372  0.00584279  0.82835499  1
  P  P15  1  0.45231904  0.75560371  0.33466853  1
  P  P16  1  0.55145612  0.22823205  0.33562306  1
  P  P17  1  0.95231904  0.24439629  0.16533147  1
  P  P18  1  0.49521822  0.50710303  0.79824290  1
  P  P19  1  0.74438544  0.31545464  0.00013711  1
  P  P20  1  0.04768096  0.75560371  0.83466853  1
  P  P21  1  0.99752372  0.99415721  0.67164501  1
  P  P22  1  0.44854388  0.77176795  0.66437694  1
  P  P23  1  0.99521822  0.49289697  0.70175710  1
  O  O24  1  0.58008248  0.13230217  0.75646491  1
  O  O25  1  0.11686727  0.08318961  0.62072911  1
  O  O26  1  0.81363169  0.46890869  0.99547274  1
  O  O27  1  0.31299600  0.79172955  0.58943967  1
  O  O28  1  0.91807115  0.09321177  0.76098813  1
  O  O29  1  0.90401403  0.76735613  0.11523674  1
  O  O30  1  0.59370425  0.77794407  0.38986123  1
  O  O31  1  0.41807115  0.90678823  0.73901187  1
  O  O32  1  0.07387338  0.59323369  0.78957096  1
  O  O33  1  0.69216379  0.22170104  0.59915574  1
  O  O34  1  0.58112040  0.29098232  0.99949407  1
  O  O35  1  0.38298910  0.41164576  0.14850454  1
  O  O36  1  0.38313273  0.08318961  0.12072911  1
  O  O37  1  0.37610502  0.07893638  0.88722991  1
  O  O38  1  0.09598597  0.23264387  0.88476326  1
  O  O39  1  0.92612662  0.40676631  0.21042904  1
  O  O40  1  0.12389498  0.07893638  0.38722991  1
  O  O41  1  0.31363169  0.53109131  0.50452726  1
  O  O42  1  0.88220419  0.58630335  0.64738471  1
  O  O43  1  0.11701090  0.41164576  0.64850454  1
  O  O44  1  0.42612662  0.59323369  0.28957096  1
  O  O45  1  0.11779581  0.41369665  0.35261529  1
  O  O46  1  0.40401403  0.23264387  0.38476326  1
  O  O47  1  0.58192885  0.09321177  0.26098813  1
  O  O48  1  0.40267919  0.62574239  0.72750361  1
  O  O49  1  0.41887960  0.70901768  0.00050593  1
  O  O50  1  0.09370425  0.22205593  0.11013877  1
  O  O51  1  0.08008248  0.86769783  0.74353509  1
  O  O52  1  0.68636831  0.46890869  0.49547274  1
  O  O53  1  0.80783621  0.22170104  0.09915574  1
  O  O54  1  0.90629575  0.77794407  0.88986123  1
  O  O55  1  0.19216379  0.77829896  0.90084426  1
  O  O56  1  0.59598597  0.76735613  0.61523674  1
  O  O57  1  0.81299600  0.20827045  0.91056033  1
  O  O58  1  0.18636831  0.53109131  0.00452726  1
  O  O59  1  0.30783621  0.77829896  0.40084426  1
  O  O60  1  0.57387338  0.40676631  0.71042904  1
  O  O61  1  0.91991752  0.13230217  0.25646491  1
  O  O62  1  0.61686727  0.91681039  0.87927089  1
  O  O63  1  0.61701090  0.58835424  0.85149546  1
  O  O64  1  0.68700400  0.20827045  0.41056033  1
  O  O65  1  0.18700400  0.79172955  0.08943967  1
  O  O66  1  0.61779581  0.58630335  0.14738471  1
  O  O67  1  0.88313273  0.91681039  0.37927089  1
  O  O68  1  0.59732081  0.37425761  0.27249639  1
  O  O69  1  0.87610502  0.92106362  0.61277009  1
  O  O70  1  0.38220419  0.41369665  0.85261529  1
  O  O71  1  0.09732081  0.62574239  0.22750361  1
  O  O72  1  0.88298910  0.58835424  0.35149546  1
  O  O73  1  0.40629575  0.22205593  0.61013877  1
  O  O74  1  0.08112040  0.70901768  0.50050593  1
  O  O75  1  0.90267919  0.37425761  0.77249639  1
  O  O76  1  0.91887960  0.29098232  0.49949407  1
  O  O77  1  0.41991752  0.86769783  0.24353509  1
  O  O78  1  0.62389498  0.92106362  0.11277009  1
  O  O79  1  0.08192885  0.90678823  0.23901187  1
