# generated using pymatgen
data_In5S5Br
_symmetry_space_group_name_H-M   'P 1'
_cell_length_a   3.95744709
_cell_length_b   9.14793245
_cell_length_c   15.10718985
_cell_angle_alpha   90.00000000
_cell_angle_beta   90.00000000
_cell_angle_gamma   90.00000000
_symmetry_Int_Tables_number   1
_chemical_formula_structural   In5S5Br
_chemical_formula_sum   'In10 S10 Br2'
_cell_volume   546.91741592
_cell_formula_units_Z   2
loop_
 _symmetry_equiv_pos_site_id
 _symmetry_equiv_pos_as_xyz
  1  'x, y, z'
loop_
 _atom_site_type_symbol
 _atom_site_label
 _atom_site_symmetry_multiplicity
 _atom_site_fract_x
 _atom_site_fract_y
 _atom_site_fract_z
 _atom_site_occupancy
  In  In0  1  -0.00000000  0.88439115  0.40192196  1
  In  In1  1  0.50000000  0.11560885  0.90192196  1
  In  In2  1  0.50000000  0.60519394  0.52655669  1
  In  In3  1  0.00000000  0.39480606  0.02655669  1
  In  In4  1  0.50000000  0.18493117  0.30290330  1
  In  In5  1  -0.00000000  0.81506883  0.80290330  1
  In  In6  1  0.50000000  0.47800778  0.25584308  1
  In  In7  1  0.00000000  0.52199222  0.75584308  1
  In  In8  1  0.50000000  0.86452111  0.10532478  1
  In  In9  1  0.00000000  0.13547889  0.60532478  1
  S  S10  1  0.50000000  0.69832822  0.36191265  1
  S  S11  1  0.00000000  0.30167178  0.86191265  1
  S  S12  1  0.50000000  0.43669782  0.66297872  1
  S  S13  1  0.00000000  0.56330218  0.16297872  1
  S  S14  1  0.00000000  0.77148221  0.56274591  1
  S  S15  1  0.50000000  0.22851779  0.06274591  1
  S  S16  1  0.50000000  0.05851303  0.45331313  1
  S  S17  1  0.00000000  0.94148697  0.95331313  1
  S  S18  1  0.00000000  0.02820364  0.25246868  1
  S  S19  1  0.50000000  0.97179636  0.75246868  1
  Br  Br20  1  0.00000000  0.40147966  0.46071111  1
  Br  Br21  1  0.50000000  0.59852034  0.96071111  1
