# generated using pymatgen
data_Pr3SbO7
_symmetry_space_group_name_H-M   'P 1'
_cell_length_a   6.69297289
_cell_length_b   6.69297289
_cell_length_c   7.70826692
_cell_angle_alpha   90.00000000
_cell_angle_beta   90.00000000
_cell_angle_gamma   110.96555304
_symmetry_Int_Tables_number   1
_chemical_formula_structural   Pr3SbO7
_chemical_formula_sum   'Pr6 Sb2 O14'
_cell_volume   322.43839662
_cell_formula_units_Z   2
loop_
 _symmetry_equiv_pos_site_id
 _symmetry_equiv_pos_as_xyz
  1  'x, y, z'
loop_
 _atom_site_type_symbol
 _atom_site_label
 _atom_site_symmetry_multiplicity
 _atom_site_fract_x
 _atom_site_fract_y
 _atom_site_fract_z
 _atom_site_occupancy
  Pr  Pr0  1  0.47879993  0.93149372  0.75000000  1
  Pr  Pr1  1  0.52120007  0.06850628  0.25000000  1
  Pr  Pr2  1  0.93149372  0.47879993  0.75000000  1
  Pr  Pr3  1  0.06850628  0.52120007  0.25000000  1
  Pr  Pr4  1  0.00000000  0.00000000  0.50000000  1
  Pr  Pr5  1  0.00000000  0.00000000  0.00000000  1
  Sb  Sb6  1  0.50000000  0.50000000  0.50000000  1
  Sb  Sb7  1  0.50000000  0.50000000  0.00000000  1
  O  O8  1  0.57784893  0.57784893  0.75000000  1
  O  O9  1  0.42215107  0.42215107  0.25000000  1
  O  O10  1  0.84724669  0.11018865  0.75000000  1
  O  O11  1  0.15275331  0.88981135  0.25000000  1
  O  O12  1  0.11018865  0.84724669  0.75000000  1
  O  O13  1  0.88981135  0.15275331  0.25000000  1
  O  O14  1  0.44049221  0.19015575  0.96556181  1
  O  O15  1  0.55950779  0.80984425  0.46556181  1
  O  O16  1  0.19015575  0.44049221  0.96556181  1
  O  O17  1  0.80984425  0.55950779  0.46556181  1
  O  O18  1  0.44049221  0.19015575  0.53443819  1
  O  O19  1  0.55950779  0.80984425  0.03443819  1
  O  O20  1  0.80984425  0.55950779  0.03443819  1
  O  O21  1  0.19015575  0.44049221  0.53443819  1
