# generated using pymatgen
data_Pb3SeO5
_symmetry_space_group_name_H-M   'P 1'
_cell_length_a   7.58053797
_cell_length_b   7.58053797
_cell_length_c   5.77762033
_cell_angle_alpha   90.00000000
_cell_angle_beta   90.00000000
_cell_angle_gamma   91.42877923
_symmetry_Int_Tables_number   1
_chemical_formula_structural   Pb3SeO5
_chemical_formula_sum   'Pb6 Se2 O10'
_cell_volume   331.90516221
_cell_formula_units_Z   2
loop_
 _symmetry_equiv_pos_site_id
 _symmetry_equiv_pos_as_xyz
  1  'x, y, z'
loop_
 _atom_site_type_symbol
 _atom_site_label
 _atom_site_symmetry_multiplicity
 _atom_site_fract_x
 _atom_site_fract_y
 _atom_site_fract_z
 _atom_site_occupancy
  Pb  Pb0  1  0.11617837  0.88382163  0.18684131  1
  Pb  Pb1  1  0.88382163  0.11617837  0.68684131  1
  Pb  Pb2  1  0.64091833  0.86319812  0.18863480  1
  Pb  Pb3  1  0.35908167  0.13680188  0.68863480  1
  Pb  Pb4  1  0.13680188  0.35908167  0.18863480  1
  Pb  Pb5  1  0.86319812  0.64091833  0.68863480  1
  Se  Se6  1  0.62880050  0.37119950  0.13828671  1
  Se  Se7  1  0.37119950  0.62880050  0.63828671  1
  O  O8  1  0.86876167  0.86332488  0.95254017  1
  O  O9  1  0.13123833  0.13667512  0.45254017  1
  O  O10  1  0.13667512  0.13123833  0.95254017  1
  O  O11  1  0.86332488  0.86876167  0.45254017  1
  O  O12  1  0.77770262  0.22229738  0.22881478  1
  O  O13  1  0.22229738  0.77770262  0.72881478  1
  O  O14  1  0.44096906  0.30290209  0.28335262  1
  O  O15  1  0.55903094  0.69709791  0.78335262  1
  O  O16  1  0.69709791  0.55903094  0.28335262  1
  O  O17  1  0.30290209  0.44096906  0.78335262  1
