# generated using pymatgen
data_Cs7Fe4F15
_symmetry_space_group_name_H-M   'P 1'
_cell_length_a   11.04104974
_cell_length_b   7.85399365
_cell_length_c   11.64232651
_cell_angle_alpha   87.80101445
_cell_angle_beta   90.00000000
_cell_angle_gamma   90.00000000
_symmetry_Int_Tables_number   1
_chemical_formula_structural   Cs7Fe4F15
_chemical_formula_sum   'Cs14 Fe8 F30'
_cell_volume   1008.83642123
_cell_formula_units_Z   2
loop_
 _symmetry_equiv_pos_site_id
 _symmetry_equiv_pos_as_xyz
  1  'x, y, z'
loop_
 _atom_site_type_symbol
 _atom_site_label
 _atom_site_symmetry_multiplicity
 _atom_site_fract_x
 _atom_site_fract_y
 _atom_site_fract_z
 _atom_site_occupancy
  Cs  Cs0  1  0.31893796  0.49479168  0.47219773  1
  Cs  Cs1  1  0.65364216  0.84495324  0.80634519  1
  Cs  Cs2  1  0.81893796  0.50520832  0.02780227  1
  Cs  Cs3  1  0.99601426  0.66987132  0.66579304  1
  Cs  Cs4  1  0.00000000  -0.00000000  0.00000000  1
  Cs  Cs5  1  0.15364216  0.15504676  0.69365481  1
  Cs  Cs6  1  0.50398574  0.66987132  0.16579304  1
  Cs  Cs7  1  0.49601426  0.33012868  0.83420696  1
  Cs  Cs8  1  0.68106204  0.50520832  0.52780227  1
  Cs  Cs9  1  0.18106204  0.49479168  0.97219773  1
  Cs  Cs10  1  0.50000000  -0.00000000  0.50000000  1
  Cs  Cs11  1  0.84635784  0.84495324  0.30634519  1
  Cs  Cs12  1  0.00398574  0.33012868  0.33420696  1
  Cs  Cs13  1  0.34635784  0.15504676  0.19365481  1
  Fe  Fe14  1  0.17246708  0.73789109  0.22724048  1
  Fe  Fe15  1  0.33800858  0.92063295  0.92451392  1
  Fe  Fe16  1  0.82753292  0.26210891  0.77275952  1
  Fe  Fe17  1  0.83800858  0.07936705  0.57548608  1
  Fe  Fe18  1  0.16199142  0.92063295  0.42451392  1
  Fe  Fe19  1  0.67246708  0.26210891  0.27275952  1
  Fe  Fe20  1  0.32753292  0.73789109  0.72724048  1
  Fe  Fe21  1  0.66199142  0.07936705  0.07548608  1
  F  F22  1  0.97584880  0.33152382  0.85248873  1
  F  F23  1  0.40125857  0.98596680  0.75153162  1
  F  F24  1  0.23644623  0.82499806  0.58030980  1
  F  F25  1  0.26355377  0.82499806  0.08030980  1
  F  F26  1  0.24981445  0.50319631  0.72338198  1
  F  F27  1  0.68592697  0.18270079  0.67072280  1
  F  F28  1  0.74981445  0.49680369  0.77661802  1
  F  F29  1  0.31407303  0.81729921  0.32927720  1
  F  F30  1  0.59114533  0.31466005  0.10189178  1
  F  F31  1  0.76355377  0.17500194  0.41969020  1
  F  F32  1  0.25018555  0.50319631  0.22338198  1
  F  F33  1  0.90125857  0.01403320  0.74846838  1
  F  F34  1  0.81407303  0.18270079  0.17072280  1
  F  F35  1  0.90885467  0.31466005  0.60189178  1
  F  F36  1  0.73796841  0.85664984  0.05998635  1
  F  F37  1  0.26203159  0.14335016  0.94001365  1
  F  F38  1  0.47584880  0.66847618  0.64751127  1
  F  F39  1  0.02415120  0.66847618  0.14751127  1
  F  F40  1  0.09114533  0.68533995  0.39810822  1
  F  F41  1  0.76203159  0.85664984  0.55998635  1
  F  F42  1  0.75018555  0.49680369  0.27661802  1
  F  F43  1  0.09874143  0.98596680  0.25153162  1
  F  F44  1  0.73644623  0.17500194  0.91969020  1
  F  F45  1  0.23796841  0.14335016  0.44001365  1
  F  F46  1  0.59874143  0.01403320  0.24846838  1
  F  F47  1  0.18592697  0.81729921  0.82927720  1
  F  F48  1  0.52415120  0.33152382  0.35248873  1
  F  F49  1  0.40885467  0.68533995  0.89810822  1
  F  F50  1  0.00000000  -0.00000000  0.50000000  1
  F  F51  1  0.50000000  -0.00000000  0.00000000  1
