# generated using pymatgen
data_Bi24Cl10O31
_symmetry_space_group_name_H-M   'P 1'
_cell_length_a   7.98054110
_cell_length_b   10.07477227
_cell_length_c   29.67265661
_cell_angle_alpha   88.86530684
_cell_angle_beta   90.00000000
_cell_angle_gamma   90.00000000
_symmetry_Int_Tables_number   1
_chemical_formula_structural   Bi24Cl10O31
_chemical_formula_sum   'Bi48 Cl20 O62'
_cell_volume   2385.27708568
_cell_formula_units_Z   2
loop_
 _symmetry_equiv_pos_site_id
 _symmetry_equiv_pos_as_xyz
  1  'x, y, z'
loop_
 _atom_site_type_symbol
 _atom_site_label
 _atom_site_symmetry_multiplicity
 _atom_site_fract_x
 _atom_site_fract_y
 _atom_site_fract_z
 _atom_site_occupancy
  Bi  Bi0  1  0.85090707  0.91872912  0.68674919  1
  Bi  Bi1  1  0.37581499  0.09983419  0.09859887  1
  Bi  Bi2  1  0.62418501  0.90016581  0.90140113  1
  Bi  Bi3  1  0.34376145  0.07652082  0.80440444  1
  Bi  Bi4  1  0.12277051  0.40263091  0.83403661  1
  Bi  Bi5  1  0.14909293  0.91872912  0.18674919  1
  Bi  Bi6  1  0.87722949  0.59736909  0.16596339  1
  Bi  Bi7  1  0.10882096  0.79361324  0.78134780  1
  Bi  Bi8  1  0.62423653  0.44212405  0.54707475  1
  Bi  Bi9  1  0.89117904  0.79361324  0.28134780  1
  Bi  Bi10  1  0.62423653  0.55787595  0.95292525  1
  Bi  Bi11  1  0.11767907  0.24664830  0.42656474  1
  Bi  Bi12  1  0.37576347  0.44212405  0.04707475  1
  Bi  Bi13  1  0.15754494  0.06627854  0.59160308  1
  Bi  Bi14  1  0.37576347  0.55787595  0.45292525  1
  Bi  Bi15  1  0.37581499  0.90016581  0.40140113  1
  Bi  Bi16  1  0.34826819  0.74612971  0.57333261  1
  Bi  Bi17  1  0.65173181  0.74612971  0.07333261  1
  Bi  Bi18  1  0.37460059  0.75423040  0.28305752  1
  Bi  Bi19  1  0.12417123  0.42954424  0.54531996  1
  Bi  Bi20  1  0.62007630  0.39553097  0.83683518  1
  Bi  Bi21  1  0.12277051  0.59736909  0.66596339  1
  Bi  Bi22  1  0.10882096  0.20638676  0.71865220  1
  Bi  Bi23  1  0.34376145  0.92347918  0.69559556  1
  Bi  Bi24  1  0.12417123  0.57045576  0.95468004  1
  Bi  Bi25  1  0.84245506  0.93372146  0.40839692  1
  Bi  Bi26  1  0.37992370  0.39553097  0.33683518  1
  Bi  Bi27  1  0.88232093  0.75335170  0.57343526  1
  Bi  Bi28  1  0.87582877  0.42954424  0.04531996  1
  Bi  Bi29  1  0.87722949  0.40263091  0.33403661  1
  Bi  Bi30  1  0.84245506  0.06627854  0.09160308  1
  Bi  Bi31  1  0.87582877  0.57045576  0.45468004  1
  Bi  Bi32  1  0.65623855  0.07652082  0.30440444  1
  Bi  Bi33  1  0.37992370  0.60446903  0.16316482  1
  Bi  Bi34  1  0.88232093  0.24664830  0.92656474  1
  Bi  Bi35  1  0.62007630  0.60446903  0.66316482  1
  Bi  Bi36  1  0.11767907  0.75335170  0.07343526  1
  Bi  Bi37  1  0.15754494  0.93372146  0.90839692  1
  Bi  Bi38  1  0.14909293  0.08127088  0.31325081  1
  Bi  Bi39  1  0.34826819  0.25387029  0.92666739  1
  Bi  Bi40  1  0.89117904  0.20638676  0.21865220  1
  Bi  Bi41  1  0.85090707  0.08127088  0.81325081  1
  Bi  Bi42  1  0.37460059  0.24576960  0.21694248  1
  Bi  Bi43  1  0.62539941  0.75423040  0.78305752  1
  Bi  Bi44  1  0.65623855  0.92347918  0.19559556  1
  Bi  Bi45  1  0.62539941  0.24576960  0.71694248  1
  Bi  Bi46  1  0.62418501  0.09983419  0.59859887  1
  Bi  Bi47  1  0.65173181  0.25387029  0.42666739  1
  Cl  Cl48  1  0.62209912  0.80016015  0.48918880  1
  Cl  Cl49  1  0.87154386  0.19516877  0.51409180  1
  Cl  Cl50  1  0.11471579  0.50000000  0.25000000  1
  Cl  Cl51  1  0.87154386  0.80483123  0.98590820  1
  Cl  Cl52  1  0.37790088  0.80016015  0.98918880  1
  Cl  Cl53  1  0.62503513  0.66298558  0.36980638  1
  Cl  Cl54  1  0.37496487  0.33701442  0.63019362  1
  Cl  Cl55  1  0.87520130  0.65358338  0.86837669  1
  Cl  Cl56  1  0.87520130  0.34641662  0.63162331  1
  Cl  Cl57  1  0.37790088  0.19983985  0.51081120  1
  Cl  Cl58  1  0.12845614  0.19516877  0.01409180  1
  Cl  Cl59  1  0.12479870  0.65358338  0.36837669  1
  Cl  Cl60  1  0.37496487  0.66298558  0.86980638  1
  Cl  Cl61  1  0.37058682  0.50000000  0.75000000  1
  Cl  Cl62  1  0.62209912  0.19983985  0.01081120  1
  Cl  Cl63  1  0.88528421  0.50000000  0.75000000  1
  Cl  Cl64  1  0.62503513  0.33701442  0.13019362  1
  Cl  Cl65  1  0.12479870  0.34641662  0.13162331  1
  Cl  Cl66  1  0.62941318  0.50000000  0.25000000  1
  Cl  Cl67  1  0.12845614  0.80483123  0.48590820  1
  O  O68  1  0.87175449  0.39272090  0.41246982  1
  O  O69  1  0.63092953  0.69507143  0.14581796  1
  O  O70  1  0.87175449  0.60727910  0.08753018  1
  O  O71  1  0.63178597  0.07777014  0.67027032  1
  O  O72  1  0.39526968  0.14191219  0.73151097  1
  O  O73  1  0.37281249  0.21551331  0.29616591  1
  O  O74  1  0.22076834  0.93361889  0.10547042  1
  O  O75  1  0.12419777  0.52555732  0.02805218  1
  O  O76  1  0.36907047  0.69507143  0.64581796  1
  O  O77  1  0.11513579  0.86127495  0.59418140  1
  O  O78  1  0.40303886  0.01779553  0.90035862  1
  O  O79  1  0.87729698  0.30776786  0.85414349  1
  O  O80  1  0.12270302  0.30776786  0.35414349  1
  O  O81  1  0.85129563  0.13280404  0.73385572  1
  O  O82  1  0.87729698  0.69223214  0.64585651  1
  O  O83  1  0.12450013  0.77591245  0.70483480  1
  O  O84  1  0.87718890  0.05998383  0.16214910  1
  O  O85  1  0.37281249  0.78448669  0.20383409  1
  O  O86  1  0.87580223  0.47444268  0.97194782  1
  O  O87  1  0.22076834  0.06638111  0.39452958  1
  O  O88  1  0.77923166  0.06638111  0.89452958  1
  O  O89  1  0.59696114  0.98220447  0.09964138  1
  O  O90  1  0.62672517  0.53063535  0.02781240  1
  O  O91  1  0.62176478  0.62595913  0.58869302  1
  O  O92  1  0.12281110  0.05998383  0.66214910  1
  O  O93  1  0.62718751  0.21551331  0.79616591  1
  O  O94  1  0.87580223  0.52555732  0.52805218  1
  O  O95  1  0.12824551  0.60727910  0.58753018  1
  O  O96  1  0.87718890  0.94001617  0.33785090  1
  O  O97  1  0.36821403  0.07777014  0.17027032  1
  O  O98  1  0.62718751  0.78448669  0.70383409  1
  O  O99  1  0.59696114  0.01779553  0.40035862  1
  O  O100  1  0.77923166  0.93361889  0.60547042  1
  O  O101  1  0.12824551  0.39272090  0.91246982  1
  O  O102  1  0.62672517  0.46936465  0.47218760  1
  O  O103  1  0.11513579  0.13872505  0.90581860  1
  O  O104  1  0.14870437  0.13280404  0.23385572  1
  O  O105  1  0.63178597  0.92222986  0.82972968  1
  O  O106  1  0.39526968  0.85808781  0.76848903  1
  O  O107  1  0.12450013  0.22408755  0.79516520  1
  O  O108  1  0.37327483  0.53063535  0.52781240  1
  O  O109  1  0.85146304  -0.00000000  0.25000000  1
  O  O110  1  0.62176478  0.37404087  0.91130698  1
  O  O111  1  0.36821403  0.92222986  0.32972968  1
  O  O112  1  0.37823522  0.37404087  0.41130698  1
  O  O113  1  0.88486421  0.86127495  0.09418140  1
  O  O114  1  0.12281110  0.94001617  0.83785090  1
  O  O115  1  0.37823522  0.62595913  0.08869302  1
  O  O116  1  0.87549987  0.77591245  0.20483480  1
  O  O117  1  0.12419777  0.47444268  0.47194782  1
  O  O118  1  0.60473032  0.85808781  0.26848903  1
  O  O119  1  0.12270302  0.69223214  0.14585651  1
  O  O120  1  0.88486421  0.13872505  0.40581860  1
  O  O121  1  0.87549987  0.22408755  0.29516520  1
  O  O122  1  0.40303886  0.98220447  0.59964138  1
  O  O123  1  0.63092953  0.30492857  0.35418204  1
  O  O124  1  0.14853696  -0.00000000  0.75000000  1
  O  O125  1  0.85129563  0.86719596  0.76614428  1
  O  O126  1  0.60473032  0.14191219  0.23151097  1
  O  O127  1  0.37327483  0.46936465  0.97218760  1
  O  O128  1  0.36907047  0.30492857  0.85418204  1
  O  O129  1  0.14870437  0.86719596  0.26614428  1
