# generated using pymatgen
data_NaC2N3
_symmetry_space_group_name_H-M   'P 1'
_cell_length_a   23.28422030
_cell_length_b   3.50618139
_cell_length_c   10.98453322
_cell_angle_alpha   80.79863566
_cell_angle_beta   90.00000000
_cell_angle_gamma   90.00000000
_symmetry_Int_Tables_number   1
_chemical_formula_structural   NaC2N3
_chemical_formula_sum   'Na12 C24 N36'
_cell_volume   885.22387406
_cell_formula_units_Z   12
loop_
 _symmetry_equiv_pos_site_id
 _symmetry_equiv_pos_as_xyz
  1  'x, y, z'
loop_
 _atom_site_type_symbol
 _atom_site_label
 _atom_site_symmetry_multiplicity
 _atom_site_fract_x
 _atom_site_fract_y
 _atom_site_fract_z
 _atom_site_occupancy
  Na  Na0  1  0.38703755  0.75117932  0.92607603  1
  Na  Na1  1  0.25656339  0.17740803  0.50668022  1
  Na  Na2  1  0.48888648  0.39041024  0.35346154  1
  Na  Na3  1  0.51111352  0.60958976  0.64653846  1
  Na  Na4  1  0.24343661  0.17740803  0.00668022  1
  Na  Na5  1  0.01111352  0.39041024  0.85346154  1
  Na  Na6  1  0.61296245  0.24882068  0.07392397  1
  Na  Na7  1  0.88703755  0.24882068  0.57392397  1
  Na  Na8  1  0.75656339  0.82259197  0.99331978  1
  Na  Na9  1  0.98888648  0.60958976  0.14653846  1
  Na  Na10  1  0.11296245  0.75117932  0.42607603  1
  Na  Na11  1  0.74343661  0.82259197  0.49331978  1
  C  C12  1  0.97181326  0.79127265  0.37941312  1
  C  C13  1  0.29480257  0.72187164  0.22463448  1
  C  C14  1  0.11703910  0.98022147  0.67596229  1
  C  C15  1  0.64733208  0.11925982  0.62385153  1
  C  C16  1  0.40562044  0.05616654  0.53146411  1
  C  C17  1  0.79480257  0.27812836  0.27536552  1
  C  C18  1  0.70745917  0.55974908  0.23512547  1
  C  C19  1  0.14733208  0.88074018  0.87614847  1
  C  C20  1  0.90562044  0.94383346  0.96853589  1
  C  C21  1  0.70519743  0.27812836  0.77536552  1
  C  C22  1  0.47181326  0.20872735  0.12058688  1
  C  C23  1  0.85266792  0.11925982  0.12385153  1
  C  C24  1  0.09437956  0.05616654  0.03146411  1
  C  C25  1  0.59437956  0.94383346  0.46853589  1
  C  C26  1  0.35266792  0.88074018  0.37614847  1
  C  C27  1  0.20519743  0.72187164  0.72463448  1
  C  C28  1  0.88296090  0.01977853  0.32403771  1
  C  C29  1  0.61703910  0.01977853  0.82403771  1
  C  C30  1  0.52818674  0.79127265  0.87941312  1
  C  C31  1  0.20745917  0.44025092  0.26487453  1
  C  C32  1  0.38296090  0.98022147  0.17596229  1
  C  C33  1  0.79254083  0.55974908  0.73512547  1
  C  C34  1  0.02818674  0.20872735  0.62058688  1
  C  C35  1  0.29254083  0.44025092  0.76487453  1
  N  N36  1  0.33283455  0.85239529  0.13572856  1
  N  N37  1  0.89602719  0.01460400  0.20414461  1
  N  N38  1  0.67199343  0.69775058  0.16514149  1
  N  N39  1  0.66716545  0.14760471  0.86427144  1
  N  N40  1  0.05156508  0.17231974  0.06969676  1
  N  N41  1  0.85775870  0.07348465  0.00399873  1
  N  N42  1  0.60397281  0.01460400  0.70414461  1
  N  N43  1  0.80161780  0.26287135  0.15414540  1
  N  N44  1  0.07859332  0.11056904  0.58613701  1
  N  N45  1  0.39602719  0.98539600  0.29585539  1
  N  N46  1  0.44843492  0.17231974  0.56969676  1
  N  N47  1  0.75458226  0.42481291  0.81665781  1
  N  N48  1  0.51804018  0.30341741  0.14672883  1
  N  N49  1  0.48195982  0.69658259  0.85327117  1
  N  N50  1  0.83283455  0.14760471  0.36427144  1
  N  N51  1  0.30161780  0.73712865  0.34585460  1
  N  N52  1  0.82800657  0.69775058  0.66514149  1
  N  N53  1  0.24541774  0.57518709  0.18334219  1
  N  N54  1  0.10397281  0.98539600  0.79585539  1
  N  N55  1  0.57859332  0.88943096  0.91386299  1
  N  N56  1  0.94843492  0.82768026  0.93030324  1
  N  N57  1  0.98195982  0.30341741  0.64672883  1
  N  N58  1  0.64224130  0.07348465  0.50399873  1
  N  N59  1  0.32800657  0.30224942  0.83485851  1
  N  N60  1  0.35775870  0.92651535  0.49600127  1
  N  N61  1  0.42140668  0.11056904  0.08613701  1
  N  N62  1  0.17199343  0.30224942  0.33485851  1
  N  N63  1  0.69838220  0.26287135  0.65414540  1
  N  N64  1  0.01804018  0.69658259  0.35327117  1
  N  N65  1  0.16716545  0.85239529  0.63572856  1
  N  N66  1  0.25458226  0.57518709  0.68334219  1
  N  N67  1  0.74541774  0.42481291  0.31665781  1
  N  N68  1  0.19838220  0.73712865  0.84585460  1
  N  N69  1  0.92140668  0.88943096  0.41386299  1
  N  N70  1  0.14224130  0.92651535  0.99600127  1
  N  N71  1  0.55156508  0.82768026  0.43030324  1
