# generated using pymatgen
data_Na3B6PO13
_symmetry_space_group_name_H-M   'P 1'
_cell_length_a   6.66780559
_cell_length_b   9.37545673
_cell_length_c   16.10643093
_cell_angle_alpha   90.00000000
_cell_angle_beta   90.00000000
_cell_angle_gamma   90.00000000
_symmetry_Int_Tables_number   1
_chemical_formula_structural   Na3B6PO13
_chemical_formula_sum   'Na12 B24 P4 O52'
_cell_volume   1006.87295834
_cell_formula_units_Z   4
loop_
 _symmetry_equiv_pos_site_id
 _symmetry_equiv_pos_as_xyz
  1  'x, y, z'
loop_
 _atom_site_type_symbol
 _atom_site_label
 _atom_site_symmetry_multiplicity
 _atom_site_fract_x
 _atom_site_fract_y
 _atom_site_fract_z
 _atom_site_occupancy
  Na  Na0  1  0.75253294  0.06041218  0.25000000  1
  Na  Na1  1  0.74376438  0.93933702  0.86461467  1
  Na  Na2  1  0.24376438  0.56066298  0.13538533  1
  Na  Na3  1  0.75623562  0.43933702  0.63538533  1
  Na  Na4  1  0.75623562  0.43933702  0.86461467  1
  Na  Na5  1  0.24746706  0.93958782  0.75000000  1
  Na  Na6  1  0.74746706  0.56041218  0.25000000  1
  Na  Na7  1  0.25623562  0.06066298  0.36461467  1
  Na  Na8  1  0.25253294  0.43958782  0.75000000  1
  Na  Na9  1  0.74376438  0.93933702  0.63538533  1
  Na  Na10  1  0.24376438  0.56066298  0.36461467  1
  Na  Na11  1  0.25623562  0.06066298  0.13538533  1
  B  B12  1  0.18914257  0.31665723  0.95197709  1
  B  B13  1  0.69522591  0.43644618  0.44947489  1
  B  B14  1  0.68914257  0.18334277  0.45197709  1
  B  B15  1  0.53677770  0.30968998  0.33003089  1
  B  B16  1  0.68914257  0.18334277  0.04802291  1
  B  B17  1  0.80477409  0.93644618  0.05052511  1
  B  B18  1  0.96322230  0.80968998  0.33003089  1
  B  B19  1  0.69522591  0.43644618  0.05052511  1
  B  B20  1  0.18914257  0.31665723  0.54802291  1
  B  B21  1  0.80477409  0.93644618  0.44947489  1
  B  B22  1  0.81085743  0.68334277  0.04802291  1
  B  B23  1  0.19522591  0.06355382  0.94947489  1
  B  B24  1  0.31085743  0.81665723  0.54802291  1
  B  B25  1  0.03677770  0.19031002  0.83003089  1
  B  B26  1  0.46322230  0.69031002  0.83003089  1
  B  B27  1  0.30477409  0.56355382  0.94947489  1
  B  B28  1  0.53677770  0.30968998  0.16996911  1
  B  B29  1  0.96322230  0.80968998  0.16996911  1
  B  B30  1  0.30477409  0.56355382  0.55052511  1
  B  B31  1  0.46322230  0.69031002  0.66996911  1
  B  B32  1  0.03677770  0.19031002  0.66996911  1
  B  B33  1  0.31085743  0.81665723  0.95197709  1
  B  B34  1  0.81085743  0.68334277  0.45197709  1
  B  B35  1  0.19522591  0.06355382  0.55052511  1
  P  P36  1  0.32947558  0.81040677  0.25000000  1
  P  P37  1  0.82947558  0.68959323  0.75000000  1
  P  P38  1  0.67052442  0.18959323  0.75000000  1
  P  P39  1  0.17052442  0.31040677  0.25000000  1
  O  O40  1  0.39754352  0.55975137  0.62439139  1
  O  O41  1  0.81409561  0.18698219  0.67170859  1
  O  O42  1  0.73263481  0.31061172  0.49205378  1
  O  O43  1  0.90454389  0.68025269  0.12196736  1
  O  O44  1  0.74695467  0.05867009  0.49085561  1
  O  O45  1  0.75304533  0.55867009  0.00914439  1
  O  O46  1  0.59545611  0.18025269  0.12196736  1
  O  O47  1  0.09545611  0.31974731  0.62196736  1
  O  O48  1  0.74695467  0.05867009  0.00914439  1
  O  O49  1  0.73263481  0.31061172  0.00794622  1
  O  O50  1  0.60245648  0.44024863  0.37560861  1
  O  O51  1  0.94533002  0.55273511  0.75000000  1
  O  O52  1  0.93675777  0.83009589  0.75000000  1
  O  O53  1  0.18590439  0.81301781  0.32829141  1
  O  O54  1  0.09545611  0.31974731  0.87803264  1
  O  O55  1  0.18590439  0.81301781  0.17170859  1
  O  O56  1  0.56324223  0.33009589  0.75000000  1
  O  O57  1  0.59545611  0.18025269  0.37803264  1
  O  O58  1  0.37658302  0.69416609  0.75000000  1
  O  O59  1  0.81409561  0.18698219  0.82829141  1
  O  O60  1  0.60245648  0.44024863  0.12439139  1
  O  O61  1  0.39754352  0.55975137  0.87560861  1
  O  O62  1  0.24695467  0.44132991  0.99085561  1
  O  O63  1  0.10245648  0.05975137  0.62439139  1
  O  O64  1  0.06324223  0.16990411  0.25000000  1
  O  O65  1  0.89754352  0.94024863  0.37560861  1
  O  O66  1  0.25304533  0.94132991  0.99085561  1
  O  O67  1  0.26736519  0.68938828  0.99205378  1
  O  O68  1  0.40454389  0.81974731  0.87803264  1
  O  O69  1  0.75304533  0.55867009  0.49085561  1
  O  O70  1  0.68590439  0.68698219  0.82829141  1
  O  O71  1  0.76736519  0.81061172  0.00794622  1
  O  O72  1  0.12341698  0.19416609  0.75000000  1
  O  O73  1  0.23263481  0.18938828  0.99205378  1
  O  O74  1  0.43675777  0.66990411  0.25000000  1
  O  O75  1  0.31409561  0.31301781  0.17170859  1
  O  O76  1  0.89754352  0.94024863  0.12439139  1
  O  O77  1  0.05466998  0.44726489  0.25000000  1
  O  O78  1  0.76736519  0.81061172  0.49205378  1
  O  O79  1  0.31409561  0.31301781  0.32829141  1
  O  O80  1  0.62341698  0.30583391  0.25000000  1
  O  O81  1  0.23263481  0.18938828  0.50794622  1
  O  O82  1  0.44533002  0.94726489  0.25000000  1
  O  O83  1  0.90454389  0.68025269  0.37803264  1
  O  O84  1  0.87658302  0.80583391  0.25000000  1
  O  O85  1  0.55466998  0.05273511  0.75000000  1
  O  O86  1  0.40454389  0.81974731  0.62196736  1
  O  O87  1  0.26736519  0.68938828  0.50794622  1
  O  O88  1  0.25304533  0.94132991  0.50914439  1
  O  O89  1  0.10245648  0.05975137  0.87560861  1
  O  O90  1  0.24695467  0.44132991  0.50914439  1
  O  O91  1  0.68590439  0.68698219  0.67170859  1
