# generated using pymatgen
data_CdI2
_symmetry_space_group_name_H-M   'P 1'
_cell_length_a   4.28557005
_cell_length_b   4.28557044
_cell_length_c   57.34747709
_cell_angle_alpha   90.00000000
_cell_angle_beta   90.00000000
_cell_angle_gamma   119.99999707
_symmetry_Int_Tables_number   1
_chemical_formula_structural   CdI2
_chemical_formula_sum   'Cd8 I16'
_cell_volume   912.14146160
_cell_formula_units_Z   8
loop_
 _symmetry_equiv_pos_site_id
 _symmetry_equiv_pos_as_xyz
  1  'x, y, z'
loop_
 _atom_site_type_symbol
 _atom_site_label
 _atom_site_symmetry_multiplicity
 _atom_site_fract_x
 _atom_site_fract_y
 _atom_site_fract_z
 _atom_site_occupancy
  Cd  Cd0  1  0.00000000  -0.00000000  0.78079417  1
  Cd  Cd1  1  0.00000000  -0.00000000  0.40625787  1
  Cd  Cd2  1  -0.00000000  -0.00000000  0.90624200  1
  Cd  Cd3  1  0.66666700  0.33333300  0.03125132  1
  Cd  Cd4  1  0.66666700  0.33333300  0.53169935  1
  Cd  Cd5  1  0.00000000  -0.00000000  0.15623831  1
  Cd  Cd6  1  0.00000000  0.00000000  0.65625977  1
  Cd  Cd7  1  0.66666700  0.33333300  0.28125381  1
  I  I8  1  0.33333300  0.66666700  0.81071087  1
  I  I9  1  0.33333300  0.66666700  0.56161060  1
  I  I10  1  0.66666700  0.33333300  0.12619562  1
  I  I11  1  -0.00000000  -0.00000000  0.25119798  1
  I  I12  1  0.33333300  0.66666700  0.06130675  1
  I  I13  1  0.33333300  0.66666700  0.43630301  1
  I  I14  1  0.66666700  0.33333300  0.62620825  1
  I  I15  1  0.33333300  0.66666700  0.18630086  1
  I  I16  1  0.66666700  0.33333300  0.87619103  1
  I  I17  1  0.66666700  0.33333300  0.75088854  1
  I  I18  1  0.33333300  0.66666700  0.31130767  1
  I  I19  1  0.33333300  0.66666700  0.93630623  1
  I  I20  1  0.66666700  0.33333300  0.37619357  1
  I  I21  1  -0.00000000  -0.00000000  0.00119130  1
  I  I22  1  0.33333300  0.66666700  0.68630643  1
  I  I23  1  -0.00000000  -0.00000000  0.50178468  1
