# generated using pymatgen
data_Hg2Mo2O7
_symmetry_space_group_name_H-M   'P 1'
_cell_length_a   7.09802381
_cell_length_b   7.16121624
_cell_length_c   8.17117776
_cell_angle_alpha   64.72339498
_cell_angle_beta   66.39940218
_cell_angle_gamma   66.88190517
_symmetry_Int_Tables_number   1
_chemical_formula_structural   Hg2Mo2O7
_chemical_formula_sum   'Hg4 Mo4 O14'
_cell_volume   331.61994978
_cell_formula_units_Z   2
loop_
 _symmetry_equiv_pos_site_id
 _symmetry_equiv_pos_as_xyz
  1  'x, y, z'
loop_
 _atom_site_type_symbol
 _atom_site_label
 _atom_site_symmetry_multiplicity
 _atom_site_fract_x
 _atom_site_fract_y
 _atom_site_fract_z
 _atom_site_occupancy
  Hg  Hg0  1  0.18119987  0.32560230  0.36770456  1
  Hg  Hg1  1  0.37293019  0.17591864  0.62183814  1
  Hg  Hg2  1  0.81880013  0.67439770  0.63229544  1
  Hg  Hg3  1  0.62706981  0.82408136  0.37816186  1
  Mo  Mo4  1  0.80897670  0.37359429  0.13589302  1
  Mo  Mo5  1  0.19102330  0.62640571  0.86410698  1
  Mo  Mo6  1  0.70017811  0.12149665  0.87839103  1
  Mo  Mo7  1  0.29982189  0.87850335  0.12160897  1
  O  O8  1  0.53618844  0.99664010  0.83693102  1
  O  O9  1  0.23561333  0.81419003  0.64572267  1
  O  O10  1  0.46381156  0.00335990  0.16306898  1
  O  O11  1  0.70458644  0.28663632  0.00731497  1
  O  O12  1  0.17672308  0.75035029  0.34782284  1
  O  O13  1  0.76438667  0.18580997  0.35427733  1
  O  O14  1  0.97210437  0.54442085  0.84788712  1
  O  O15  1  0.59546471  0.59748519  0.16339691  1
  O  O16  1  0.02789563  0.45557915  0.15211288  1
  O  O17  1  0.29541356  0.71336368  0.99268503  1
  O  O18  1  0.10085786  0.10759061  0.05508616  1
  O  O19  1  0.40453529  0.40251481  0.83660309  1
  O  O20  1  0.89914214  0.89240939  0.94491384  1
  O  O21  1  0.82327692  0.24964971  0.65217716  1
