# generated using pymatgen
data_Na5P3O10
_symmetry_space_group_name_H-M   'P 1'
_cell_length_a   5.49639077
_cell_length_b   5.49639077
_cell_length_c   18.39161869
_cell_angle_alpha   83.86842689
_cell_angle_beta   83.86842689
_cell_angle_gamma   57.78501085
_symmetry_Int_Tables_number   1
_chemical_formula_structural   Na5P3O10
_chemical_formula_sum   'Na10 P6 O20'
_cell_volume   466.57013559
_cell_formula_units_Z   2
loop_
 _symmetry_equiv_pos_site_id
 _symmetry_equiv_pos_as_xyz
  1  'x, y, z'
loop_
 _atom_site_type_symbol
 _atom_site_label
 _atom_site_symmetry_multiplicity
 _atom_site_fract_x
 _atom_site_fract_y
 _atom_site_fract_z
 _atom_site_occupancy
  Na  Na0  1  0.69364540  0.15712627  0.06601771  1
  Na  Na1  1  0.96238474  0.60617689  0.82512859  1
  Na  Na2  1  0.39382311  0.03761526  0.67487141  1
  Na  Na3  1  0.84287373  0.30635460  0.43398229  1
  Na  Na4  1  0.30635460  0.84287373  0.93398229  1
  Na  Na5  1  0.60617689  0.96238474  0.32512859  1
  Na  Na6  1  -0.00000000  0.50000000  -0.00000000  1
  Na  Na7  1  0.03761526  0.39382311  0.17487141  1
  Na  Na8  1  0.15712627  0.69364540  0.56601771  1
  Na  Na9  1  0.50000000  -0.00000000  0.50000000  1
  P  P10  1  0.18934469  0.64481080  0.40105272  1
  P  P11  1  0.64481080  0.18934469  0.90105272  1
  P  P12  1  0.39867681  0.60132319  0.25000000  1
  P  P13  1  0.60132319  0.39867681  0.75000000  1
  P  P14  1  0.35518920  0.81065531  0.09894728  1
  P  P15  1  0.81065531  0.35518920  0.59894728  1
  O  O16  1  0.56850169  0.66761187  0.59700803  1
  O  O17  1  0.84623037  0.24029248  0.68631538  1
  O  O18  1  0.41814128  0.33166480  0.23283905  1
  O  O19  1  0.83594171  0.25682970  0.93708627  1
  O  O20  1  0.10436990  0.30584531  0.57517206  1
  O  O21  1  0.33166480  0.41814128  0.73283905  1
  O  O22  1  0.89563010  0.69415469  0.42482794  1
  O  O23  1  0.30584531  0.10436990  0.07517206  1
  O  O24  1  0.33238813  0.43149831  0.90299197  1
  O  O25  1  0.69415469  0.89563010  0.92482794  1
  O  O26  1  0.74317030  0.16405829  0.56291373  1
  O  O27  1  0.43149831  0.33238813  0.40299197  1
  O  O28  1  0.66761187  0.56850169  0.09700803  1
  O  O29  1  0.66833520  0.58185872  0.26716095  1
  O  O30  1  0.25682970  0.83594171  0.43708627  1
  O  O31  1  0.16405829  0.74317030  0.06291373  1
  O  O32  1  0.15376963  0.75970752  0.31368462  1
  O  O33  1  0.58185872  0.66833520  0.76716095  1
  O  O34  1  0.24029248  0.84623037  0.18631538  1
  O  O35  1  0.75970752  0.15376963  0.81368462  1
