# generated using pymatgen
data_BaSb2F12
_symmetry_space_group_name_H-M   'P 1'
_cell_length_a   5.52104672
_cell_length_b   5.60524567
_cell_length_c   9.39590659
_cell_angle_alpha   94.69319605
_cell_angle_beta   99.80463610
_cell_angle_gamma   119.53708521
_symmetry_Int_Tables_number   1
_chemical_formula_structural   BaSb2F12
_chemical_formula_sum   'Ba1 Sb2 F12'
_cell_volume   244.58410785
_cell_formula_units_Z   1
loop_
 _symmetry_equiv_pos_site_id
 _symmetry_equiv_pos_as_xyz
  1  'x, y, z'
loop_
 _atom_site_type_symbol
 _atom_site_label
 _atom_site_symmetry_multiplicity
 _atom_site_fract_x
 _atom_site_fract_y
 _atom_site_fract_z
 _atom_site_occupancy
  Ba  Ba0  1  0.01202418  0.97431486  0.91694849  1
  Sb  Sb1  1  0.18096733  0.48907999  0.58348511  1
  Sb  Sb2  1  0.41291388  0.70330259  0.14603583  1
  F  F3  1  0.23532950  0.89338685  0.20585221  1
  F  F4  1  0.51437392  0.60148562  0.74170127  1
  F  F5  1  0.08740653  0.52543715  0.97533406  1
  F  F6  1  0.20552732  0.37165665  0.21412069  1
  F  F7  1  0.55752321  0.51520043  0.03723849  1
  F  F8  1  0.24155005  0.21726254  0.49780503  1
  F  F9  1  0.74920334  0.87782035  0.29208216  1
  F  F10  1  0.14788474  0.76427238  0.70259407  1
  F  F11  1  0.84421745  0.39418943  0.44719326  1
  F  F12  1  0.96566246  0.23118573  0.70007878  1
  F  F13  1  0.41560153  0.76425958  0.48815668  1
  F  F14  1  0.57781357  0.98714485  0.02937288  1
