# generated using pymatgen
data_BaMnF5
_symmetry_space_group_name_H-M   'P 1'
_cell_length_a   4.83057637
_cell_length_b   5.81196435
_cell_length_c   14.16430948
_cell_angle_alpha   90.00000000
_cell_angle_beta   90.00000000
_cell_angle_gamma   90.00000000
_symmetry_Int_Tables_number   1
_chemical_formula_structural   BaMnF5
_chemical_formula_sum   'Ba4 Mn4 F20'
_cell_volume   397.66493840
_cell_formula_units_Z   4
loop_
 _symmetry_equiv_pos_site_id
 _symmetry_equiv_pos_as_xyz
  1  'x, y, z'
loop_
 _atom_site_type_symbol
 _atom_site_label
 _atom_site_symmetry_multiplicity
 _atom_site_fract_x
 _atom_site_fract_y
 _atom_site_fract_z
 _atom_site_occupancy
  Ba  Ba0  1  0.73038615  0.63069647  0.66144265  1
  Ba  Ba1  1  0.23038615  0.86930353  0.33855735  1
  Ba  Ba2  1  0.26961385  0.13069647  0.83855735  1
  Ba  Ba3  1  0.76961385  0.36930353  0.16144265  1
  Mn  Mn4  1  0.33859390  0.11577082  0.58406093  1
  Mn  Mn5  1  0.83859390  0.38422918  0.41593907  1
  Mn  Mn6  1  0.66140610  0.61577082  0.91593907  1
  Mn  Mn7  1  0.16140610  0.88422918  0.08406093  1
  F  F8  1  0.99648383  0.61280886  0.48772890  1
  F  F9  1  0.49648383  0.88719114  0.51227110  1
  F  F10  1  0.00351617  0.11280886  0.01227110  1
  F  F11  1  0.50351617  0.38719114  0.98772890  1
  F  F12  1  0.69389817  0.62803431  0.32324617  1
  F  F13  1  0.19389817  0.87196569  0.67675383  1
  F  F14  1  0.30610183  0.12803431  0.17675383  1
  F  F15  1  0.80610183  0.37196569  0.82324617  1
  F  F16  1  0.20146467  0.35610802  0.65851981  1
  F  F17  1  0.70146467  0.14389198  0.34148019  1
  F  F18  1  0.79853533  0.85610802  0.84148019  1
  F  F19  1  0.29853533  0.64389198  0.15851981  1
  F  F20  1  0.64386867  0.11898176  0.66479845  1
  F  F21  1  0.14386867  0.38101824  0.33520155  1
  F  F22  1  0.35613133  0.61898176  0.83520155  1
  F  F23  1  0.85613133  0.88101824  0.16479845  1
  F  F24  1  0.54584330  0.37318868  0.50203644  1
  F  F25  1  0.04584330  0.12681132  0.49796356  1
  F  F26  1  0.45415670  0.87318868  0.99796356  1
  F  F27  1  0.95415670  0.62681132  0.00203644  1
